TITL C-3289333-7213-609 -0.0023486513203137 125000 -1002.77325802811 0 0 195 (C1) n - 1
REM
REM in /nfs/bkarasulu/CARBON/AIRSS/Generating-Clusters/AIREBO/with-SteepDescent/Higher-Symm/SD-CG/HFTN-CG
REM
REM
REM
REM
REM
REM ./C.cell (b20cbc046b6831c77cfcea5457e17084)
REM
REM compiler GCC version 9.2.1 20190827 (Red Hat 9.2.1-1)
REM options -cpp -mtune=generic -march=x86-64 -g -O0 -fpre-include=/usr/include/finclude/math-vector-fortran.h
REM seed -922577629 -2074420148 242187886 236591234 -2017163526 -2131541270 -801926785 -760550607 1094581347 -1549629458 -621741122 387096587 -1409072993 329901658 -311272783 1728569578 1696065173 318515973 -1063508673 -449938200 -530329707 607147763 406508254 -1124141649 781134857 -354490120 -99738061 -2028164245 -299321031 -1173146189 1902432000 1307214893 276182031
REM
CELL 1.54180   50.00000   50.00000   50.00000   90.00000   90.00000   90.00000
LATT -1
SFAC C  
C      1  0.5892880000000  0.4787840000000  0.5774670000000 1.0
C      1  0.5166110000000  0.4046030000000  0.5937440000000 1.0
C      1  0.4322490000000  0.4185100000000  0.5755770000000 1.0
C      1  0.4053400000000  0.5136470000000  0.5943430000000 1.0
C      1  0.4618690000000  0.5781050000000  0.5813560000000 1.0
C      1  0.5324860000000  0.6051660000000  0.5813300000000 1.0
C      1  0.5717350000000  0.5416900000000  0.5748910000000 1.0
C      1  0.4439570000000  0.4466670000000  0.4839200000000 1.0
C      1  0.4177600000000  0.5083210000000  0.4820860000000 1.0
C      1  0.4575710000000  0.5682430000000  0.4851170000000 1.0
C      1  0.5313930000000  0.5699670000000  0.4812170000000 1.0
C      1  0.5744440000000  0.5164640000000  0.4868610000000 1.0
C      1  0.5677940000000  0.4592460000000  0.4709880000000 1.0
C      1  0.5278230000000  0.4110000000000  0.4819190000000 1.0
C      1  0.5029640000000  0.4638320000000  0.5771760000000 1.0
C      1  0.4737990000000  0.4715570000000  0.5660990000000 1.0
C      1  0.4554670000000  0.4887370000000  0.5890760000000 1.0
C      1  0.4737600000000  0.5106600000000  0.5735870000000 1.0
C      1  0.4976240000000  0.5306980000000  0.5707250000000 1.0
C      1  0.5259990000000  0.5172120000000  0.5781610000000 1.0
C      1  0.5220960000000  0.4877730000000  0.5680540000000 1.0
C      1  0.4872920000000  0.4586040000000  0.5376810000000 1.0
C      1  0.4561230000000  0.4869360000000  0.5281890000000 1.0
C      1  0.4611060000000  0.5160040000000  0.5456170000000 1.0
C      1  0.4945290000000  0.5431660000000  0.5397200000000 1.0
C      1  0.5185430000000  0.5198630000000  0.5347900000000 1.0
C      1  0.5402960000000  0.5018610000000  0.5443120000000 1.0
C      1  0.5213070000000  0.4610740000000  0.5383970000000 1.0
C      1  0.5860590000000  0.4397830000000  0.5702600000000 1.0
C      1  0.4973780000000  0.3957550000000  0.5410720000000 1.0
C      1  0.4076040000000  0.4480690000000  0.5398570000000 1.0
C      1  0.3985250000000  0.5307390000000  0.5406150000000 1.0
C      1  0.4751030000000  0.5977610000000  0.5343560000000 1.0
C      1  0.5489550000000  0.5907520000000  0.5504800000000 1.0
C      1  0.5986780000000  0.5092870000000  0.5373030000000 1.0
C      1  0.4996570000000  0.4216420000000  0.4661720000000 1.0
C      1  0.4291690000000  0.4766150000000  0.4870340000000 1.0
C      1  0.4368000000000  0.5340650000000  0.4706080000000 1.0
C      1  0.4904060000000  0.5762330000000  0.4813320000000 1.0
C      1  0.5498510000000  0.5453150000000  0.4744240000000 1.0
C      1  0.5671860000000  0.4852250000000  0.4879020000000 1.0
C      1  0.5447040000000  0.4400550000000  0.4872220000000 1.0
C      1  0.4863840000000  0.4570500000000  0.6126430000000 1.0
C      1  0.4603920000000  0.4613730000000  0.6022690000000 1.0
C      1  0.4571760000000  0.5342710000000  0.6072770000000 1.0
C      1  0.4900750000000  0.5430120000000  0.6079030000000 1.0
C      1  0.5206510000000  0.5282160000000  0.6098840000000 1.0
C      1  0.5385360000000  0.4991030000000  0.6110060000000 1.0
C      1  0.5151220000000  0.4744470000000  0.6069510000000 1.0
C      1  0.5891690000000  0.5390720000000  0.5266670000000 1.0
C      1  0.5973590000000  0.4479970000000  0.5462670000000 1.0
C      1  0.5303800000000  0.4026250000000  0.5344860000000 1.0
C      1  0.4244580000000  0.4226450000000  0.5285070000000 1.0
C      1  0.3892170000000  0.5014320000000  0.5299930000000 1.0
C      1  0.4459540000000  0.5884960000000  0.5261000000000 1.0
C      1  0.5340350000000  0.6168740000000  0.5395340000000 1.0
C      1  0.4888980000000  0.4427630000000  0.4008360000000 1.0
C      1  0.4300740000000  0.4662260000000  0.4045530000000 1.0
C      1  0.4274410000000  0.5135560000000  0.4058290000000 1.0
C      1  0.4877910000000  0.5680520000000  0.4077720000000 1.0
C      1  0.5402460000000  0.5490070000000  0.4037650000000 1.0
C      1  0.5564880000000  0.5033160000000  0.4045530000000 1.0
C      1  0.5420370000000  0.4598640000000  0.4029850000000 1.0
C      1  0.5378000000000  0.4954070000000  0.4741280000000 1.0
C      1  0.5262760000000  0.4642180000000  0.4774920000000 1.0
C      1  0.4961020000000  0.4503640000000  0.4789680000000 1.0
C      1  0.4550540000000  0.4874940000000  0.4678400000000 1.0
C      1  0.4656350000000  0.5196130000000  0.4665690000000 1.0
C      1  0.4876040000000  0.5437260000000  0.4754450000000 1.0
C      1  0.5189750000000  0.5330980000000  0.4720050000000 1.0
C      1  0.6080900000000  0.4783770000000  0.4693300000000 1.0
C      1  0.5580140000000  0.4088060000000  0.4663990000000 1.0
C      1  0.4564640000000  0.3991770000000  0.4758920000000 1.0
C      1  0.3974640000000  0.4470810000000  0.4647530000000 1.0
C      1  0.4273620000000  0.5783130000000  0.4731960000000 1.0
C      1  0.5102700000000  0.6154800000000  0.4775160000000 1.0
C      1  0.5859880000000  0.5619680000000  0.4751850000000 1.0
C      1  0.4424400000000  0.4003700000000  0.5357300000000 1.0
C      1  0.3905120000000  0.4786330000000  0.5205280000000 1.0
C      1  0.4181070000000  0.5782000000000  0.5313100000000 1.0
C      1  0.5163010000000  0.6186380000000  0.5222140000000 1.0
C      1  0.5812990000000  0.5645920000000  0.5321500000000 1.0
C      1  0.6126100000000  0.4646630000000  0.5269380000000 1.0
C      1  0.5582540000000  0.4078400000000  0.5291970000000 1.0
C      1  0.5300650000000  0.5191300000000  0.4189890000000 1.0
C      1  0.5261540000000  0.4879310000000  0.4050050000000 1.0
C      1  0.4955110000000  0.4733890000000  0.4022820000000 1.0
C      1  0.4683060000000  0.4870090000000  0.4180490000000 1.0
C      1  0.4425820000000  0.4911320000000  0.4021100000000 1.0
C      1  0.4795730000000  0.5306780000000  0.4229670000000 1.0
C      1  0.5072820000000  0.5409030000000  0.4061140000000 1.0
C      1  0.5377900000000  0.5132280000000  0.5009480000000 1.0
C      1  0.5145450000000  0.4719540000000  0.5084250000000 1.0
C      1  0.4975870000000  0.4444720000000  0.5101770000000 1.0
C      1  0.4670330000000  0.4921450000000  0.4965440000000 1.0
C      1  0.4588710000000  0.5199050000000  0.5059610000000 1.0
C      1  0.4821940000000  0.5377170000000  0.5084200000000 1.0
C      1  0.5155290000000  0.5379080000000  0.5061270000000 1.0
C      1  0.4348200000000  0.4474480000000  0.5579080000000 1.0
C      1  0.4185410000000  0.5205540000000  0.5657870000000 1.0
C      1  0.4684790000000  0.5744980000000  0.5556770000000 1.0
C      1  0.5262940000000  0.5749000000000  0.5702850000000 1.0
C      1  0.5843190000000  0.5047180000000  0.5679160000000 1.0
C      1  0.5624230000000  0.4607340000000  0.5770190000000 1.0
C      1  0.5017360000000  0.4162910000000  0.5671500000000 1.0
C      1  0.5714250000000  0.5292540000000  0.4577210000000 1.0
C      1  0.5682590000000  0.4706070000000  0.4389380000000 1.0
C      1  0.5191750000000  0.4208650000000  0.4313780000000 1.0
C      1  0.4479270000000  0.4348940000000  0.4521230000000 1.0
C      1  0.4043970000000  0.4984760000000  0.4524100000000 1.0
C      1  0.4561460000000  0.5561280000000  0.4533800000000 1.0
C      1  0.5139150000000  0.5815430000000  0.4573420000000 1.0
C      1  0.4298010000000  0.5185210000000  0.5121530000000 1.0
C      1  0.4474870000000  0.5573640000000  0.5140850000000 1.0
C      1  0.5217660000000  0.5706930000000  0.5126610000000 1.0
C      1  0.5638340000000  0.5199700000000  0.5175320000000 1.0
C      1  0.5730720000000  0.4605470000000  0.5266210000000 1.0
C      1  0.5132480000000  0.4179490000000  0.5118460000000 1.0
C      1  0.4526630000000  0.4315840000000  0.5131260000000 1.0
C      1  0.5800450000000  0.4228600000000  0.4816780000000 1.0
C      1  0.4767950000000  0.3911500000000  0.4944140000000 1.0
C      1  0.4071560000000  0.4320860000000  0.4882760000000 1.0
C      1  0.4044220000000  0.5566530000000  0.4847940000000 1.0
C      1  0.4782180000000  0.6135790000000  0.4887660000000 1.0
C      1  0.5681910000000  0.5829910000000  0.4885760000000 1.0
C      1  0.6104230000000  0.5003440000000  0.4895180000000 1.0
C      1  0.6021470000000  0.5329350000000  0.4829810000000 1.0
C      1  0.5988770000000  0.4481350000000  0.4749630000000 1.0
C      1  0.5038960000000  0.3875100000000  0.4876720000000 1.0
C      1  0.4326550000000  0.4146350000000  0.4824200000000 1.0
C      1  0.3930900000000  0.5282950000000  0.4875000000000 1.0
C      1  0.4518370000000  0.6015810000000  0.4816520000000 1.0
C      1  0.5412720000000  0.6014080000000  0.4784610000000 1.0
C      1  0.4089170000000  0.4673000000000  0.4501600000000 1.0
C      1  0.4163050000000  0.5539720000000  0.4521750000000 1.0
C      1  0.4902350000000  0.6039900000000  0.4525500000000 1.0
C      1  0.5780560000000  0.5583350000000  0.4423230000000 1.0
C      1  0.5975950000000  0.4867410000000  0.4448610000000 1.0
C      1  0.5522210000000  0.4155820000000  0.4374370000000 1.0
C      1  0.4727320000000  0.4147220000000  0.4518190000000 1.0
C      1  0.4776920000000  0.5779860000000  0.4387050000000 1.0
C      1  0.5514910000000  0.5644660000000  0.4292900000000 1.0
C      1  0.5769960000000  0.5088220000000  0.4311190000000 1.0
C      1  0.5474370000000  0.4482600000000  0.4293410000000 1.0
C      1  0.4897040000000  0.4274990000000  0.4261580000000 1.0
C      1  0.4330400000000  0.4584400000000  0.4343460000000 1.0
C      1  0.4197740000000  0.5234030000000  0.4363870000000 1.0
C      1  0.4770860000000  0.6234950000000  0.5458130000000 1.0
C      1  0.5746870000000  0.5953920000000  0.5640150000000 1.0
C      1  0.6272360000000  0.5088310000000  0.5404230000000 1.0
C      1  0.5903680000000  0.4174710000000  0.5852390000000 1.0
C      1  0.4950470000000  0.3662230000000  0.5496570000000 1.0
C      1  0.3815050000000  0.4552530000000  0.5524180000000 1.0
C      1  0.3749110000000  0.5473310000000  0.5510500000000 1.0
C      1  0.4546410000000  0.4552040000000  0.5354620000000 1.0
C      1  0.4306670000000  0.5054910000000  0.5410000000000 1.0
C      1  0.4609300000000  0.5480480000000  0.5406540000000 1.0
C      1  0.5115880000000  0.5701280000000  0.5433140000000 1.0
C      1  0.5628950000000  0.5208860000000  0.5502160000000 1.0
C      1  0.5503410000000  0.4694750000000  0.5468260000000 1.0
C      1  0.5157140000000  0.4310870000000  0.5431150000000 1.0
C      1  0.4400800000000  0.5761020000000  0.4324760000000 1.0
C      1  0.5342740000000  0.5892660000000  0.4354940000000 1.0
C      1  0.5948510000000  0.5366860000000  0.4228640000000 1.0
C      1  0.5807210000000  0.4676660000000  0.4095060000000 1.0
C      1  0.5342110000000  0.3960810000000  0.4162210000000 1.0
C      1  0.4237300000000  0.4197810000000  0.4364200000000 1.0
C      1  0.3739950000000  0.5036360000000  0.4504130000000 1.0
C      1  0.4392530000000  0.5157100000000  0.5930130000000 1.0
C      1  0.4652490000000  0.5648260000000  0.6055140000000 1.0
C      1  0.5151310000000  0.5542130000000  0.5878350000000 1.0
C      1  0.5572950000000  0.5174950000000  0.5893240000000 1.0
C      1  0.5467560000000  0.4676080000000  0.6011770000000 1.0
C      1  0.5034360000000  0.4354970000000  0.5945970000000 1.0
C      1  0.4470310000000  0.4418860000000  0.5894470000000 1.0
C      1  0.4976970000000  0.5944810000000  0.5090840000000 1.0
C      1  0.5542520000000  0.5783260000000  0.5192420000000 1.0
C      1  0.5900070000000  0.4867580000000  0.5130820000000 1.0
C      1  0.5664180000000  0.4333120000000  0.5110220000000 1.0
C      1  0.4717350000000  0.4030060000000  0.5222530000000 1.0
C      1  0.4113890000000  0.4562200000000  0.5076870000000 1.0
C      1  0.4148020000000  0.5479960000000  0.5160440000000 1.0
C      1  0.4849820000000  0.4532380000000  0.4474410000000 1.0
C      1  0.4616650000000  0.4713690000000  0.4440200000000 1.0
C      1  0.4525270000000  0.5204560000000  0.4359650000000 1.0
C      1  0.4940570000000  0.5501510000000  0.4427070000000 1.0
C      1  0.5262740000000  0.5448440000000  0.4409240000000 1.0
C      1  0.5473070000000  0.4972620000000  0.4429980000000 1.0
C      1  0.5196600000000  0.4512210000000  0.4467760000000 1.0
C      1  0.4943360000000  0.5027270000000  0.5234050000000 1.0
C      1  0.4936640000000  0.5064120000000  0.3970340000000 1.0
C      1  0.5070700000000  0.5030340000000  0.4617080000000 1.0
C      1  0.4959060000000  0.5022980000000  0.4307240000000 1.0
C      1  0.4939580000000  0.4945440000000  0.5533460000000 1.0
C      1  0.4981140000000  0.4935020000000  0.4921490000000 1.0
END
