TITL C-3289332-8317-317 0.000771033625250499 125000 -651.169032592733 0 0 119 (C1) n - 1
REM
REM in /nfs/bkarasulu/CARBON/AIRSS/Generating-Clusters/AIREBO/with-SteepDescent/Higher-Symm/SD-CG/HFTN-CG
REM
REM
REM
REM
REM
REM ./C.cell (b20cbc046b6831c77cfcea5457e17084)
REM
REM compiler GCC version 9.2.1 20190827 (Red Hat 9.2.1-1)
REM options -cpp -mtune=generic -march=x86-64 -g -O0 -fpre-include=/usr/include/finclude/math-vector-fortran.h
REM seed -1099954344 -805547892 -1149201970 1820695061 -846464103 101024884 333394329 -654843658 1263222668 -1977257300 1858821009 2042685422 -1445891307 1920510004 -504184148 716409740 725695859 693648890 1934459509 56507805 -919451626 -298392992 1333090010 1412842112 1093562212 -719444006 1649098415 1081815783 2054381858 1114565110 -186869839 1198355216 1301663103
REM
CELL 1.54180   50.00000   50.00000   50.00000   90.00000   90.00000   90.00000
LATT -1
SFAC C  
C      1  0.5846750000000  0.4634390000000  0.4606050000000 1.0
C      1  0.5823170000000  0.4952830000000  0.5529480000000 1.0
C      1  0.4151890000000  0.4836870000000  0.4211610000000 1.0
C      1  0.4890490000000  0.5633150000000  0.4879810000000 1.0
C      1  0.4482510000000  0.5300250000000  0.4136800000000 1.0
C      1  0.4801350000000  0.4126290000000  0.5581850000000 1.0
C      1  0.5474230000000  0.5452060000000  0.5500090000000 1.0
C      1  0.5133120000000  0.5776060000000  0.4686630000000 1.0
C      1  0.5200750000000  0.4267490000000  0.4821220000000 1.0
C      1  0.5334360000000  0.4201720000000  0.4536050000000 1.0
C      1  0.4040770000000  0.5369080000000  0.5146740000000 1.0
C      1  0.5131350000000  0.5480140000000  0.4206210000000 1.0
C      1  0.4089960000000  0.5620360000000  0.5026170000000 1.0
C      1  0.5343250000000  0.4482680000000  0.5310900000000 1.0
C      1  0.4251320000000  0.4777020000000  0.5370580000000 1.0
C      1  0.4790740000000  0.4415600000000  0.5657190000000 1.0
C      1  0.4221280000000  0.4875530000000  0.5756380000000 1.0
C      1  0.5696640000000  0.5195440000000  0.4686860000000 1.0
C      1  0.5458220000000  0.5079310000000  0.5223210000000 1.0
C      1  0.5969220000000  0.4927870000000  0.5230590000000 1.0
C      1  0.5810410000000  0.4674120000000  0.5333330000000 1.0
C      1  0.5605290000000  0.4313340000000  0.5420860000000 1.0
C      1  0.4562600000000  0.5723010000000  0.5089280000000 1.0
C      1  0.4826210000000  0.4642350000000  0.5407430000000 1.0
C      1  0.5615420000000  0.4380170000000  0.4616180000000 1.0
C      1  0.5524680000000  0.4760850000000  0.4195530000000 1.0
C      1  0.4461250000000  0.4693930000000  0.5625970000000 1.0
C      1  0.4666960000000  0.5117160000000  0.5284890000000 1.0
C      1  0.5576980000000  0.5608910000000  0.4773250000000 1.0
C      1  0.4186630000000  0.5117820000000  0.4654300000000 1.0
C      1  0.4732470000000  0.5080010000000  0.4063410000000 1.0
C      1  0.4097850000000  0.5080330000000  0.5685250000000 1.0
C      1  0.4323580000000  0.5727020000000  0.4901390000000 1.0
C      1  0.5315880000000  0.5606850000000  0.5259690000000 1.0
C      1  0.4912700000000  0.5627180000000  0.4390830000000 1.0
C      1  0.4418680000000  0.4329230000000  0.5173310000000 1.0
C      1  0.5925260000000  0.5331130000000  0.4898640000000 1.0
C      1  0.5075970000000  0.4947500000000  0.4629770000000 1.0
C      1  0.5314550000000  0.4618710000000  0.4504620000000 1.0
C      1  0.4053560000000  0.5122660000000  0.4967810000000 1.0
C      1  0.4422120000000  0.4966890000000  0.4144040000000 1.0
C      1  0.5282650000000  0.5357400000000  0.5727350000000 1.0
C      1  0.5026780000000  0.5455760000000  0.5762690000000 1.0
C      1  0.4303530000000  0.4610580000000  0.4608700000000 1.0
C      1  0.4867640000000  0.5028100000000  0.5034030000000 1.0
C      1  0.4956680000000  0.5198720000000  0.5383950000000 1.0
C      1  0.4988660000000  0.4495490000000  0.4689080000000 1.0
C      1  0.5014920000000  0.4498400000000  0.5087490000000 1.0
C      1  0.4445850000000  0.5141340000000  0.4435170000000 1.0
C      1  0.5378500000000  0.4454080000000  0.5633280000000 1.0
C      1  0.4630620000000  0.5726180000000  0.4504120000000 1.0
C      1  0.5711100000000  0.5552360000000  0.5271540000000 1.0
C      1  0.5010780000000  0.4946460000000  0.6173790000000 1.0
C      1  0.5429020000000  0.4124830000000  0.5003700000000 1.0
C      1  0.5117640000000  0.5458240000000  0.4603240000000 1.0
C      1  0.4998890000000  0.4147980000000  0.4498370000000 1.0
C      1  0.5281630000000  0.5060280000000  0.5750860000000 1.0
C      1  0.5494430000000  0.4933670000000  0.5530020000000 1.0
C      1  0.4377090000000  0.5656880000000  0.4629150000000 1.0
C      1  0.4927320000000  0.5226950000000  0.4692660000000 1.0
C      1  0.5874890000000  0.5063300000000  0.5018060000000 1.0
C      1  0.5376750000000  0.4755940000000  0.4809500000000 1.0
C      1  0.4155640000000  0.5284680000000  0.5446280000000 1.0
C      1  0.5786150000000  0.5562520000000  0.4996990000000 1.0
C      1  0.5561690000000  0.4965610000000  0.4388920000000 1.0
C      1  0.5687160000000  0.4245080000000  0.4909490000000 1.0
C      1  0.5030090000000  0.5230910000000  0.4128790000000 1.0
C      1  0.5454410000000  0.4063130000000  0.5273570000000 1.0
C      1  0.4205930000000  0.5440390000000  0.4548250000000 1.0
C      1  0.5065080000000  0.4798870000000  0.4935670000000 1.0
C      1  0.4726550000000  0.4519490000000  0.4813200000000 1.0
C      1  0.4500130000000  0.5164010000000  0.4926380000000 1.0
C      1  0.5810220000000  0.4906280000000  0.4548430000000 1.0
C      1  0.4372050000000  0.4618970000000  0.5148290000000 1.0
C      1  0.5569530000000  0.4975060000000  0.4918800000000 1.0
C      1  0.5382880000000  0.5831740000000  0.4834520000000 1.0
C      1  0.4848780000000  0.5703720000000  0.5508920000000 1.0
C      1  0.4766280000000  0.4734410000000  0.5772850000000 1.0
C      1  0.4555230000000  0.5685290000000  0.5401800000000 1.0
C      1  0.4830360000000  0.5908950000000  0.4678860000000 1.0
C      1  0.5175190000000  0.4372730000000  0.4315450000000 1.0
C      1  0.4903610000000  0.5007560000000  0.4337100000000 1.0
C      1  0.4869090000000  0.4248620000000  0.5124630000000 1.0
C      1  0.4736420000000  0.4174100000000  0.4617190000000 1.0
C      1  0.4977400000000  0.5348730000000  0.5006170000000 1.0
C      1  0.4495030000000  0.4413730000000  0.4610590000000 1.0
C      1  0.5071170000000  0.4574750000000  0.5717940000000 1.0
C      1  0.4936730000000  0.5936970000000  0.5670190000000 1.0
C      1  0.5311520000000  0.5329310000000  0.5066110000000 1.0
C      1  0.5016410000000  0.5509370000000  0.5310290000000 1.0
C      1  0.4124890000000  0.4818370000000  0.4485610000000 1.0
C      1  0.4545290000000  0.5387540000000  0.5141930000000 1.0
C      1  0.5553760000000  0.4490690000000  0.4300580000000 1.0
C      1  0.5357310000000  0.4742310000000  0.5775750000000 1.0
C      1  0.4802210000000  0.5924470000000  0.5017340000000 1.0
C      1  0.5305390000000  0.5866820000000  0.5107220000000 1.0
C      1  0.4433670000000  0.5387090000000  0.5463880000000 1.0
C      1  0.5920650000000  0.4474800000000  0.4854490000000 1.0
C      1  0.5338210000000  0.4513890000000  0.4996510000000 1.0
C      1  0.4620860000000  0.4229110000000  0.4938220000000 1.0
C      1  0.5626340000000  0.5462970000000  0.4470010000000 1.0
C      1  0.4888310000000  0.4073800000000  0.5328210000000 1.0
C      1  0.4642530000000  0.5180360000000  0.4658330000000 1.0
C      1  0.5017160000000  0.4918510000000  0.5910860000000 1.0
C      1  0.5819060000000  0.4412060000000  0.5174850000000 1.0
C      1  0.4655340000000  0.4786850000000  0.4922440000000 1.0
C      1  0.4992430000000  0.4690790000000  0.4423050000000 1.0
C      1  0.4386200000000  0.4395710000000  0.5477570000000 1.0
C      1  0.4115800000000  0.5001070000000  0.5275240000000 1.0
C      1  0.4749610000000  0.5385990000000  0.5578390000000 1.0
C      1  0.4402340000000  0.4880190000000  0.4766610000000 1.0
C      1  0.5390120000000  0.5325260000000  0.4757110000000 1.0
C      1  0.4629980000000  0.4796060000000  0.5250870000000 1.0
C      1  0.5111700000000  0.4710470000000  0.5327310000000 1.0
C      1  0.5155130000000  0.4994680000000  0.5309530000000 1.0
C      1  0.5422580000000  0.5504500000000  0.4278990000000 1.0
C      1  0.5348600000000  0.5058610000000  0.4550080000000 1.0
C      1  0.5707890000000  0.5240000000000  0.5388950000000 1.0
C      1  0.5080120000000  0.6025750000000  0.5143400000000 1.0
END
