TITL C-3289333-7213-602 0.000718859977110335 125000 -288.443768170015 0 0 48 (C1) n - 1
REM
REM in /nfs/bkarasulu/CARBON/AIRSS/Generating-Clusters/AIREBO/with-SteepDescent/Higher-Symm/SD-CG/HFTN-CG
REM
REM
REM
REM
REM
REM ./C.cell (b20cbc046b6831c77cfcea5457e17084)
REM
REM compiler GCC version 9.2.1 20190827 (Red Hat 9.2.1-1)
REM options -cpp -mtune=generic -march=x86-64 -g -O0 -fpre-include=/usr/include/finclude/math-vector-fortran.h
REM seed 479064888 -264724661 610594064 -1633197005 -701563737 -1894233014 63749658 -1439588859 1002205479 1270862343 -447366796 -433350808 -472729383 1843113480 -415016674 630347632 -1623223421 -728809112 84780322 -1625133287 -1074970231 1081312658 1934584593 -69889734 -754422302 -178919126 1991250028 -1076937329 1195394164 497033404 819422284 57052960 -1296195879
REM
CELL 1.54180   50.00000   50.00000   50.00000   90.00000   90.00000   90.00000
LATT -1
SFAC C  
C      1  0.5248350000000  0.4668330000000  0.4824640000000 1.0
C      1  0.5117170000000  0.4636040000000  0.5109210000000 1.0
C      1  0.5249050000000  0.4823180000000  0.5332450000000 1.0
C      1  0.5118810000000  0.5108420000000  0.5362290000000 1.0
C      1  0.5250740000000  0.5331500000000  0.5175520000000 1.0
C      1  0.5121650000000  0.5370060000000  0.4889850000000 1.0
C      1  0.5250470000000  0.5178920000000  0.4667710000000 1.0
C      1  0.5118200000000  0.4894310000000  0.4638900000000 1.0
C      1  0.4492080000000  0.4702670000000  0.4765200000000 1.0
C      1  0.4555820000000  0.4659020000000  0.5038240000000 1.0
C      1  0.4492090000000  0.4765820000000  0.5294300000000 1.0
C      1  0.4558480000000  0.5039550000000  0.5333250000000 1.0
C      1  0.4495860000000  0.5298220000000  0.5230270000000 1.0
C      1  0.4557050000000  0.5344320000000  0.4958020000000 1.0
C      1  0.4491800000000  0.5235500000000  0.4704020000000 1.0
C      1  0.4556340000000  0.4961240000000  0.4664020000000 1.0
C      1  0.5057570000000  0.4777670000000  0.5583710000000 1.0
C      1  0.5032430000000  0.5332470000000  0.5623760000000 1.0
C      1  0.5059370000000  0.5580740000000  0.5224110000000 1.0
C      1  0.5019740000000  0.5622990000000  0.4670420000000 1.0
C      1  0.5057870000000  0.5220750000000  0.4415190000000 1.0
C      1  0.5033290000000  0.4665200000000  0.4382620000000 1.0
C      1  0.5058760000000  0.4414740000000  0.4779240000000 1.0
C      1  0.5031380000000  0.4377440000000  0.5335500000000 1.0
C      1  0.5005260000000  0.5741260000000  0.4980980000000 1.0
C      1  0.4888190000000  0.5441870000000  0.4464730000000 1.0
C      1  0.4989240000000  0.4965610000000  0.4268490000000 1.0
C      1  0.4895650000000  0.4468310000000  0.4551310000000 1.0
C      1  0.4990500000000  0.4265790000000  0.5032940000000 1.0
C      1  0.4893510000000  0.4551020000000  0.5530100000000 1.0
C      1  0.4987820000000  0.5030900000000  0.5730980000000 1.0
C      1  0.4895860000000  0.5527150000000  0.5449880000000 1.0
C      1  0.4610210000000  0.4496600000000  0.4594270000000 1.0
C      1  0.4799670000000  0.4532890000000  0.5059090000000 1.0
C      1  0.4608440000000  0.4596580000000  0.5502810000000 1.0
C      1  0.4802080000000  0.5058950000000  0.5460760000000 1.0
C      1  0.4611050000000  0.5502990000000  0.5404000000000 1.0
C      1  0.4803590000000  0.5476000000000  0.4935140000000 1.0
C      1  0.4604010000000  0.5400480000000  0.4490580000000 1.0
C      1  0.4800870000000  0.4941240000000  0.4538350000000 1.0
C      1  0.5650660000000  0.5098770000000  0.5329870000000 1.0
C      1  0.5547800000000  0.5301010000000  0.5161620000000 1.0
C      1  0.5652480000000  0.5327830000000  0.4900520000000 1.0
C      1  0.5547580000000  0.5161350000000  0.4697830000000 1.0
C      1  0.5649670000000  0.4899160000000  0.4670960000000 1.0
C      1  0.5545550000000  0.4697500000000  0.4839220000000 1.0
C      1  0.5649770000000  0.4670000000000  0.5100390000000 1.0
C      1  0.5546180000000  0.4837620000000  0.5302760000000 1.0
END
