TITL C-3289322-3858-77 -0.00161485910976765 125000 -1105.59332175988 0 0 189 (C1) n - 1
REM
REM in /nfs/bkarasulu/CARBON/AIRSS/Generating-Clusters/AIREBO/with-SteepDescent/Higher-Symm/SD-CG/HFTN-CG
REM
REM
REM
REM
REM
REM ./C.cell (b20cbc046b6831c77cfcea5457e17084)
REM
REM compiler GCC version 9.2.1 20190827 (Red Hat 9.2.1-1)
REM options -cpp -mtune=generic -march=x86-64 -g -O0 -fpre-include=/usr/include/finclude/math-vector-fortran.h
REM seed -9887121 -1345725860 287507411 882830809 346451567 -1897554047 1974211466 1178664041 1367002515 2118336438 -1383691630 -1874154918 1971169359 -1263959822 1025825645 -206191634 1025843725 -414871715 1578331834 -379458167 272321237 -817333057 842745158 -1641224691 -689956938 1031415185 1903091626 -1843916339 -89683357 1126005634 1703880587 -870721039 505702783
REM
CELL 1.54180   50.00000   50.00000   50.00000   90.00000   90.00000   90.00000
LATT -1
SFAC C  
C      1  0.4390730000000  0.4340400000000  0.5472030000000 1.0
C      1  0.4914640000000  0.4373260000000  0.5848030000000 1.0
C      1  0.5615730000000  0.4297670000000  0.5544280000000 1.0
C      1  0.5780490000000  0.4257090000000  0.4712580000000 1.0
C      1  0.5333490000000  0.4288680000000  0.4379310000000 1.0
C      1  0.4722510000000  0.4244930000000  0.4224140000000 1.0
C      1  0.4308260000000  0.4413930000000  0.4896000000000 1.0
C      1  0.4755090000000  0.5189700000000  0.4743590000000 1.0
C      1  0.4700990000000  0.5324310000000  0.5007270000000 1.0
C      1  0.4861100000000  0.5187360000000  0.5213730000000 1.0
C      1  0.5112430000000  0.5339540000000  0.5245460000000 1.0
C      1  0.5319180000000  0.5237260000000  0.5061550000000 1.0
C      1  0.5231510000000  0.5342980000000  0.4797950000000 1.0
C      1  0.5038850000000  0.5132300000000  0.4663800000000 1.0
C      1  0.5417550000000  0.4668320000000  0.5156790000000 1.0
C      1  0.5469000000000  0.4389090000000  0.4673590000000 1.0
C      1  0.4993490000000  0.4281880000000  0.4406480000000 1.0
C      1  0.4563730000000  0.4369850000000  0.4731670000000 1.0
C      1  0.4624960000000  0.4488720000000  0.5284100000000 1.0
C      1  0.4827220000000  0.4469610000000  0.5561980000000 1.0
C      1  0.5382040000000  0.4468750000000  0.5426080000000 1.0
C      1  0.5485260000000  0.5770760000000  0.4340170000000 1.0
C      1  0.4783080000000  0.5707390000000  0.4220620000000 1.0
C      1  0.4460160000000  0.5868300000000  0.4513010000000 1.0
C      1  0.4241740000000  0.5601120000000  0.5353000000000 1.0
C      1  0.4854550000000  0.5622950000000  0.5915870000000 1.0
C      1  0.5542340000000  0.5620870000000  0.5522020000000 1.0
C      1  0.5908910000000  0.5744170000000  0.4948080000000 1.0
C      1  0.4905380000000  0.5186180000000  0.4375380000000 1.0
C      1  0.4554080000000  0.5078220000000  0.4521590000000 1.0
C      1  0.4435340000000  0.5142620000000  0.4975270000000 1.0
C      1  0.4604620000000  0.5158090000000  0.5425990000000 1.0
C      1  0.5114220000000  0.5307900000000  0.5644090000000 1.0
C      1  0.5631420000000  0.5196390000000  0.5033360000000 1.0
C      1  0.5410560000000  0.5219720000000  0.4554160000000 1.0
C      1  0.4637690000000  0.4991950000000  0.6137410000000 1.0
C      1  0.5725350000000  0.4883420000000  0.5914580000000 1.0
C      1  0.6161660000000  0.4833540000000  0.5016580000000 1.0
C      1  0.5660710000000  0.4941820000000  0.4184490000000 1.0
C      1  0.4791560000000  0.4933550000000  0.3957120000000 1.0
C      1  0.3963200000000  0.4880440000000  0.4475320000000 1.0
C      1  0.3958290000000  0.4897950000000  0.5324420000000 1.0
C      1  0.5022590000000  0.4430920000000  0.4037050000000 1.0
C      1  0.4286280000000  0.4304040000000  0.4457360000000 1.0
C      1  0.3975500000000  0.4266190000000  0.5223560000000 1.0
C      1  0.4572820000000  0.4580800000000  0.5848590000000 1.0
C      1  0.5397100000000  0.4402970000000  0.5861710000000 1.0
C      1  0.5854750000000  0.4388440000000  0.5160140000000 1.0
C      1  0.5791280000000  0.4483110000000  0.4323400000000 1.0
C      1  0.5356480000000  0.4900260000000  0.4523900000000 1.0
C      1  0.4733370000000  0.4795000000000  0.4464250000000 1.0
C      1  0.4451950000000  0.4871020000000  0.4771070000000 1.0
C      1  0.4412980000000  0.4950250000000  0.5236310000000 1.0
C      1  0.4986090000000  0.4997020000000  0.5698140000000 1.0
C      1  0.5483520000000  0.4863430000000  0.5499370000000 1.0
C      1  0.5697480000000  0.4899820000000  0.4989860000000 1.0
C      1  0.4426440000000  0.6076240000000  0.5380570000000 1.0
C      1  0.4903790000000  0.5983230000000  0.5525890000000 1.0
C      1  0.5369230000000  0.5988630000000  0.5449250000000 1.0
C      1  0.5458770000000  0.6043630000000  0.4969750000000 1.0
C      1  0.5403650000000  0.6135700000000  0.4482120000000 1.0
C      1  0.4887320000000  0.6071150000000  0.4538130000000 1.0
C      1  0.4591620000000  0.6050060000000  0.4910050000000 1.0
C      1  0.4837070000000  0.5347040000000  0.5577140000000 1.0
C      1  0.5621600000000  0.5440440000000  0.5244950000000 1.0
C      1  0.5627330000000  0.5372500000000  0.4751400000000 1.0
C      1  0.5292700000000  0.5499150000000  0.4409210000000 1.0
C      1  0.4635780000000  0.5382480000000  0.4418300000000 1.0
C      1  0.4350940000000  0.5454330000000  0.4865540000000 1.0
C      1  0.4460150000000  0.5451840000000  0.5517000000000 1.0
C      1  0.4703640000000  0.5650110000000  0.5612340000000 1.0
C      1  0.5248090000000  0.5618210000000  0.5605430000000 1.0
C      1  0.5654820000000  0.5733740000000  0.5124430000000 1.0
C      1  0.5536330000000  0.5687720000000  0.4661570000000 1.0
C      1  0.5056140000000  0.5737240000000  0.4352660000000 1.0
C      1  0.4543090000000  0.5572210000000  0.4641380000000 1.0
C      1  0.4357100000000  0.5681190000000  0.5100790000000 1.0
C      1  0.5105660000000  0.4822320000000  0.4740040000000 1.0
C      1  0.4775300000000  0.4766470000000  0.4800500000000 1.0
C      1  0.4812420000000  0.4702590000000  0.5097700000000 1.0
C      1  0.4961330000000  0.4904950000000  0.5227810000000 1.0
C      1  0.5143500000000  0.4894980000000  0.5461550000000 1.0
C      1  0.5354650000000  0.4975060000000  0.5217770000000 1.0
C      1  0.5323660000000  0.4625140000000  0.4870500000000 1.0
C      1  0.4871040000000  0.4806930000000  0.6109980000000 1.0
C      1  0.5827490000000  0.4635800000000  0.5796100000000 1.0
C      1  0.6035500000000  0.4642270000000  0.4836040000000 1.0
C      1  0.5457040000000  0.4738240000000  0.4160590000000 1.0
C      1  0.4635400000000  0.4706970000000  0.4021170000000 1.0
C      1  0.4009650000000  0.4673490000000  0.4655160000000 1.0
C      1  0.4127770000000  0.4698920000000  0.5421420000000 1.0
C      1  0.4450900000000  0.4784190000000  0.4275120000000 1.0
C      1  0.4150600000000  0.4781430000000  0.4900760000000 1.0
C      1  0.4403300000000  0.4843390000000  0.5559000000000 1.0
C      1  0.5155390000000  0.4864650000000  0.5942840000000 1.0
C      1  0.5813270000000  0.4784970000000  0.5503090000000 1.0
C      1  0.5809650000000  0.4815450000000  0.4713550000000 1.0
C      1  0.5177780000000  0.4811050000000  0.4267680000000 1.0
C      1  0.5073170000000  0.5430080000000  0.4012980000000 1.0
C      1  0.4257530000000  0.5366960000000  0.4297760000000 1.0
C      1  0.3881120000000  0.5406000000000  0.5026950000000 1.0
C      1  0.4358010000000  0.5361630000000  0.5891160000000 1.0
C      1  0.5378960000000  0.5383420000000  0.5933520000000 1.0
C      1  0.5991810000000  0.5299770000000  0.5261930000000 1.0
C      1  0.5823530000000  0.5492850000000  0.4426410000000 1.0
C      1  0.5815880000000  0.5427510000000  0.5524040000000 1.0
C      1  0.5928790000000  0.5496250000000  0.4750020000000 1.0
C      1  0.5375500000000  0.5569880000000  0.4087110000000 1.0
C      1  0.4525920000000  0.5503460000000  0.4138880000000 1.0
C      1  0.4064460000000  0.5450990000000  0.4778520000000 1.0
C      1  0.4143120000000  0.5462180000000  0.5647250000000 1.0
C      1  0.5135340000000  0.5591340000000  0.5925090000000 1.0
C      1  0.5946190000000  0.4384010000000  0.4903010000000 1.0
C      1  0.5530660000000  0.4477000000000  0.4196930000000 1.0
C      1  0.4724830000000  0.4447690000000  0.4002970000000 1.0
C      1  0.4040280000000  0.4375560000000  0.4651360000000 1.0
C      1  0.4134400000000  0.4425280000000  0.5396680000000 1.0
C      1  0.4781390000000  0.4541800000000  0.6055320000000 1.0
C      1  0.5692130000000  0.4389380000000  0.5812350000000 1.0
C      1  0.5214230000000  0.4240790000000  0.5310780000000 1.0
C      1  0.5289550000000  0.4074900000000  0.5094410000000 1.0
C      1  0.5268240000000  0.4187120000000  0.4835430000000 1.0
C      1  0.4997840000000  0.4127040000000  0.4682180000000 1.0
C      1  0.4767790000000  0.4229930000000  0.4849360000000 1.0
C      1  0.4767970000000  0.4227280000000  0.5120380000000 1.0
C      1  0.4949310000000  0.4266900000000  0.5349150000000 1.0
C      1  0.4611350000000  0.5125310000000  0.6372660000000 1.0
C      1  0.5796620000000  0.5110880000000  0.5766990000000 1.0
C      1  0.6179290000000  0.5080240000000  0.4861770000000 1.0
C      1  0.5562460000000  0.5190930000000  0.4072880000000 1.0
C      1  0.4623530000000  0.5163510000000  0.3955160000000 1.0
C      1  0.3898570000000  0.5130430000000  0.4602090000000 1.0
C      1  0.3989680000000  0.5121030000000  0.5489770000000 1.0
C      1  0.5096490000000  0.3640930000000  0.5260420000000 1.0
C      1  0.5255400000000  0.3792990000000  0.5082000000000 1.0
C      1  0.5229800000000  0.3711860000000  0.4807190000000 1.0
C      1  0.5001020000000  0.3819170000000  0.4674300000000 1.0
C      1  0.4762570000000  0.3675310000000  0.4718900000000 1.0
C      1  0.4688340000000  0.3595260000000  0.4973030000000 1.0
C      1  0.4842600000000  0.3552340000000  0.5196820000000 1.0
C      1  0.4128560000000  0.4889620000000  0.4249650000000 1.0
C      1  0.3951130000000  0.4934910000000  0.5049960000000 1.0
C      1  0.4424620000000  0.5032100000000  0.5932380000000 1.0
C      1  0.5478750000000  0.4888170000000  0.6045820000000 1.0
C      1  0.6090050000000  0.4836270000000  0.5289060000000 1.0
C      1  0.5859350000000  0.4942330000000  0.4401860000000 1.0
C      1  0.5034000000000  0.5039830000000  0.4131780000000 1.0
C      1  0.5307450000000  0.5152750000000  0.6079260000000 1.0
C      1  0.5995080000000  0.5072180000000  0.5514790000000 1.0
C      1  0.6109200000000  0.5040140000000  0.4577010000000 1.0
C      1  0.5285790000000  0.5193590000000  0.3991970000000 1.0
C      1  0.4388580000000  0.5097470000000  0.4158130000000 1.0
C      1  0.3843180000000  0.5139280000000  0.4893090000000 1.0
C      1  0.4188750000000  0.5071210000000  0.5692060000000 1.0
C      1  0.4596850000000  0.5974790000000  0.5578410000000 1.0
C      1  0.5155690000000  0.5944190000000  0.5634810000000 1.0
C      1  0.5565780000000  0.6021100000000  0.5263350000000 1.0
C      1  0.5516560000000  0.6005900000000  0.4702250000000 1.0
C      1  0.5156290000000  0.6052150000000  0.4390580000000 1.0
C      1  0.4618370000000  0.6093040000000  0.4610250000000 1.0
C      1  0.4419800000000  0.5984440000000  0.5113480000000 1.0
C      1  0.4467750000000  0.4168390000000  0.4316030000000 1.0
C      1  0.4037590000000  0.4264590000000  0.4960880000000 1.0
C      1  0.4448060000000  0.4353850000000  0.5744660000000 1.0
C      1  0.5164200000000  0.4256560000000  0.5909050000000 1.0
C      1  0.5795120000000  0.4203520000000  0.5355430000000 1.0
C      1  0.5894000000000  0.4254860000000  0.4450860000000 1.0
C      1  0.5222500000000  0.4256910000000  0.4074390000000 1.0
C      1  0.4384020000000  0.4640480000000  0.5098300000000 1.0
C      1  0.4726270000000  0.4788200000000  0.5626970000000 1.0
C      1  0.5327030000000  0.4665230000000  0.5727200000000 1.0
C      1  0.5731160000000  0.4655410000000  0.5208920000000 1.0
C      1  0.5598880000000  0.4672400000000  0.4537480000000 1.0
C      1  0.4950210000000  0.4607800000000  0.4318390000000 1.0
C      1  0.4392900000000  0.4609820000000  0.4561220000000 1.0
C      1  0.5654650000000  0.5431420000000  0.4223460000000 1.0
C      1  0.4800620000000  0.5406360000000  0.3963330000000 1.0
C      1  0.4049090000000  0.5368870000000  0.4487110000000 1.0
C      1  0.3995210000000  0.5395600000000  0.5323190000000 1.0
C      1  0.4568940000000  0.5536570000000  0.5971400000000 1.0
C      1  0.5630960000000  0.5352660000000  0.5799660000000 1.0
C      1  0.6072120000000  0.5314000000000  0.4986860000000 1.0
C      1  0.5315550000000  0.5761280000000  0.5093850000000 1.0
C      1  0.5250680000000  0.5649620000000  0.4808090000000 1.0
C      1  0.5035990000000  0.5795540000000  0.4672070000000 1.0
C      1  0.4756160000000  0.5770510000000  0.4799170000000 1.0
C      1  0.4675120000000  0.5622230000000  0.5066390000000 1.0
C      1  0.4835410000000  0.5730190000000  0.5309270000000 1.0
C      1  0.5128050000000  0.5632160000000  0.5296680000000 1.0
END
