TITL C-3289327-5623-4 -0.00205025981176535 125000 -730.8662928131 0 0 124 (C1) n - 1
REM
REM in /nfs/bkarasulu/CARBON/AIRSS/Generating-Clusters/AIREBO/with-SteepDescent/Higher-Symm/SD-CG/HFTN-CG
REM
REM
REM
REM
REM
REM ./C.cell (b20cbc046b6831c77cfcea5457e17084)
REM
REM compiler GCC version 9.2.1 20190827 (Red Hat 9.2.1-1)
REM options -cpp -mtune=generic -march=x86-64 -g -O0 -fpre-include=/usr/include/finclude/math-vector-fortran.h
REM seed -1057662308 1625459133 958626326 -849320500 2022394146 1489994247 1233862235 3662200 1303107465 63926584 280670945 1195769681 -654785078 -167001525 706152540 1847524282 -778406681 1008672753 -586808596 653159986 -1061274637 1582888459 -1961680137 1213128588 2017105885 1202204214 1864643254 -272644496 -2087811479 -2111964071 1158706874 1334034145 859345203
REM
CELL 1.54180   50.00000   50.00000   50.00000   90.00000   90.00000   90.00000
LATT -1
SFAC C  
C      1  0.4159830000000  0.4543510000000  0.4387260000000 1.0
C      1  0.4433210000000  0.4193410000000  0.4638720000000 1.0
C      1  0.4610140000000  0.4377080000000  0.4215360000000 1.0
C      1  0.5796140000000  0.5396210000000  0.4356650000000 1.0
C      1  0.5786740000000  0.4646460000000  0.5638120000000 1.0
C      1  0.4228700000000  0.5365050000000  0.5691330000000 1.0
C      1  0.5595510000000  0.5840870000000  0.4523320000000 1.0
C      1  0.5545470000000  0.4255610000000  0.5418080000000 1.0
C      1  0.4429700000000  0.5790570000000  0.5497420000000 1.0
C      1  0.5396390000000  0.5597410000000  0.4129780000000 1.0
C      1  0.5320820000000  0.4500160000000  0.5783210000000 1.0
C      1  0.4698000000000  0.5508340000000  0.5813180000000 1.0
C      1  0.4608500000000  0.4157900000000  0.4388800000000 1.0
C      1  0.4240510000000  0.4386120000000  0.4635680000000 1.0
C      1  0.4353070000000  0.4550850000000  0.4179360000000 1.0
C      1  0.5358280000000  0.5782060000000  0.4335790000000 1.0
C      1  0.4684390000000  0.5732690000000  0.5649950000000 1.0
C      1  0.5347330000000  0.4252390000000  0.5651680000000 1.0
C      1  0.5760970000000  0.5621370000000  0.4569820000000 1.0
C      1  0.4255120000000  0.5576900000000  0.5467180000000 1.0
C      1  0.5732840000000  0.4452190000000  0.5409160000000 1.0
C      1  0.5578100000000  0.5354160000000  0.4188450000000 1.0
C      1  0.4467540000000  0.5302480000000  0.5825360000000 1.0
C      1  0.5580940000000  0.4669830000000  0.5833020000000 1.0
C      1  0.4837690000000  0.5265470000000  0.5695160000000 1.0
C      1  0.5782680000000  0.4841560000000  0.5396510000000 1.0
C      1  0.5363980000000  0.5881230000000  0.4717210000000 1.0
C      1  0.5129130000000  0.4726310000000  0.5692130000000 1.0
C      1  0.5191510000000  0.5375860000000  0.4125740000000 1.0
C      1  0.4842310000000  0.4617770000000  0.4269790000000 1.0
C      1  0.4181310000000  0.5192230000000  0.5442460000000 1.0
C      1  0.4173170000000  0.4774170000000  0.4594450000000 1.0
C      1  0.5795660000000  0.5232160000000  0.4609870000000 1.0
C      1  0.4665210000000  0.4246660000000  0.4877520000000 1.0
C      1  0.4634820000000  0.5851540000000  0.5276550000000 1.0
C      1  0.5343050000000  0.4260740000000  0.5147650000000 1.0
C      1  0.5372600000000  0.4893980000000  0.5778980000000 1.0
C      1  0.4925250000000  0.5773090000000  0.5437260000000 1.0
C      1  0.5682070000000  0.5432960000000  0.4836810000000 1.0
C      1  0.4614830000000  0.5029740000000  0.5706320000000 1.0
C      1  0.5342180000000  0.5121850000000  0.4269590000000 1.0
C      1  0.4564100000000  0.4767510000000  0.4204900000000 1.0
C      1  0.5162780000000  0.4170610000000  0.5420760000000 1.0
C      1  0.4821920000000  0.4136220000000  0.4608380000000 1.0
C      1  0.5109190000000  0.5753800000000  0.4566980000000 1.0
C      1  0.4302150000000  0.4625890000000  0.4854930000000 1.0
C      1  0.5692580000000  0.4638710000000  0.5141290000000 1.0
C      1  0.4295230000000  0.5383620000000  0.5200090000000 1.0
C      1  0.4997710000000  0.5512540000000  0.5278920000000 1.0
C      1  0.5128980000000  0.5043750000000  0.5331980000000 1.0
C      1  0.5414920000000  0.5289960000000  0.4957120000000 1.0
C      1  0.4950430000000  0.4538130000000  0.5254110000000 1.0
C      1  0.5000990000000  0.5517100000000  0.4749420000000 1.0
C      1  0.5041610000000  0.4550520000000  0.4731490000000 1.0
C      1  0.4699350000000  0.4877950000000  0.5454170000000 1.0
C      1  0.4765550000000  0.5040670000000  0.4569460000000 1.0
C      1  0.5165550000000  0.5038650000000  0.4545500000000 1.0
C      1  0.4566580000000  0.4734700000000  0.4951670000000 1.0
C      1  0.4572410000000  0.5244660000000  0.5078890000000 1.0
C      1  0.5419170000000  0.4764250000000  0.5040950000000 1.0
C      1  0.5397680000000  0.5057190000000  0.5187170000000 1.0
C      1  0.5059900000000  0.5296260000000  0.5486530000000 1.0
C      1  0.5200150000000  0.5520580000000  0.5014010000000 1.0
C      1  0.4522780000000  0.4933270000000  0.5209460000000 1.0
C      1  0.5395640000000  0.4996330000000  0.4792540000000 1.0
C      1  0.4659020000000  0.5024860000000  0.4850150000000 1.0
C      1  0.4988190000000  0.4791610000000  0.5432100000000 1.0
C      1  0.4966300000000  0.4774490000000  0.4527970000000 1.0
C      1  0.4951780000000  0.5303880000000  0.4533010000000 1.0
C      1  0.4799830000000  0.4523530000000  0.4962620000000 1.0
C      1  0.5193570000000  0.4537450000000  0.5030590000000 1.0
C      1  0.4804200000000  0.5473540000000  0.5022530000000 1.0
C      1  0.5319640000000  0.6055140000000  0.5456370000000 1.0
C      1  0.5713650000000  0.5238880000000  0.5889480000000 1.0
C      1  0.5789130000000  0.5595970000000  0.5277830000000 1.0
C      1  0.4681500000000  0.4029670000000  0.5385700000000 1.0
C      1  0.4730730000000  0.5876750000000  0.4528150000000 1.0
C      1  0.5330920000000  0.4085760000000  0.4565620000000 1.0
C      1  0.4438710000000  0.4601550000000  0.5964290000000 1.0
C      1  0.4502290000000  0.5251340000000  0.4164080000000 1.0
C      1  0.5540050000000  0.4654750000000  0.4128850000000 1.0
C      1  0.4031480000000  0.4466140000000  0.5228340000000 1.0
C      1  0.4215020000000  0.5495450000000  0.4735310000000 1.0
C      1  0.5924810000000  0.4493880000000  0.4741160000000 1.0
C      1  0.5810720000000  0.5339820000000  0.5358560000000 1.0
C      1  0.5875350000000  0.5310190000000  0.6073630000000 1.0
C      1  0.5355750000000  0.6036500000000  0.5188970000000 1.0
C      1  0.4045500000000  0.4713760000000  0.5338480000000 1.0
C      1  0.5898750000000  0.4749580000000  0.4658420000000 1.0
C      1  0.4166970000000  0.5271030000000  0.4592870000000 1.0
C      1  0.4621770000000  0.4394730000000  0.5931910000000 1.0
C      1  0.5355650000000  0.4483160000000  0.4097360000000 1.0
C      1  0.4693530000000  0.5382140000000  0.4078650000000 1.0
C      1  0.4446900000000  0.4010510000000  0.5251540000000 1.0
C      1  0.5520200000000  0.4028120000000  0.4749310000000 1.0
C      1  0.4667530000000  0.5891420000000  0.4763090000000 1.0
C      1  0.4520250000000  0.5020380000000  0.4362320000000 1.0
C      1  0.4216400000000  0.4388250000000  0.5034930000000 1.0
C      1  0.5087740000000  0.4269250000000  0.4564000000000 1.0
C      1  0.5508640000000  0.4877970000000  0.4366270000000 1.0
C      1  0.5496620000000  0.5154450000000  0.5686450000000 1.0
C      1  0.4398450000000  0.4795590000000  0.5703990000000 1.0
C      1  0.5657150000000  0.5651750000000  0.5052470000000 1.0
C      1  0.5760820000000  0.4409310000000  0.4948290000000 1.0
C      1  0.4330920000000  0.5574700000000  0.4962020000000 1.0
C      1  0.4921100000000  0.5768190000000  0.4300380000000 1.0
C      1  0.4884920000000  0.4278280000000  0.5421740000000 1.0
C      1  0.5175060000000  0.5854650000000  0.5582850000000 1.0
C      1  0.5105260000000  0.4461910000000  0.4305070000000 1.0
C      1  0.4403440000000  0.4189090000000  0.5043270000000 1.0
C      1  0.4257280000000  0.5022220000000  0.4513220000000 1.0
C      1  0.4931450000000  0.5456850000000  0.4249440000000 1.0
C      1  0.5299370000000  0.5381100000000  0.5653110000000 1.0
C      1  0.4679660000000  0.4325310000000  0.5651900000000 1.0
C      1  0.5389460000000  0.5794640000000  0.5005580000000 1.0
C      1  0.4598460000000  0.5718380000000  0.5002420000000 1.0
C      1  0.5577300000000  0.4206030000000  0.4954190000000 1.0
C      1  0.5681030000000  0.4957630000000  0.4611640000000 1.0
C      1  0.4271170000000  0.4903470000000  0.5427400000000 1.0
C      1  0.5626310000000  0.5098810000000  0.5407590000000 1.0
C      1  0.5333240000000  0.4627700000000  0.4468930000000 1.0
C      1  0.4934350000000  0.5948410000000  0.4059020000000 1.0
C      1  0.4455230000000  0.4490510000000  0.5580930000000 1.0
C      1  0.5293500000000  0.5641680000000  0.5725290000000 1.0
END
