TITL C-3289334-2237-709 -0.000142164549132102 125000 -431.06108571969 0 0 83 (C1) n - 1
REM
REM in /nfs/bkarasulu/CARBON/AIRSS/Generating-Clusters/AIREBO/with-SteepDescent/Higher-Symm/SD-CG/HFTN-CG
REM
REM
REM
REM
REM
REM ./C.cell (b20cbc046b6831c77cfcea5457e17084)
REM
REM compiler GCC version 9.2.1 20190827 (Red Hat 9.2.1-1)
REM options -cpp -mtune=generic -march=x86-64 -g -O0 -fpre-include=/usr/include/finclude/math-vector-fortran.h
REM seed 1894693903 901315853 1728349648 -254786089 -972517392 -899933693 535103427 856055739 -549081391 -1870427245 -528471363 1854666884 1875704192 -974724015 1390678064 1401721102 -1367349606 -1703043966 826811848 -1518135710 -940349193 1261687452 77624923 -748852637 1963471259 913550990 -927427280 1337059401 -2070164298 1615921076 1173505053 -1232868852 647976976
REM
CELL 1.54180   50.00000   50.00000   50.00000   90.00000   90.00000   90.00000
LATT -1
SFAC C  
C      1  0.5717110000000  0.4887130000000  0.4358850000000 1.0
C      1  0.5845960000000  0.5254320000000  0.4707350000000 1.0
C      1  0.5792220000000  0.5367260000000  0.4972450000000 1.0
C      1  0.5794960000000  0.5252520000000  0.5242750000000 1.0
C      1  0.5795940000000  0.4971690000000  0.5349060000000 1.0
C      1  0.5765080000000  0.4732430000000  0.5184240000000 1.0
C      1  0.5831290000000  0.4706160000000  0.4890310000000 1.0
C      1  0.4800000000000  0.5703820000000  0.4710520000000 1.0
C      1  0.4592770000000  0.5638130000000  0.5228250000000 1.0
C      1  0.4752880000000  0.5089900000000  0.5713330000000 1.0
C      1  0.4706920000000  0.4492130000000  0.5610450000000 1.0
C      1  0.4733630000000  0.4328670000000  0.5001440000000 1.0
C      1  0.4797960000000  0.4587340000000  0.4404750000000 1.0
C      1  0.4722720000000  0.5335160000000  0.4297010000000 1.0
C      1  0.5267390000000  0.5396140000000  0.4547410000000 1.0
C      1  0.5267630000000  0.5618250000000  0.5047340000000 1.0
C      1  0.5263930000000  0.5384760000000  0.5516320000000 1.0
C      1  0.5191550000000  0.4862800000000  0.5608340000000 1.0
C      1  0.5259950000000  0.4336640000000  0.5324430000000 1.0
C      1  0.5273750000000  0.4398250000000  0.4801610000000 1.0
C      1  0.5193310000000  0.4929180000000  0.4384570000000 1.0
C      1  0.5040900000000  0.4574130000000  0.4933780000000 1.0
C      1  0.5001960000000  0.5008720000000  0.4617080000000 1.0
C      1  0.5024500000000  0.5287010000000  0.4727600000000 1.0
C      1  0.5069780000000  0.5356730000000  0.5036910000000 1.0
C      1  0.5086460000000  0.5218900000000  0.5302940000000 1.0
C      1  0.5075220000000  0.4891110000000  0.5303270000000 1.0
C      1  0.5101230000000  0.4591380000000  0.5211490000000 1.0
C      1  0.5482110000000  0.5213350000000  0.5347570000000 1.0
C      1  0.5461890000000  0.4874780000000  0.5402350000000 1.0
C      1  0.5497300000000  0.4570130000000  0.5254960000000 1.0
C      1  0.5511600000000  0.4580980000000  0.4915430000000 1.0
C      1  0.5470700000000  0.5032860000000  0.4441220000000 1.0
C      1  0.5507250000000  0.5226240000000  0.4718630000000 1.0
C      1  0.5468420000000  0.5356800000000  0.5036880000000 1.0
C      1  0.5291450000000  0.5786990000000  0.4812840000000 1.0
C      1  0.5235740000000  0.5670760000000  0.5441440000000 1.0
C      1  0.5148910000000  0.5097450000000  0.5768500000000 1.0
C      1  0.5200300000000  0.4380580000000  0.5644560000000 1.0
C      1  0.5260930000000  0.4171450000000  0.5027130000000 1.0
C      1  0.5192230000000  0.4617760000000  0.4349360000000 1.0
C      1  0.5227790000000  0.5308880000000  0.4270630000000 1.0
C      1  0.4778770000000  0.4715270000000  0.4912400000000 1.0
C      1  0.4741100000000  0.4885740000000  0.4662600000000 1.0
C      1  0.4725140000000  0.5395090000000  0.4689390000000 1.0
C      1  0.4741180000000  0.5335940000000  0.5004510000000 1.0
C      1  0.4783910000000  0.5145210000000  0.5403540000000 1.0
C      1  0.4741850000000  0.4839320000000  0.5288640000000 1.0
C      1  0.4579040000000  0.4587170000000  0.5138030000000 1.0
C      1  0.4479740000000  0.5244040000000  0.4518070000000 1.0
C      1  0.4437940000000  0.5446650000000  0.4993760000000 1.0
C      1  0.4270230000000  0.5572190000000  0.5313580000000 1.0
C      1  0.4448210000000  0.4986330000000  0.5710810000000 1.0
C      1  0.4478120000000  0.4572290000000  0.5426270000000 1.0
C      1  0.4468500000000  0.4386780000000  0.4796530000000 1.0
C      1  0.4526710000000  0.4749730000000  0.4483830000000 1.0
C      1  0.4765040000000  0.4369740000000  0.4663980000000 1.0
C      1  0.4867110000000  0.4793960000000  0.4199130000000 1.0
C      1  0.4838810000000  0.5622330000000  0.4382660000000 1.0
C      1  0.4769670000000  0.5803630000000  0.4992810000000 1.0
C      1  0.4810510000000  0.5483700000000  0.5415300000000 1.0
C      1  0.4736540000000  0.4774480000000  0.5790540000000 1.0
C      1  0.4810990000000  0.4210700000000  0.5489260000000 1.0
C      1  0.4294030000000  0.4970160000000  0.4597380000000 1.0
C      1  0.4336460000000  0.5471280000000  0.4722660000000 1.0
C      1  0.4228910000000  0.5259220000000  0.5187030000000 1.0
C      1  0.4273220000000  0.5071860000000  0.5427350000000 1.0
C      1  0.4308860000000  0.4768390000000  0.5512220000000 1.0
C      1  0.4188070000000  0.4482370000000  0.4923820000000 1.0
C      1  0.4276530000000  0.4631630000000  0.4648950000000 1.0
C      1  0.4958180000000  0.4218570000000  0.5220640000000 1.0
C      1  0.5070330000000  0.4436890000000  0.4561190000000 1.0
C      1  0.4952640000000  0.5118200000000  0.4236140000000 1.0
C      1  0.5110410000000  0.5674470000000  0.4583930000000 1.0
C      1  0.4986750000000  0.5701000000000  0.5220490000000 1.0
C      1  0.4972370000000  0.5348560000000  0.5687540000000 1.0
C      1  0.5016900000000  0.4610270000000  0.5690120000000 1.0
C      1  0.5255600000000  0.4903580000000  0.5015310000000 1.0
C      1  0.4273810000000  0.5100540000000  0.4888940000000 1.0
C      1  0.5493100000000  0.4908220000000  0.4847100000000 1.0
C      1  0.5783160000000  0.4941100000000  0.4672750000000 1.0
C      1  0.4828470000000  0.5032960000000  0.5022860000000 1.0
C      1  0.4503770000000  0.5015460000000  0.5032170000000 1.0
END
