TITL C-3289335-9438-265 0.000987478910746999 125000 -985.460459776566 0 0 183 (C1) n - 1
REM
REM in /nfs/bkarasulu/CARBON/AIRSS/Generating-Clusters/AIREBO/with-SteepDescent/Higher-Symm/SD-CG/HFTN-CG
REM
REM
REM
REM
REM
REM ./C.cell (b20cbc046b6831c77cfcea5457e17084)
REM
REM compiler GCC version 9.2.1 20190827 (Red Hat 9.2.1-1)
REM options -cpp -mtune=generic -march=x86-64 -g -O0 -fpre-include=/usr/include/finclude/math-vector-fortran.h
REM seed -1333678349 -2130161386 -809088488 -1855620954 -1521229505 1465452416 838676921 638635779 1125676679 1811378171 -1654373746 110142738 -969627948 -975605823 1506504769 -981197831 -2052004201 -23297106 932968285 -1178470031 -2049450357 -555277396 -521148644 -560081215 -1730584340 31171636 282512918 -294479480 -686013668 -1936039598 -970536425 -139145167 253612338
REM
CELL 1.54180   50.00000   50.00000   50.00000   90.00000   90.00000   90.00000
LATT -1
SFAC C  
C      1  0.4959520000000  0.5774840000000  0.4220140000000 1.0
C      1  0.5082700000000  0.3943360000000  0.4771530000000 1.0
C      1  0.5139710000000  0.5242580000000  0.5983610000000 1.0
C      1  0.5018340000000  0.4228090000000  0.4298610000000 1.0
C      1  0.4970950000000  0.6024060000000  0.4624820000000 1.0
C      1  0.4983030000000  0.4758870000000  0.6085310000000 1.0
C      1  0.4052990000000  0.4683530000000  0.5008960000000 1.0
C      1  0.4065110000000  0.5178330000000  0.5228880000000 1.0
C      1  0.3920870000000  0.5138130000000  0.4675050000000 1.0
C      1  0.3989470000000  0.5331000000000  0.4940340000000 1.0
C      1  0.3973070000000  0.4879810000000  0.5267990000000 1.0
C      1  0.3993850000000  0.4817680000000  0.4721230000000 1.0
C      1  0.5702380000000  0.5391320000000  0.4525360000000 1.0
C      1  0.5812680000000  0.4388820000000  0.4761420000000 1.0
C      1  0.5803350000000  0.5103160000000  0.5698260000000 1.0
C      1  0.5674770000000  0.4425110000000  0.4522570000000 1.0
C      1  0.5627500000000  0.5591920000000  0.4789750000000 1.0
C      1  0.5877620000000  0.4849780000000  0.5700480000000 1.0
C      1  0.4750910000000  0.4343230000000  0.6036760000000 1.0
C      1  0.4722940000000  0.6265970000000  0.5115460000000 1.0
C      1  0.4570590000000  0.4478280000000  0.3737450000000 1.0
C      1  0.4846300000000  0.5659980000000  0.6026520000000 1.0
C      1  0.4909260000000  0.3839200000000  0.5116390000000 1.0
C      1  0.4640480000000  0.5717230000000  0.3884930000000 1.0
C      1  0.4490780000000  0.4843180000000  0.5603480000000 1.0
C      1  0.4504730000000  0.5785800000000  0.4733240000000 1.0
C      1  0.4490260000000  0.4358420000000  0.4426100000000 1.0
C      1  0.4614160000000  0.5109900000000  0.5621710000000 1.0
C      1  0.4528370000000  0.4356810000000  0.4764210000000 1.0
C      1  0.4462480000000  0.5530160000000  0.4543940000000 1.0
C      1  0.5290300000000  0.4801770000000  0.4598320000000 1.0
C      1  0.5321580000000  0.4879420000000  0.5239900000000 1.0
C      1  0.5463350000000  0.5194500000000  0.5039760000000 1.0
C      1  0.5308090000000  0.5065730000000  0.4788370000000 1.0
C      1  0.5359810000000  0.5196120000000  0.5363690000000 1.0
C      1  0.5430560000000  0.4607550000000  0.5065770000000 1.0
C      1  0.4324430000000  0.5295750000000  0.5897950000000 1.0
C      1  0.4279510000000  0.5697210000000  0.4230180000000 1.0
C      1  0.4360970000000  0.4127870000000  0.4944460000000 1.0
C      1  0.4331570000000  0.4578170000000  0.5727580000000 1.0
C      1  0.4434250000000  0.4592420000000  0.4185120000000 1.0
C      1  0.4372730000000  0.5889300000000  0.5005480000000 1.0
C      1  0.4569720000000  0.5733880000000  0.5752950000000 1.0
C      1  0.4505200000000  0.5267910000000  0.4037630000000 1.0
C      1  0.4569170000000  0.3880170000000  0.5324050000000 1.0
C      1  0.4403180000000  0.4044080000000  0.5564820000000 1.0
C      1  0.4557840000000  0.4938820000000  0.3881630000000 1.0
C      1  0.4509020000000  0.5969370000000  0.5503890000000 1.0
C      1  0.4971250000000  0.5648690000000  0.4916180000000 1.0
C      1  0.4833940000000  0.4592470000000  0.4559440000000 1.0
C      1  0.4975020000000  0.4762590000000  0.5573470000000 1.0
C      1  0.4982040000000  0.4423980000000  0.4820220000000 1.0
C      1  0.4924330000000  0.5338240000000  0.4460880000000 1.0
C      1  0.4993980000000  0.5263370000000  0.5545840000000 1.0
C      1  0.5458150000000  0.3978710000000  0.4616380000000 1.0
C      1  0.5308790000000  0.5004310000000  0.5976700000000 1.0
C      1  0.5457450000000  0.5879180000000  0.4268660000000 1.0
C      1  0.5459690000000  0.6021040000000  0.4477520000000 1.0
C      1  0.5381880000000  0.4767860000000  0.6078770000000 1.0
C      1  0.5456740000000  0.4112870000000  0.4400680000000 1.0
C      1  0.5349960000000  0.4384380000000  0.5309310000000 1.0
C      1  0.5322180000000  0.5529490000000  0.5427500000000 1.0
C      1  0.5202940000000  0.5212490000000  0.4311860000000 1.0
C      1  0.5372570000000  0.5701790000000  0.5138560000000 1.0
C      1  0.5425290000000  0.4497010000000  0.5578570000000 1.0
C      1  0.5345060000000  0.4909960000000  0.4317330000000 1.0
C      1  0.4620700000000  0.4574270000000  0.5865190000000 1.0
C      1  0.4626480000000  0.5986620000000  0.5191530000000 1.0
C      1  0.4523750000000  0.4662300000000  0.3928640000000 1.0
C      1  0.4618010000000  0.5442450000000  0.5921960000000 1.0
C      1  0.4638970000000  0.3998290000000  0.5023640000000 1.0
C      1  0.4549250000000  0.5568950000000  0.4109190000000 1.0
C      1  0.5028450000000  0.5196490000000  0.4746650000000 1.0
C      1  0.4919920000000  0.4705140000000  0.4996620000000 1.0
C      1  0.4926540000000  0.5202080000000  0.5228480000000 1.0
C      1  0.4971560000000  0.4866860000000  0.4705800000000 1.0
C      1  0.4925530000000  0.5355120000000  0.4967970000000 1.0
C      1  0.4980670000000  0.4877590000000  0.5267010000000 1.0
C      1  0.4250930000000  0.5121050000000  0.4723410000000 1.0
C      1  0.4392830000000  0.4668960000000  0.5022120000000 1.0
C      1  0.4405320000000  0.5166330000000  0.5222120000000 1.0
C      1  0.4332960000000  0.4818520000000  0.4760220000000 1.0
C      1  0.4323730000000  0.5314050000000  0.4959430000000 1.0
C      1  0.4312260000000  0.4865590000000  0.5249120000000 1.0
C      1  0.4636500000000  0.4925200000000  0.4705140000000 1.0
C      1  0.4645470000000  0.4843120000000  0.5313170000000 1.0
C      1  0.4638550000000  0.5323600000000  0.4940410000000 1.0
C      1  0.4547130000000  0.5246240000000  0.4636110000000 1.0
C      1  0.4639870000000  0.5238340000000  0.5362170000000 1.0
C      1  0.4653800000000  0.4525820000000  0.5018190000000 1.0
C      1  0.5076120000000  0.4869430000000  0.4152750000000 1.0
C      1  0.4930890000000  0.4202530000000  0.5616520000000 1.0
C      1  0.5132550000000  0.5902520000000  0.5259070000000 1.0
C      1  0.5059090000000  0.5167860000000  0.4006680000000 1.0
C      1  0.5054190000000  0.5728970000000  0.5540790000000 1.0
C      1  0.5080730000000  0.4239030000000  0.5331730000000 1.0
C      1  0.5130720000000  0.3993250000000  0.5166570000000 1.0
C      1  0.5069840000000  0.5676820000000  0.5872810000000 1.0
C      1  0.5263260000000  0.5435320000000  0.3988570000000 1.0
C      1  0.5256690000000  0.6069060000000  0.5034000000000 1.0
C      1  0.5005820000000  0.4284610000000  0.5916890000000 1.0
C      1  0.5143250000000  0.4594930000000  0.4059770000000 1.0
C      1  0.5240340000000  0.5051750000000  0.5647510000000 1.0
C      1  0.5220390000000  0.5496540000000  0.4515990000000 1.0
C      1  0.5282730000000  0.4396380000000  0.4849440000000 1.0
C      1  0.5254220000000  0.4715990000000  0.5704650000000 1.0
C      1  0.5373070000000  0.4514610000000  0.4588470000000 1.0
C      1  0.5294300000000  0.5657160000000  0.4810350000000 1.0
C      1  0.5766120000000  0.5667090000000  0.5086060000000 1.0
C      1  0.5803030000000  0.4776770000000  0.4385430000000 1.0
C      1  0.5785900000000  0.4620570000000  0.5464270000000 1.0
C      1  0.5782410000000  0.4443740000000  0.5216550000000 1.0
C      1  0.5969370000000  0.4932950000000  0.4237050000000 1.0
C      1  0.5836860000000  0.5461960000000  0.5266260000000 1.0
C      1  0.4763160000000  0.4356360000000  0.5289290000000 1.0
C      1  0.4801550000000  0.5528460000000  0.5422420000000 1.0
C      1  0.4685450000000  0.5118430000000  0.4358950000000 1.0
C      1  0.4846480000000  0.5768900000000  0.5186180000000 1.0
C      1  0.4794850000000  0.4512200000000  0.5589900000000 1.0
C      1  0.4854490000000  0.4865240000000  0.4357860000000 1.0
C      1  0.5355070000000  0.4077030000000  0.4925230000000 1.0
C      1  0.5258100000000  0.5483790000000  0.5920580000000 1.0
C      1  0.5249280000000  0.5651870000000  0.4222040000000 1.0
C      1  0.5268830000000  0.5983900000000  0.4719690000000 1.0
C      1  0.5185110000000  0.4521680000000  0.5975120000000 1.0
C      1  0.5313730000000  0.4395050000000  0.4275770000000 1.0
C      1  0.6032030000000  0.5294000000000  0.4961330000000 1.0
C      1  0.6056130000000  0.4860620000000  0.4815670000000 1.0
C      1  0.5953370000000  0.4957590000000  0.5292420000000 1.0
C      1  0.6023630000000  0.4771020000000  0.5096160000000 1.0
C      1  0.6174280000000  0.5116010000000  0.4795340000000 1.0
C      1  0.6051380000000  0.5224780000000  0.5251230000000 1.0
C      1  0.4472020000000  0.5573770000000  0.5493760000000 1.0
C      1  0.4354630000000  0.5092500000000  0.4282640000000 1.0
C      1  0.4445380000000  0.4270570000000  0.5241410000000 1.0
C      1  0.4277200000000  0.4335640000000  0.5520530000000 1.0
C      1  0.4257500000000  0.4785480000000  0.4291470000000 1.0
C      1  0.4311150000000  0.5773540000000  0.5303830000000 1.0
C      1  0.4170060000000  0.5195000000000  0.5681240000000 1.0
C      1  0.4145960000000  0.5561820000000  0.4488090000000 1.0
C      1  0.4131460000000  0.4320470000000  0.4817180000000 1.0
C      1  0.4161910000000  0.4860330000000  0.5619020000000 1.0
C      1  0.4191040000000  0.4413200000000  0.4557970000000 1.0
C      1  0.4197460000000  0.5662850000000  0.4811480000000 1.0
C      1  0.4846080000000  0.4115600000000  0.4784730000000 1.0
C      1  0.4838450000000  0.5195810000000  0.5840700000000 1.0
C      1  0.4745640000000  0.5616810000000  0.4382730000000 1.0
C      1  0.4812540000000  0.5786360000000  0.4673230000000 1.0
C      1  0.4814480000000  0.4856990000000  0.5857920000000 1.0
C      1  0.4808480000000  0.4282120000000  0.4490950000000 1.0
C      1  0.5739730000000  0.5363410000000  0.5798040000000 1.0
C      1  0.5790540000000  0.5368680000000  0.4272780000000 1.0
C      1  0.5806710000000  0.4160410000000  0.4912200000000 1.0
C      1  0.5878800000000  0.4600360000000  0.5850840000000 1.0
C      1  0.5767250000000  0.4397870000000  0.4245310000000 1.0
C      1  0.5668610000000  0.6159590000000  0.5060150000000 1.0
C      1  0.4095720000000  0.5593120000000  0.5129140000000 1.0
C      1  0.4095430000000  0.4662610000000  0.4479780000000 1.0
C      1  0.4075310000000  0.4595230000000  0.5423500000000 1.0
C      1  0.4140220000000  0.4389740000000  0.5150430000000 1.0
C      1  0.4089650000000  0.5262260000000  0.4408520000000 1.0
C      1  0.4176190000000  0.5419810000000  0.5426160000000 1.0
C      1  0.5670400000000  0.3987720000000  0.5404940000000 1.0
C      1  0.5568140000000  0.5829410000000  0.5696840000000 1.0
C      1  0.5684010000000  0.5042460000000  0.3890980000000 1.0
C      1  0.5658290000000  0.5949920000000  0.5500660000000 1.0
C      1  0.5734440000000  0.4091500000000  0.5627130000000 1.0
C      1  0.5591020000000  0.4780040000000  0.3915660000000 1.0
C      1  0.5577060000000  0.4178140000000  0.5162370000000 1.0
C      1  0.5485520000000  0.5527180000000  0.5727050000000 1.0
C      1  0.5844880000000  0.5149470000000  0.4101460000000 1.0
C      1  0.5626350000000  0.5920550000000  0.5197140000000 1.0
C      1  0.5695290000000  0.4387880000000  0.5695120000000 1.0
C      1  0.5536410000000  0.4646300000000  0.4219510000000 1.0
C      1  0.5746880000000  0.4643500000000  0.4945250000000 1.0
C      1  0.5692600000000  0.5229830000000  0.5424730000000 1.0
C      1  0.5621650000000  0.5102470000000  0.4687850000000 1.0
C      1  0.5737010000000  0.5311710000000  0.4909960000000 1.0
C      1  0.5630990000000  0.4904100000000  0.5378860000000 1.0
C      1  0.5776080000000  0.4847630000000  0.4672240000000 1.0
C      1  0.4777090000000  0.5151110000000  0.3911760000000 1.0
C      1  0.4815280000000  0.5945110000000  0.5649570000000 1.0
C      1  0.4718050000000  0.3995360000000  0.5583620000000 1.0
END
