TITL C-3289333-7213-162 0.00301706958010204 125000 -843.981577405189 0 0 154 (C1) n - 1
REM
REM in /nfs/bkarasulu/CARBON/AIRSS/Generating-Clusters/AIREBO/with-SteepDescent/Higher-Symm/SD-CG/HFTN-CG
REM
REM
REM
REM
REM
REM ./C.cell (b20cbc046b6831c77cfcea5457e17084)
REM
REM compiler GCC version 9.2.1 20190827 (Red Hat 9.2.1-1)
REM options -cpp -mtune=generic -march=x86-64 -g -O0 -fpre-include=/usr/include/finclude/math-vector-fortran.h
REM seed 1303535642 581537602 -230976463 161209475 -583418319 -2114992398 -1770737565 -1655539218 447600999 1096980997 -289443639 -404676299 178427764 1568657214 -850250934 1281902334 -1573780464 56437688 -394673050 140162565 1391986859 -1192577158 -1396560348 -1808569392 -1578799902 -1604808822 707321928 -1079786650 650697777 -11632304 1325772916 -522728696 1322871082
REM
CELL 1.54180   50.00000   50.00000   50.00000   90.00000   90.00000   90.00000
LATT -1
SFAC C  
C      1  0.5300730000000  0.5092200000000  0.5646710000000 1.0
C      1  0.5227190000000  0.4575740000000  0.5490110000000 1.0
C      1  0.5438120000000  0.4312760000000  0.4916240000000 1.0
C      1  0.5334010000000  0.4612040000000  0.4446310000000 1.0
C      1  0.5292770000000  0.5334070000000  0.4294480000000 1.0
C      1  0.5270690000000  0.5656100000000  0.4727900000000 1.0
C      1  0.5314380000000  0.5631080000000  0.5425790000000 1.0
C      1  0.5419510000000  0.5068220000000  0.5328980000000 1.0
C      1  0.5461650000000  0.4755190000000  0.5387700000000 1.0
C      1  0.5481360000000  0.4783570000000  0.5049320000000 1.0
C      1  0.5473320000000  0.4674970000000  0.4750480000000 1.0
C      1  0.5436360000000  0.5099350000000  0.4416410000000 1.0
C      1  0.5411820000000  0.5155380000000  0.4725620000000 1.0
C      1  0.5320360000000  0.5398800000000  0.4944980000000 1.0
C      1  0.4713930000000  0.5777000000000  0.4695890000000 1.0
C      1  0.4746410000000  0.5727530000000  0.5449360000000 1.0
C      1  0.4730140000000  0.5041560000000  0.5903940000000 1.0
C      1  0.4628440000000  0.4495850000000  0.5711800000000 1.0
C      1  0.4709780000000  0.4110100000000  0.4941680000000 1.0
C      1  0.4682500000000  0.4480300000000  0.4279800000000 1.0
C      1  0.4643000000000  0.5300200000000  0.4159490000000 1.0
C      1  0.4349720000000  0.4818570000000  0.4176530000000 1.0
C      1  0.4365260000000  0.5550280000000  0.4299720000000 1.0
C      1  0.4393110000000  0.5837080000000  0.5018620000000 1.0
C      1  0.4408240000000  0.5464250000000  0.5697200000000 1.0
C      1  0.4299010000000  0.4788070000000  0.5801360000000 1.0
C      1  0.4436900000000  0.4305940000000  0.5295580000000 1.0
C      1  0.4439290000000  0.4277670000000  0.4594970000000 1.0
C      1  0.4784070000000  0.5187340000000  0.5280360000000 1.0
C      1  0.4807030000000  0.4728900000000  0.5252240000000 1.0
C      1  0.4874530000000  0.4603730000000  0.4986300000000 1.0
C      1  0.4806460000000  0.4738910000000  0.4686680000000 1.0
C      1  0.4781900000000  0.5052090000000  0.4641970000000 1.0
C      1  0.4717660000000  0.5335100000000  0.4819180000000 1.0
C      1  0.4824270000000  0.5409190000000  0.5090750000000 1.0
C      1  0.4220830000000  0.4411070000000  0.5069190000000 1.0
C      1  0.4190200000000  0.4506760000000  0.4558680000000 1.0
C      1  0.4125250000000  0.5003830000000  0.4305410000000 1.0
C      1  0.4199900000000  0.5490510000000  0.4575020000000 1.0
C      1  0.4256540000000  0.5674310000000  0.5213850000000 1.0
C      1  0.4197050000000  0.5257450000000  0.5687760000000 1.0
C      1  0.4136510000000  0.4725150000000  0.5511240000000 1.0
C      1  0.4972110000000  0.5948950000000  0.4442120000000 1.0
C      1  0.4938950000000  0.6152460000000  0.5425690000000 1.0
C      1  0.5071490000000  0.5345640000000  0.6076190000000 1.0
C      1  0.4955950000000  0.4433390000000  0.6054100000000 1.0
C      1  0.5087760000000  0.3852000000000  0.5142890000000 1.0
C      1  0.5045820000000  0.4174090000000  0.4100710000000 1.0
C      1  0.5022490000000  0.5123720000000  0.3918450000000 1.0
C      1  0.5071850000000  0.4860780000000  0.4118050000000 1.0
C      1  0.5099210000000  0.5680090000000  0.4325650000000 1.0
C      1  0.5198960000000  0.5830580000000  0.5080470000000 1.0
C      1  0.5182660000000  0.5473090000000  0.5787770000000 1.0
C      1  0.5264870000000  0.4686330000000  0.5870980000000 1.0
C      1  0.5250150000000  0.4139880000000  0.5222640000000 1.0
C      1  0.5230080000000  0.4241610000000  0.4550190000000 1.0
C      1  0.5045050000000  0.5709220000000  0.5613890000000 1.0
C      1  0.5002570000000  0.4851670000000  0.5977490000000 1.0
C      1  0.4837500000000  0.4280810000000  0.5603940000000 1.0
C      1  0.4955200000000  0.4110200000000  0.4701590000000 1.0
C      1  0.4986790000000  0.4565840000000  0.4152610000000 1.0
C      1  0.4847760000000  0.5539560000000  0.4155200000000 1.0
C      1  0.4897270000000  0.5912520000000  0.4945250000000 1.0
C      1  0.4484630000000  0.4751940000000  0.4666530000000 1.0
C      1  0.4444860000000  0.5090110000000  0.4666210000000 1.0
C      1  0.4423260000000  0.5360350000000  0.4874550000000 1.0
C      1  0.4412370000000  0.5312480000000  0.5211140000000 1.0
C      1  0.4511940000000  0.5039490000000  0.5383280000000 1.0
C      1  0.4490460000000  0.4728040000000  0.5285120000000 1.0
C      1  0.4551750000000  0.4610590000000  0.4968490000000 1.0
C      1  0.5105690000000  0.4601780000000  0.4669010000000 1.0
C      1  0.5027360000000  0.5192000000000  0.4452690000000 1.0
C      1  0.5040960000000  0.5326930000000  0.4764980000000 1.0
C      1  0.5184460000000  0.5379980000000  0.5256300000000 1.0
C      1  0.5043440000000  0.5130570000000  0.5449140000000 1.0
C      1  0.4995760000000  0.4795430000000  0.5458810000000 1.0
C      1  0.5143300000000  0.4430920000000  0.4947790000000 1.0
C      1  0.5096330000000  0.5903590000000  0.4703360000000 1.0
C      1  0.5172170000000  0.5939720000000  0.5398680000000 1.0
C      1  0.5187750000000  0.5102330000000  0.5932620000000 1.0
C      1  0.5116110000000  0.4402960000000  0.5755910000000 1.0
C      1  0.5226500000000  0.4045930000000  0.4896710000000 1.0
C      1  0.5276480000000  0.4351020000000  0.4231990000000 1.0
C      1  0.5106180000000  0.5372200000000  0.4047490000000 1.0
C      1  0.5717180000000  0.4611600000000  0.4554540000000 1.0
C      1  0.5736150000000  0.5112690000000  0.4495520000000 1.0
C      1  0.5598790000000  0.5572660000000  0.4717690000000 1.0
C      1  0.5589420000000  0.5586130000000  0.5282270000000 1.0
C      1  0.5624290000000  0.5094600000000  0.5681880000000 1.0
C      1  0.5713100000000  0.4718730000000  0.5590790000000 1.0
C      1  0.5666460000000  0.4441400000000  0.5135940000000 1.0
C      1  0.4821680000000  0.5024700000000  0.4247740000000 1.0
C      1  0.4914230000000  0.5574890000000  0.4569830000000 1.0
C      1  0.4966550000000  0.5639560000000  0.5228860000000 1.0
C      1  0.4905680000000  0.5286700000000  0.5717930000000 1.0
C      1  0.4867440000000  0.4714300000000  0.5722770000000 1.0
C      1  0.4953160000000  0.4236460000000  0.5117060000000 1.0
C      1  0.4960600000000  0.4427680000000  0.4458440000000 1.0
C      1  0.5411190000000  0.5602130000000  0.4428120000000 1.0
C      1  0.5520990000000  0.5739470000000  0.5004680000000 1.0
C      1  0.5507810000000  0.5390730000000  0.5802680000000 1.0
C      1  0.5513820000000  0.4804670000000  0.5823280000000 1.0
C      1  0.5402870000000  0.4370400000000  0.5310280000000 1.0
C      1  0.5554040000000  0.4325460000000  0.4613920000000 1.0
C      1  0.5326730000000  0.4859670000000  0.4284830000000 1.0
C      1  0.4099020000000  0.5390370000000  0.5104540000000 1.0
C      1  0.4123320000000  0.5053420000000  0.5476180000000 1.0
C      1  0.4107200000000  0.4712170000000  0.5172740000000 1.0
C      1  0.4052540000000  0.4611150000000  0.4851680000000 1.0
C      1  0.4100500000000  0.4832690000000  0.4597310000000 1.0
C      1  0.4063700000000  0.5176440000000  0.4585080000000 1.0
C      1  0.3980490000000  0.5408570000000  0.4819330000000 1.0
C      1  0.5778430000000  0.5310580000000  0.4695880000000 1.0
C      1  0.5811520000000  0.5196430000000  0.4944490000000 1.0
C      1  0.5793550000000  0.5331950000000  0.5391410000000 1.0
C      1  0.5803100000000  0.4992470000000  0.5411210000000 1.0
C      1  0.5788540000000  0.4758220000000  0.5163880000000 1.0
C      1  0.5576350000000  0.5279950000000  0.5134890000000 1.0
C      1  0.5854240000000  0.4847570000000  0.4474050000000 1.0
C      1  0.4422580000000  0.5662600000000  0.4766500000000 1.0
C      1  0.4481770000000  0.5565170000000  0.5427960000000 1.0
C      1  0.4462150000000  0.5060060000000  0.5688400000000 1.0
C      1  0.4408180000000  0.4527580000000  0.5519530000000 1.0
C      1  0.4481670000000  0.4299340000000  0.4899030000000 1.0
C      1  0.4441300000000  0.4615630000000  0.4375040000000 1.0
C      1  0.4386950000000  0.5215180000000  0.4355320000000 1.0
C      1  0.4789070000000  0.4173090000000  0.4204520000000 1.0
C      1  0.4729350000000  0.5133240000000  0.3876100000000 1.0
C      1  0.4673720000000  0.5917460000000  0.4409180000000 1.0
C      1  0.4697830000000  0.6022400000000  0.5366320000000 1.0
C      1  0.4787890000000  0.5313940000000  0.6099160000000 1.0
C      1  0.4694650000000  0.4521580000000  0.6026620000000 1.0
C      1  0.4791380000000  0.3878930000000  0.5177370000000 1.0
C      1  0.4624810000000  0.5422260000000  0.5853430000000 1.0
C      1  0.4541410000000  0.4773060000000  0.5986110000000 1.0
C      1  0.4718530000000  0.4171320000000  0.5336580000000 1.0
C      1  0.4686150000000  0.4142190000000  0.4493050000000 1.0
C      1  0.4562130000000  0.4929520000000  0.4047070000000 1.0
C      1  0.4590910000000  0.5709500000000  0.4230950000000 1.0
C      1  0.4625640000000  0.5988070000000  0.5091260000000 1.0
C      1  0.6492590000000  0.4906290000000  0.4966010000000 1.0
C      1  0.4119220000000  0.5052320000000  0.5136190000000 1.0
C      1  0.6753210000000  0.4854280000000  0.4948060000000 1.0
C      1  0.5961850000000  0.4980030000000  0.5027820000000 1.0
C      1  0.3529350000000  0.4996740000000  0.5028960000000 1.0
C      1  0.5025950000000  0.5073160000000  0.4985490000000 1.0
C      1  0.7005280000000  0.4795790000000  0.4906280000000 1.0
C      1  0.3788140000000  0.5021710000000  0.5074470000000 1.0
C      1  0.4720700000000  0.4966260000000  0.5051660000000 1.0
C      1  0.3272620000000  0.4971430000000  0.4983150000000 1.0
C      1  0.5296930000000  0.4999820000000  0.4948410000000 1.0
C      1  0.6233090000000  0.4948450000000  0.5008370000000 1.0
C      1  0.4417130000000  0.4982200000000  0.4987520000000 1.0
C      1  0.5900860000000  0.4246210000000  0.5175390000000 1.0
END
