TITL C-3289321-8710-266 0.00028646578458879 125000 -217.31114709421 0 0 41 (C1) n - 1
REM
REM in /nfs/bkarasulu/CARBON/AIRSS/Generating-Clusters/AIREBO/with-SteepDescent/Higher-Symm/SD-CG/HFTN-CG
REM
REM
REM
REM
REM
REM ./C.cell (b20cbc046b6831c77cfcea5457e17084)
REM
REM compiler GCC version 9.2.1 20190827 (Red Hat 9.2.1-1)
REM options -cpp -mtune=generic -march=x86-64 -g -O0 -fpre-include=/usr/include/finclude/math-vector-fortran.h
REM seed 2018996408 -129789144 2050372744 1237657350 129592219 229984511 1910231093 849365550 -888924575 1688659090 -447737934 22803844 -692285891 -1533843425 1094902614 2058541948 -399965523 -1856378896 -978879010 -781183060 -857895972 1158731149 -1865338613 1690535522 2014173427 1973211510 93009778 102000535 889808503 -27081310 -2142906207 2004476792 485096545
REM
CELL 1.54180   50.00000   50.00000   50.00000   90.00000   90.00000   90.00000
LATT -1
SFAC C  
C      1  0.4822270000000  0.4656910000000  0.4983370000000 1.0
C      1  0.4941640000000  0.4202520000000  0.5089930000000 1.0
C      1  0.4759320000000  0.4722720000000  0.5583860000000 1.0
C      1  0.4288580000000  0.4792790000000  0.5084500000000 1.0
C      1  0.5200040000000  0.4427850000000  0.4736910000000 1.0
C      1  0.4479700000000  0.5479420000000  0.5015220000000 1.0
C      1  0.4986990000000  0.5052290000000  0.4776960000000 1.0
C      1  0.4526590000000  0.5128380000000  0.4831950000000 1.0
C      1  0.4717990000000  0.5306270000000  0.4624510000000 1.0
C      1  0.5549290000000  0.4955130000000  0.5110090000000 1.0
C      1  0.4524930000000  0.5522640000000  0.4769070000000 1.0
C      1  0.5122880000000  0.4882300000000  0.5545640000000 1.0
C      1  0.5287170000000  0.5335080000000  0.5416920000000 1.0
C      1  0.5128070000000  0.4629560000000  0.4564360000000 1.0
C      1  0.5218450000000  0.5132860000000  0.4544790000000 1.0
C      1  0.5507410000000  0.5195030000000  0.4706020000000 1.0
C      1  0.5305350000000  0.4814770000000  0.4453470000000 1.0
C      1  0.4401290000000  0.4877160000000  0.4809870000000 1.0
C      1  0.4977040000000  0.5556450000000  0.5298540000000 1.0
C      1  0.4617740000000  0.5211210000000  0.5149050000000 1.0
C      1  0.5163390000000  0.5512290000000  0.4947400000000 1.0
C      1  0.5550630000000  0.4749540000000  0.4874370000000 1.0
C      1  0.5274320000000  0.4757170000000  0.5072340000000 1.0
C      1  0.5530000000000  0.4898240000000  0.4629290000000 1.0
C      1  0.4895480000000  0.4858810000000  0.5320050000000 1.0
C      1  0.5226620000000  0.4446720000000  0.5371200000000 1.0
C      1  0.4716230000000  0.5288910000000  0.5438560000000 1.0
C      1  0.5526510000000  0.5217820000000  0.4995370000000 1.0
C      1  0.5137680000000  0.5157880000000  0.5619960000000 1.0
C      1  0.5063970000000  0.5001650000000  0.5070780000000 1.0
C      1  0.5095820000000  0.4468100000000  0.5058070000000 1.0
C      1  0.5008310000000  0.5385880000000  0.4771810000000 1.0
C      1  0.4947070000000  0.5236250000000  0.4411840000000 1.0
C      1  0.5265610000000  0.4642430000000  0.5559060000000 1.0
C      1  0.4614450000000  0.4871230000000  0.5146870000000 1.0
C      1  0.5000320000000  0.5248840000000  0.5255990000000 1.0
C      1  0.4891960000000  0.4774930000000  0.4672220000000 1.0
C      1  0.4874800000000  0.5264410000000  0.5675100000000 1.0
C      1  0.5350520000000  0.5396130000000  0.5125330000000 1.0
C      1  0.4588760000000  0.4679590000000  0.4735440000000 1.0
C      1  0.4914770000000  0.5261830000000  0.4153920000000 1.0
END
