TITL C-3289331-6719-405 -0.00320828472622922 125000 -518.580895503141 0 0 94 (C1) n - 1
REM
REM in /nfs/bkarasulu/CARBON/AIRSS/Generating-Clusters/AIREBO/with-SteepDescent/Higher-Symm/SD-CG/HFTN-CG
REM
REM
REM
REM
REM
REM ./C.cell (b20cbc046b6831c77cfcea5457e17084)
REM
REM compiler GCC version 9.2.1 20190827 (Red Hat 9.2.1-1)
REM options -cpp -mtune=generic -march=x86-64 -g -O0 -fpre-include=/usr/include/finclude/math-vector-fortran.h
REM seed -1311131374 1650886706 -1608482460 24884925 204179296 -1222538450 -768591124 -1611832559 133630878 1883297640 -408348984 1294286637 -134726527 -2030246978 1899063584 -684302308 -459187092 392441195 564184523 -40242623 1872919291 17365234 1082234512 1993555559 -665365545 -1790404384 131009790 721678732 -16986700 -1321802183 -1972481895 476913676 785794437
REM
CELL 1.54180   50.00000   50.00000   50.00000   90.00000   90.00000   90.00000
LATT -1
SFAC C  
C      1  0.4496910000000  0.4818240000000  0.5422240000000 1.0
C      1  0.4492540000000  0.5447140000000  0.4948420000000 1.0
C      1  0.4507020000000  0.4742700000000  0.4630150000000 1.0
C      1  0.5615810000000  0.5062650000000  0.4436390000000 1.0
C      1  0.5646080000000  0.4532490000000  0.5236140000000 1.0
C      1  0.5608500000000  0.5429980000000  0.5347200000000 1.0
C      1  0.4656790000000  0.5419870000000  0.4362210000000 1.0
C      1  0.4647550000000  0.4250380000000  0.4965070000000 1.0
C      1  0.4660530000000  0.5388410000000  0.5651460000000 1.0
C      1  0.4418900000000  0.5261900000000  0.5570450000000 1.0
C      1  0.4402610000000  0.5384770000000  0.4492280000000 1.0
C      1  0.4390380000000  0.4379890000000  0.4918010000000 1.0
C      1  0.4233750000000  0.4940050000000  0.5244490000000 1.0
C      1  0.4282120000000  0.5180390000000  0.4932350000000 1.0
C      1  0.4279060000000  0.4860710000000  0.4855130000000 1.0
C      1  0.5024870000000  0.4634050000000  0.4376400000000 1.0
C      1  0.5020760000000  0.4643400000000  0.5647520000000 1.0
C      1  0.5027510000000  0.5767970000000  0.4899670000000 1.0
C      1  0.4880350000000  0.4768630000000  0.4109790000000 1.0
C      1  0.4883410000000  0.4343200000000  0.5639240000000 1.0
C      1  0.4839710000000  0.5890080000000  0.5159480000000 1.0
C      1  0.4800470000000  0.5169030000000  0.4329190000000 1.0
C      1  0.4802370000000  0.4357190000000  0.5183610000000 1.0
C      1  0.4807130000000  0.5534560000000  0.5442720000000 1.0
C      1  0.5114610000000  0.5176450000000  0.4322140000000 1.0
C      1  0.5118530000000  0.4345730000000  0.5176930000000 1.0
C      1  0.5141770000000  0.5520890000000  0.5464950000000 1.0
C      1  0.4403280000000  0.5594200000000  0.4690610000000 1.0
C      1  0.4422000000000  0.4442830000000  0.4634790000000 1.0
C      1  0.4434180000000  0.4993030000000  0.5679370000000 1.0
C      1  0.5534500000000  0.5227360000000  0.4797110000000 1.0
C      1  0.5510350000000  0.4721650000000  0.4832730000000 1.0
C      1  0.5543310000000  0.5037500000000  0.5320790000000 1.0
C      1  0.4889250000000  0.4673180000000  0.5166620000000 1.0
C      1  0.4905840000000  0.5323000000000  0.5210360000000 1.0
C      1  0.4870630000000  0.5035360000000  0.4611530000000 1.0
C      1  0.5341870000000  0.4619890000000  0.4485180000000 1.0
C      1  0.5319340000000  0.4761400000000  0.5570370000000 1.0
C      1  0.5359530000000  0.5540050000000  0.4966030000000 1.0
C      1  0.5251610000000  0.4601260000000  0.5018530000000 1.0
C      1  0.5264050000000  0.5228030000000  0.5358220000000 1.0
C      1  0.5252870000000  0.5150920000000  0.4624060000000 1.0
C      1  0.5121830000000  0.5210510000000  0.5745260000000 1.0
C      1  0.5096670000000  0.5604410000000  0.4606790000000 1.0
C      1  0.5117410000000  0.4258970000000  0.4786740000000 1.0
C      1  0.4391770000000  0.5600410000000  0.5217930000000 1.0
C      1  0.4427420000000  0.4892380000000  0.4351540000000 1.0
C      1  0.4427570000000  0.4500460000000  0.5407350000000 1.0
C      1  0.4614250000000  0.4259000000000  0.4518750000000 1.0
C      1  0.4635670000000  0.4999020000000  0.5888700000000 1.0
C      1  0.4587990000000  0.5801190000000  0.4605330000000 1.0
C      1  0.4319300000000  0.5270730000000  0.5261770000000 1.0
C      1  0.4306880000000  0.5087140000000  0.4602880000000 1.0
C      1  0.4321240000000  0.4639820000000  0.5110560000000 1.0
C      1  0.4662720000000  0.4338160000000  0.5449240000000 1.0
C      1  0.4638050000000  0.5738530000000  0.5302180000000 1.0
C      1  0.4659040000000  0.4943420000000  0.4188110000000 1.0
C      1  0.4841720000000  0.4820270000000  0.5469500000000 1.0
C      1  0.4834330000000  0.5503710000000  0.4931300000000 1.0
C      1  0.4851570000000  0.4695880000000  0.4618240000000 1.0
C      1  0.5174120000000  0.5471920000000  0.4303300000000 1.0
C      1  0.5201950000000  0.4076300000000  0.5050390000000 1.0
C      1  0.5211200000000  0.5531210000000  0.5764390000000 1.0
C      1  0.5599760000000  0.4424340000000  0.4950220000000 1.0
C      1  0.5612090000000  0.5223380000000  0.5597100000000 1.0
C      1  0.5611200000000  0.5341470000000  0.4424270000000 1.0
C      1  0.5227870000000  0.4847750000000  0.4706430000000 1.0
C      1  0.5298400000000  0.4813050000000  0.5248200000000 1.0
C      1  0.5205210000000  0.5293400000000  0.5051890000000 1.0
C      1  0.4955240000000  0.4541110000000  0.4862990000000 1.0
C      1  0.4970020000000  0.5096810000000  0.5463270000000 1.0
C      1  0.4986780000000  0.5310350000000  0.4718780000000 1.0
C      1  0.5181810000000  0.4887470000000  0.4220050000000 1.0
C      1  0.5181000000000  0.4397880000000  0.5479250000000 1.0
C      1  0.5142210000000  0.5752420000000  0.5219360000000 1.0
C      1  0.6001370000000  0.4879230000000  0.5130740000000 1.0
C      1  0.5981840000000  0.5186730000000  0.5047320000000 1.0
C      1  0.5977370000000  0.4957470000000  0.4822730000000 1.0
C      1  0.5765810000000  0.4789560000000  0.5251550000000 1.0
C      1  0.5678890000000  0.5247970000000  0.5086260000000 1.0
C      1  0.5696390000000  0.4946630000000  0.4717620000000 1.0
C      1  0.4660100000000  0.4971640000000  0.4829530000000 1.0
C      1  0.4647660000000  0.4868580000000  0.5127340000000 1.0
C      1  0.4656800000000  0.5175900000000  0.5070390000000 1.0
C      1  0.4802320000000  0.4196670000000  0.4729790000000 1.0
C      1  0.4813380000000  0.5216020000000  0.5819340000000 1.0
C      1  0.4796570000000  0.5660980000000  0.4457020000000 1.0
C      1  0.5391270000000  0.4373400000000  0.4686150000000 1.0
C      1  0.5379530000000  0.5039070000000  0.5701270000000 1.0
C      1  0.5421340000000  0.5512430000000  0.4649850000000 1.0
C      1  0.5489700000000  0.4854350000000  0.4287980000000 1.0
C      1  0.5486370000000  0.4484900000000  0.5462610000000 1.0
C      1  0.5460530000000  0.5653010000000  0.5244690000000 1.0
C      1  0.5272120000000  0.4999790000000  0.4992680000000 1.0
END
