TITL C-3289334-2237-175 2.76975353415081e-06 125000 -317.754839371064 0 0 57 (C1) n - 1
REM
REM in /nfs/bkarasulu/CARBON/AIRSS/Generating-Clusters/AIREBO/with-SteepDescent/Higher-Symm/SD-CG/HFTN-CG
REM
REM
REM
REM
REM
REM ./C.cell (b20cbc046b6831c77cfcea5457e17084)
REM
REM compiler GCC version 9.2.1 20190827 (Red Hat 9.2.1-1)
REM options -cpp -mtune=generic -march=x86-64 -g -O0 -fpre-include=/usr/include/finclude/math-vector-fortran.h
REM seed 415183416 -1810981173 1040359714 -1417549963 -743458031 1944551393 399892375 -809675334 263974759 -456115896 423652777 1927920338 -802203328 -378960219 -1842900347 -1897037712 -668718292 1105596434 -136380135 -870485530 1321486458 367299080 1038564963 129080653 -1035533431 -1243758210 557191939 -1617441386 1436582243 -584578021 1730166931 -1861219872 -1535730456
REM
CELL 1.54180   50.00000   50.00000   50.00000   90.00000   90.00000   90.00000
LATT -1
SFAC C  
C      1  0.4748420000000  0.5259640000000  0.5070300000000 1.0
C      1  0.4681510000000  0.4985760000000  0.5195780000000 1.0
C      1  0.5105610000000  0.4642770000000  0.5095610000000 1.0
C      1  0.5265060000000  0.4940140000000  0.5121500000000 1.0
C      1  0.5162330000000  0.5235150000000  0.5238860000000 1.0
C      1  0.4838740000000  0.5290900000000  0.4765020000000 1.0
C      1  0.4672480000000  0.4807180000000  0.4948270000000 1.0
C      1  0.4920430000000  0.4678190000000  0.4848870000000 1.0
C      1  0.5373200000000  0.5009920000000  0.4825910000000 1.0
C      1  0.5124700000000  0.5239310000000  0.4900840000000 1.0
C      1  0.4725620000000  0.5508200000000  0.5197030000000 1.0
C      1  0.4368370000000  0.5013320000000  0.5269130000000 1.0
C      1  0.4995350000000  0.4347290000000  0.5174060000000 1.0
C      1  0.5478240000000  0.4738180000000  0.5246430000000 1.0
C      1  0.5468940000000  0.5329580000000  0.5276850000000 1.0
C      1  0.4784860000000  0.5622290000000  0.4751530000000 1.0
C      1  0.4435070000000  0.4871550000000  0.4812410000000 1.0
C      1  0.4860550000000  0.4398220000000  0.4719340000000 1.0
C      1  0.5566260000000  0.4751970000000  0.4799560000000 1.0
C      1  0.5380740000000  0.5439020000000  0.4820160000000 1.0
C      1  0.5398600000000  0.4715190000000  0.5549200000000 1.0
C      1  0.5548230000000  0.5233910000000  0.5528340000000 1.0
C      1  0.4753160000000  0.5487650000000  0.5471950000000 1.0
C      1  0.4487300000000  0.5089610000000  0.5529280000000 1.0
C      1  0.4937880000000  0.4362070000000  0.5455090000000 1.0
C      1  0.5427680000000  0.4712270000000  0.4524280000000 1.0
C      1  0.5263520000000  0.5378620000000  0.4552670000000 1.0
C      1  0.4840590000000  0.5615540000000  0.4463980000000 1.0
C      1  0.4489140000000  0.4930040000000  0.4543020000000 1.0
C      1  0.4912690000000  0.4432980000000  0.4440910000000 1.0
C      1  0.4725730000000  0.4551100000000  0.5512410000000 1.0
C      1  0.5187790000000  0.4459970000000  0.5605730000000 1.0
C      1  0.5487450000000  0.4956710000000  0.5690680000000 1.0
C      1  0.5145390000000  0.5614670000000  0.5602590000000 1.0
C      1  0.4532090000000  0.5375250000000  0.5606550000000 1.0
C      1  0.4496350000000  0.4708170000000  0.4363730000000 1.0
C      1  0.5205570000000  0.4492860000000  0.4410050000000 1.0
C      1  0.5481890000000  0.4961720000000  0.4312190000000 1.0
C      1  0.5116170000000  0.5570030000000  0.4409270000000 1.0
C      1  0.4658050000000  0.5427970000000  0.4345720000000 1.0
C      1  0.5100040000000  0.4755530000000  0.4604230000000 1.0
C      1  0.5229240000000  0.5059150000000  0.4521810000000 1.0
C      1  0.4950660000000  0.5037510000000  0.4340740000000 1.0
C      1  0.4704900000000  0.5148720000000  0.4494330000000 1.0
C      1  0.4753070000000  0.4612690000000  0.4284130000000 1.0
C      1  0.5090270000000  0.4727580000000  0.5408490000000 1.0
C      1  0.5289940000000  0.5200710000000  0.5717940000000 1.0
C      1  0.5034260000000  0.5320840000000  0.5544040000000 1.0
C      1  0.4808790000000  0.5090640000000  0.5653180000000 1.0
C      1  0.4809130000000  0.4860520000000  0.5445120000000 1.0
C      1  0.5549440000000  0.5468830000000  0.5043410000000 1.0
C      1  0.4895860000000  0.4218830000000  0.4940070000000 1.0
C      1  0.4241900000000  0.4946450000000  0.5016240000000 1.0
C      1  0.5643100000000  0.4659730000000  0.5042630000000 1.0
C      1  0.4726600000000  0.5717060000000  0.5007540000000 1.0
C      1  0.4904190000000  0.4828390000000  0.4173780000000 1.0
C      1  0.4834490000000  0.5027810000000  0.5948380000000 1.0
END
