TITL C-3289329-2751-243 6.58104445567262e-05 125000 -236.302937657284 0 0 45 (C3) n - 1
REM
REM in /nfs/bkarasulu/CARBON/AIRSS/Generating-Clusters/AIREBO/with-SteepDescent/Higher-Symm/SD-CG/HFTN-CG
REM
REM
REM
REM
REM
REM ./C.cell (b20cbc046b6831c77cfcea5457e17084)
REM
REM compiler GCC version 9.2.1 20190827 (Red Hat 9.2.1-1)
REM options -cpp -mtune=generic -march=x86-64 -g -O0 -fpre-include=/usr/include/finclude/math-vector-fortran.h
REM seed 1213388033 437167387 1304941293 -2117134695 819122072 -302641857 -1187663491 -550312471 1603878922 -974654196 9082685 800331899 565073771 -2002372943 -2126393383 -1957916700 -1682267558 -1449564180 -2002753560 1683646172 645344964 1388882812 707903919 -1227858259 567098930 -561630103 -1438109125 441896645 -323023293 2097810624 1339247054 -946369771 -1540085150
REM
CELL 1.54180   50.00000   50.00000   50.00000   90.00000   90.00000   90.00000
LATT -1
SFAC C  
C      1  0.5252590000000  0.5140930000000  0.4536630000000 1.0
C      1  0.5252390000000  0.4528910000000  0.5109480000000 1.0
C      1  0.5252210000000  0.5330180000000  0.5355200000000 1.0
C      1  0.5654040000000  0.4828520000000  0.4936250000000 1.0
C      1  0.5653960000000  0.5030910000000  0.5181730000000 1.0
C      1  0.5653720000000  0.5142290000000  0.4883460000000 1.0
C      1  0.4872190000000  0.5530890000000  0.4704500000000 1.0
C      1  0.4876460000000  0.4475470000000  0.4682510000000 1.0
C      1  0.4876630000000  0.4987370000000  0.5614080000000 1.0
C      1  0.4823300000000  0.4808420000000  0.4638310000000 1.0
C      1  0.4823640000000  0.4783980000000  0.5346750000000 1.0
C      1  0.4823660000000  0.5409250000000  0.5018310000000 1.0
C      1  0.5101780000000  0.4560850000000  0.4493120000000 1.0
C      1  0.5101380000000  0.4779890000000  0.5634410000000 1.0
C      1  0.5101110000000  0.5654120000000  0.4866630000000 1.0
C      1  0.4492550000000  0.4717170000000  0.4983320000000 1.0
C      1  0.4492110000000  0.5127210000000  0.5254350000000 1.0
C      1  0.4492720000000  0.5156760000000  0.4763250000000 1.0
C      1  0.4884640000000  0.5201670000000  0.5269730000000 1.0
C      1  0.4884870000000  0.5131360000000  0.4690020000000 1.0
C      1  0.4885030000000  0.4667420000000  0.5041010000000 1.0
C      1  0.5101080000000  0.5629420000000  0.5365740000000 1.0
C      1  0.5101470000000  0.4999560000000  0.4272040000000 1.0
C      1  0.5100270000000  0.4370030000000  0.5363030000000 1.0
C      1  0.4653900000000  0.5233320000000  0.5517430000000 1.0
C      1  0.4654330000000  0.5331060000000  0.4536510000000 1.0
C      1  0.4654570000000  0.4436760000000  0.4944650000000 1.0
C      1  0.5263020000000  0.4803740000000  0.4580490000000 1.0
C      1  0.5261720000000  0.4735070000000  0.5379930000000 1.0
C      1  0.5262510000000  0.5461090000000  0.5041400000000 1.0
C      1  0.5081750000000  0.4970880000000  0.5227930000000 1.0
C      1  0.5080420000000  0.5213780000000  0.4910900000000 1.0
C      1  0.5081490000000  0.4817760000000  0.4859500000000 1.0
C      1  0.5398360000000  0.4695270000000  0.4873850000000 1.0
C      1  0.5398390000000  0.5043030000000  0.5328680000000 1.0
C      1  0.5397760000000  0.5262760000000  0.4799020000000 1.0
C      1  0.4990260000000  0.5339900000000  0.4449140000000 1.0
C      1  0.4990230000000  0.4354610000000  0.4979300000000 1.0
C      1  0.4989670000000  0.5305160000000  0.5570870000000 1.0
C      1  0.4531900000000  0.4877010000000  0.4754950000000 1.0
C      1  0.4531790000000  0.4849640000000  0.5229730000000 1.0
C      1  0.4532140000000  0.5274400000000  0.5016330000000 1.0
C      1  0.4900520000000  0.5661760000000  0.5212200000000 1.0
C      1  0.4896170000000  0.4856670000000  0.4320480000000 1.0
C      1  0.4895320000000  0.4483780000000  0.5462820000000 1.0
END
