TITL C-3289332-8317-601 -0.000853957641506673 125000 -320.919737107322 0 0 60 (C1) n - 1
REM
REM in /nfs/bkarasulu/CARBON/AIRSS/Generating-Clusters/AIREBO/with-SteepDescent/Higher-Symm/SD-CG/HFTN-CG
REM
REM
REM
REM
REM
REM ./C.cell (b20cbc046b6831c77cfcea5457e17084)
REM
REM compiler GCC version 9.2.1 20190827 (Red Hat 9.2.1-1)
REM options -cpp -mtune=generic -march=x86-64 -g -O0 -fpre-include=/usr/include/finclude/math-vector-fortran.h
REM seed 1302491573 1798269922 158283362 -872958259 -669358448 -1736595348 -1331341487 1147075222 -1178737286 -390455615 2045096501 75427769 783470171 668376261 211814858 -173733824 1083504960 1913755089 2011588337 1745628197 -2023953511 -546105679 -778446927 1957602372 -1060312382 -1497326975 1115742747 1852150682 2059852835 1881051818 1167243987 176310656 -1239088381
REM
CELL 1.54180   50.00000   50.00000   50.00000   90.00000   90.00000   90.00000
LATT -1
SFAC C  
C      1  0.5168340000000  0.4601820000000  0.4448890000000 1.0
C      1  0.4614870000000  0.4840690000000  0.4441340000000 1.0
C      1  0.4831540000000  0.5391160000000  0.4450610000000 1.0
C      1  0.5387030000000  0.5155340000000  0.4445600000000 1.0
C      1  0.5204290000000  0.5344570000000  0.5493470000000 1.0
C      1  0.4633000000000  0.5197350000000  0.5494210000000 1.0
C      1  0.4793970000000  0.4657580000000  0.5490700000000 1.0
C      1  0.5363960000000  0.4804160000000  0.5488970000000 1.0
C      1  0.4670950000000  0.4433970000000  0.5376510000000 1.0
C      1  0.4419810000000  0.5337270000000  0.5380200000000 1.0
C      1  0.5327730000000  0.5567460000000  0.5377740000000 1.0
C      1  0.5577840000000  0.4665420000000  0.5376180000000 1.0
C      1  0.4627710000000  0.5508350000000  0.4648620000000 1.0
C      1  0.4501210000000  0.4641600000000  0.4641000000000 1.0
C      1  0.5372970000000  0.4485400000000  0.4647440000000 1.0
C      1  0.5501500000000  0.5356280000000  0.4642430000000 1.0
C      1  0.5623850000000  0.4641470000000  0.4575230000000 1.0
C      1  0.4673450000000  0.4399340000000  0.4584400000000 1.0
C      1  0.4374720000000  0.5355840000000  0.4576830000000 1.0
C      1  0.5329840000000  0.5598910000000  0.4584940000000 1.0
C      1  0.5669560000000  0.5210220000000  0.5426700000000 1.0
C      1  0.4747140000000  0.5598330000000  0.5456220000000 1.0
C      1  0.4328260000000  0.4789800000000  0.5424020000000 1.0
C      1  0.5256180000000  0.4409740000000  0.5456040000000 1.0
C      1  0.4650770000000  0.5693920000000  0.5240260000000 1.0
C      1  0.5740140000000  0.5322490000000  0.5207830000000 1.0
C      1  0.5352470000000  0.4309670000000  0.5242140000000 1.0
C      1  0.4261290000000  0.4675260000000  0.5205200000000 1.0
C      1  0.4740400000000  0.4257680000000  0.4812980000000 1.0
C      1  0.5771810000000  0.4714490000000  0.4797660000000 1.0
C      1  0.5261100000000  0.5739990000000  0.4813700000000 1.0
C      1  0.4227860000000  0.5283130000000  0.4800560000000 1.0
C      1  0.5019960000000  0.5203980000000  0.4814690000000 1.0
C      1  0.5259860000000  0.4981410000000  0.4782550000000 1.0
C      1  0.4971510000000  0.4808420000000  0.4808050000000 1.0
C      1  0.4735870000000  0.5032790000000  0.4787710000000 1.0
C      1  0.5144610000000  0.4768780000000  0.5098330000000 1.0
C      1  0.5314630000000  0.5048980000000  0.5111320000000 1.0
C      1  0.4854060000000  0.5232110000000  0.5110420000000 1.0
C      1  0.4689970000000  0.4945340000000  0.5113120000000 1.0
C      1  0.5371230000000  0.5103890000000  0.5426770000000 1.0
C      1  0.5077850000000  0.4679000000000  0.5418500000000 1.0
C      1  0.4625050000000  0.4899780000000  0.5427350000000 1.0
C      1  0.4919060000000  0.5324270000000  0.5425690000000 1.0
C      1  0.5381280000000  0.4858830000000  0.4510600000000 1.0
C      1  0.5117970000000  0.5343050000000  0.4536010000000 1.0
C      1  0.4615430000000  0.5135200000000  0.4511220000000 1.0
C      1  0.4885100000000  0.4655540000000  0.4535820000000 1.0
C      1  0.5307750000000  0.4501270000000  0.4966150000000 1.0
C      1  0.4488770000000  0.4720230000000  0.4956520000000 1.0
C      1  0.4693090000000  0.5495730000000  0.4968140000000 1.0
C      1  0.5513760000000  0.5278170000000  0.4958030000000 1.0
C      1  0.5331550000000  0.5545810000000  0.5071070000000 1.0
C      1  0.4412110000000  0.5334400000000  0.5071740000000 1.0
C      1  0.4670470000000  0.4452470000000  0.5069960000000 1.0
C      1  0.5586600000000  0.4667300000000  0.5068020000000 1.0
C      1  0.4989280000000  0.4381500000000  0.4964950000000 1.0
C      1  0.4333840000000  0.5022920000000  0.4949160000000 1.0
C      1  0.5012430000000  0.5613090000000  0.4964090000000 1.0
C      1  0.5671330000000  0.4977010000000  0.4945850000000 1.0
END
