TITL C-3289323-3850-96 0.00289675609951907 125000 -242.304003242631 0 0 47 (C1) n - 1
REM
REM in /nfs/bkarasulu/CARBON/AIRSS/Generating-Clusters/AIREBO/with-SteepDescent/Higher-Symm/SD-CG/HFTN-CG
REM
REM
REM
REM
REM
REM ./C.cell (b20cbc046b6831c77cfcea5457e17084)
REM
REM compiler GCC version 9.2.1 20190827 (Red Hat 9.2.1-1)
REM options -cpp -mtune=generic -march=x86-64 -g -O0 -fpre-include=/usr/include/finclude/math-vector-fortran.h
REM seed 1444711985 -1594184301 -1737977939 1993797969 -1303832185 836482476 618500075 1220089188 995556715 -1270676476 629214332 -700680948 -820237332 -618335846 -396049141 -77521578 739407101 188330635 503790310 859209067 -2043316209 1520081877 -2036787369 1756841313 -11542341 -644333936 1914471770 -568196069 590692921 -469096755 -221448555 -1423523537 756136130
REM
CELL 1.54180   50.00000   50.00000   50.00000   90.00000   90.00000   90.00000
LATT -1
SFAC C  
C      1  0.4896880000000  0.5506480000000  0.4687030000000 1.0
C      1  0.5067800000000  0.5566930000000  0.5339720000000 1.0
C      1  0.4873690000000  0.4547030000000  0.5302500000000 1.0
C      1  0.5025020000000  0.4513220000000  0.4718400000000 1.0
C      1  0.4708610000000  0.5358750000000  0.4930400000000 1.0
C      1  0.5313060000000  0.5488720000000  0.5117530000000 1.0
C      1  0.5262660000000  0.4510050000000  0.4929940000000 1.0
C      1  0.4646800000000  0.4444550000000  0.5070840000000 1.0
C      1  0.4881700000000  0.5470590000000  0.5608430000000 1.0
C      1  0.4857230000000  0.5351150000000  0.4410410000000 1.0
C      1  0.5102210000000  0.4639920000000  0.4435340000000 1.0
C      1  0.4851950000000  0.4703820000000  0.5606470000000 1.0
C      1  0.5596110000000  0.5326190000000  0.5146350000000 1.0
C      1  0.4437540000000  0.5230560000000  0.4873100000000 1.0
C      1  0.4379660000000  0.4545900000000  0.4880750000000 1.0
C      1  0.5539170000000  0.4622930000000  0.4826420000000 1.0
C      1  0.4476630000000  0.4988160000000  0.5419470000000 1.0
C      1  0.5520420000000  0.4928090000000  0.4677610000000 1.0
C      1  0.4443660000000  0.5039310000000  0.4660710000000 1.0
C      1  0.5544100000000  0.5069900000000  0.5335840000000 1.0
C      1  0.5299260000000  0.4918830000000  0.4465010000000 1.0
C      1  0.4681580000000  0.4949950000000  0.5615130000000 1.0
C      1  0.4663590000000  0.5077420000000  0.4457230000000 1.0
C      1  0.5396540000000  0.4975050000000  0.5549160000000 1.0
C      1  0.5092890000000  0.4774620000000  0.5311090000000 1.0
C      1  0.4847450000000  0.4765930000000  0.4737940000000 1.0
C      1  0.5094770000000  0.5245530000000  0.4741160000000 1.0
C      1  0.5017040000000  0.5248290000000  0.5305060000000 1.0
C      1  0.5236740000000  0.4790910000000  0.5055520000000 1.0
C      1  0.4631130000000  0.4742550000000  0.4948500000000 1.0
C      1  0.4838710000000  0.5145600000000  0.5103500000000 1.0
C      1  0.5286350000000  0.5233080000000  0.4915180000000 1.0
C      1  0.5127600000000  0.5176110000000  0.4300120000000 1.0
C      1  0.4837630000000  0.5206020000000  0.5688180000000 1.0
C      1  0.5171420000000  0.4765620000000  0.5705390000000 1.0
C      1  0.4859760000000  0.4814120000000  0.4295690000000 1.0
C      1  0.4319840000000  0.5141400000000  0.5158410000000 1.0
C      1  0.5684380000000  0.5187240000000  0.4848810000000 1.0
C      1  0.5729930000000  0.4732060000000  0.5042210000000 1.0
C      1  0.4324350000000  0.4778270000000  0.4695960000000 1.0
C      1  0.4981110000000  0.5001310000000  0.4552510000000 1.0
C      1  0.4597160000000  0.4963160000000  0.5123910000000 1.0
C      1  0.5479630000000  0.4970680000000  0.5012590000000 1.0
C      1  0.5062430000000  0.5034610000000  0.5528120000000 1.0
C      1  0.4971030000000  0.4361710000000  0.5022810000000 1.0
C      1  0.4992380000000  0.5523530000000  0.5009850000000 1.0
C      1  0.4985740000000  0.4928720000000  0.4958400000000 1.0
END
