TITL C-3289322-3858-134 -0.0275089750393327 125000 -1048.24982764311 0 0 191 (C1) n - 1
REM
REM in /nfs/bkarasulu/CARBON/AIRSS/Generating-Clusters/AIREBO/with-SteepDescent/Higher-Symm/SD-CG/HFTN-CG
REM
REM
REM
REM
REM
REM ./C.cell (b20cbc046b6831c77cfcea5457e17084)
REM
REM compiler GCC version 9.2.1 20190827 (Red Hat 9.2.1-1)
REM options -cpp -mtune=generic -march=x86-64 -g -O0 -fpre-include=/usr/include/finclude/math-vector-fortran.h
REM seed -203515168 846754016 45075471 1199563125 1725178564 -2082127645 493413649 -1216598359 1121922059 -689554012 2034690756 2074671644 -491067904 -456921282 -1865243926 -1236827033 -1526237735 -1423500348 1223437249 -1903797207 2020111754 -1606079200 -1978737713 -782239837 1640632330 -1501167389 1160105375 -168768455 2125967506 -8112793 379958194 -1468687630 407486822
REM
CELL 1.54180   50.00000   50.00000   50.00000   90.00000   90.00000   90.00000
LATT -1
SFAC C  
C      1  0.4555440000000  0.4553960000000  0.5799550000000 1.0
C      1  0.5462740000000  0.4613730000000  0.4137750000000 1.0
C      1  0.5624360000000  0.5407130000000  0.5976190000000 1.0
C      1  0.4626680000000  0.5538600000000  0.4130360000000 1.0
C      1  0.4951110000000  0.5277390000000  0.5084890000000 1.0
C      1  0.4706570000000  0.4977580000000  0.4985720000000 1.0
C      1  0.5137140000000  0.4764950000000  0.5158010000000 1.0
C      1  0.5350300000000  0.5066540000000  0.4885120000000 1.0
C      1  0.4825890000000  0.4214960000000  0.5213410000000 1.0
C      1  0.5778170000000  0.4791720000000  0.4639770000000 1.0
C      1  0.5213410000000  0.5875020000000  0.5277210000000 1.0
C      1  0.4192060000000  0.5133060000000  0.4759200000000 1.0
C      1  0.3802580000000  0.4683350000000  0.4992860000000 1.0
C      1  0.5246990000000  0.3798100000000  0.4928030000000 1.0
C      1  0.6199300000000  0.5228690000000  0.5018520000000 1.0
C      1  0.4770190000000  0.6191570000000  0.4928520000000 1.0
C      1  0.5589590000000  0.4644070000000  0.5153200000000 1.0
C      1  0.5366400000000  0.5636150000000  0.4905690000000 1.0
C      1  0.4439890000000  0.5345600000000  0.5093480000000 1.0
C      1  0.4550620000000  0.4365310000000  0.4893110000000 1.0
C      1  0.5347100000000  0.5307970000000  0.4424730000000 1.0
C      1  0.4805300000000  0.5333020000000  0.5745800000000 1.0
C      1  0.4710530000000  0.4825810000000  0.4310850000000 1.0
C      1  0.5343760000000  0.4647560000000  0.5595220000000 1.0
C      1  0.5963320000000  0.4706350000000  0.4882250000000 1.0
C      1  0.5272710000000  0.6089190000000  0.5019520000000 1.0
C      1  0.3988780000000  0.5277190000000  0.4958540000000 1.0
C      1  0.4707770000000  0.3955280000000  0.5030650000000 1.0
C      1  0.5589670000000  0.4104160000000  0.4776830000000 1.0
C      1  0.5856120000000  0.5660510000000  0.5277660000000 1.0
C      1  0.4368880000000  0.5913790000000  0.4790520000000 1.0
C      1  0.4081250000000  0.4305730000000  0.5190220000000 1.0
C      1  0.5048240000000  0.4035650000000  0.5334900000000 1.0
C      1  0.5906310000000  0.5062980000000  0.4635000000000 1.0
C      1  0.4916020000000  0.5908480000000  0.5360940000000 1.0
C      1  0.4084000000000  0.4895240000000  0.4640050000000 1.0
C      1  0.5564850000000  0.5997890000000  0.5033130000000 1.0
C      1  0.4047440000000  0.5548270000000  0.4989320000000 1.0
C      1  0.4430840000000  0.4006960000000  0.5019610000000 1.0
C      1  0.5896300000000  0.4454840000000  0.4982840000000 1.0
C      1  0.5568370000000  0.5218910000000  0.4202610000000 1.0
C      1  0.4778020000000  0.5655640000000  0.5852160000000 1.0
C      1  0.4415010000000  0.4783240000000  0.4182810000000 1.0
C      1  0.5199270000000  0.4434920000000  0.5789960000000 1.0
C      1  0.5714200000000  0.5624950000000  0.5787380000000 1.0
C      1  0.4411310000000  0.5615290000000  0.4353080000000 1.0
C      1  0.4363170000000  0.4491650000000  0.5575630000000 1.0
C      1  0.5544900000000  0.4395970000000  0.4347170000000 1.0
C      1  0.4672380000000  0.4343270000000  0.4088150000000 1.0
C      1  0.5520390000000  0.4825050000000  0.5907060000000 1.0
C      1  0.5192550000000  0.5536980000000  0.4120700000000 1.0
C      1  0.4444750000000  0.5330200000000  0.5915870000000 1.0
C      1  0.4855940000000  0.3913920000000  0.4793700000000 1.0
C      1  0.5983320000000  0.4902730000000  0.5078910000000 1.0
C      1  0.5163120000000  0.5945190000000  0.4754050000000 1.0
C      1  0.4000830000000  0.5091460000000  0.5211210000000 1.0
C      1  0.4253400000000  0.5638880000000  0.4803310000000 1.0
C      1  0.4360530000000  0.4210140000000  0.5208010000000 1.0
C      1  0.5658580000000  0.4368730000000  0.4867940000000 1.0
C      1  0.5592300000000  0.5768990000000  0.5221580000000 1.0
C      1  0.5651760000000  0.5744430000000  0.4512020000000 1.0
C      1  0.4235340000000  0.5444720000000  0.5468770000000 1.0
C      1  0.4372530000000  0.4117560000000  0.4486520000000 1.0
C      1  0.5833240000000  0.4436580000000  0.5543890000000 1.0
C      1  0.6058570000000  0.5436250000000  0.4857720000000 1.0
C      1  0.4595680000000  0.6075200000000  0.5188590000000 1.0
C      1  0.3950500000000  0.4500230000000  0.4783620000000 1.0
C      1  0.5444770000000  0.3940010000000  0.5145550000000 1.0
C      1  0.5965460000000  0.5093960000000  0.5647580000000 1.0
C      1  0.4923600000000  0.6003020000000  0.4293300000000 1.0
C      1  0.4138440000000  0.5007650000000  0.5645010000000 1.0
C      1  0.5066320000000  0.4060020000000  0.4335050000000 1.0
C      1  0.4690250000000  0.5335970000000  0.5302610000000 1.0
C      1  0.4604660000000  0.4579380000000  0.4519990000000 1.0
C      1  0.5325330000000  0.4564530000000  0.5296810000000 1.0
C      1  0.5354160000000  0.5351360000000  0.4748140000000 1.0
C      1  0.5191360000000  0.5049250000000  0.3921040000000 1.0
C      1  0.4871400000000  0.5292290000000  0.6137200000000 1.0
C      1  0.4709760000000  0.4828250000000  0.3911090000000 1.0
C      1  0.5027400000000  0.4807410000000  0.6087840000000 1.0
C      1  0.5385370000000  0.5642840000000  0.4375880000000 1.0
C      1  0.4512060000000  0.5387880000000  0.5587550000000 1.0
C      1  0.4611130000000  0.4287610000000  0.4395100000000 1.0
C      1  0.5654950000000  0.4648170000000  0.5666530000000 1.0
C      1  0.4305910000000  0.5064730000000  0.5072310000000 1.0
C      1  0.4862750000000  0.4301880000000  0.4886580000000 1.0
C      1  0.5701960000000  0.4942520000000  0.5218510000000 1.0
C      1  0.5060650000000  0.5753480000000  0.4997410000000 1.0
C      1  0.4640920000000  0.5463200000000  0.6083020000000 1.0
C      1  0.4567470000000  0.4577820000000  0.3983590000000 1.0
C      1  0.5267280000000  0.4708570000000  0.5980900000000 1.0
C      1  0.5295920000000  0.5285620000000  0.4030680000000 1.0
C      1  0.4795050000000  0.5334570000000  0.4324320000000 1.0
C      1  0.4805440000000  0.4754510000000  0.5760360000000 1.0
C      1  0.5235280000000  0.4782210000000  0.4238200000000 1.0
C      1  0.5328340000000  0.5345540000000  0.5674710000000 1.0
C      1  0.6065540000000  0.5124840000000  0.5313400000000 1.0
C      1  0.4890100000000  0.6084640000000  0.4628430000000 1.0
C      1  0.3911780000000  0.4789820000000  0.5232290000000 1.0
C      1  0.5163070000000  0.3940060000000  0.4650070000000 1.0
C      1  0.4704310000000  0.5067490000000  0.4473950000000 1.0
C      1  0.5011740000000  0.4664060000000  0.5523850000000 1.0
C      1  0.5301480000000  0.4974950000000  0.4476820000000 1.0
C      1  0.5036960000000  0.5399070000000  0.5578980000000 1.0
C      1  0.5313330000000  0.4189520000000  0.4955600000000 1.0
C      1  0.5768760000000  0.5490460000000  0.4996180000000 1.0
C      1  0.4540630000000  0.5771520000000  0.5047350000000 1.0
C      1  0.4230290000000  0.4454560000000  0.4921780000000 1.0
C      1  0.4773040000000  0.5662880000000  0.5259200000000 1.0
C      1  0.4298080000000  0.4626500000000  0.4636350000000 1.0
C      1  0.5273600000000  0.4277950000000  0.5262760000000 1.0
C      1  0.5690720000000  0.5314180000000  0.4716080000000 1.0
C      1  0.4650760000000  0.4998410000000  0.5312630000000 1.0
C      1  0.4937380000000  0.4612070000000  0.4585060000000 1.0
C      1  0.5318820000000  0.5053930000000  0.5210330000000 1.0
C      1  0.5018600000000  0.5383500000000  0.4793350000000 1.0
C      1  0.5711290000000  0.4917550000000  0.5524550000000 1.0
C      1  0.5155300000000  0.5832110000000  0.4468290000000 1.0
C      1  0.4057500000000  0.5220220000000  0.5476490000000 1.0
C      1  0.4847980000000  0.4170730000000  0.4571000000000 1.0
C      1  0.5357460000000  0.5507340000000  0.5197690000000 1.0
C      1  0.4513610000000  0.5421330000000  0.4779390000000 1.0
C      1  0.4544440000000  0.4496340000000  0.5206880000000 1.0
C      1  0.5420930000000  0.4585470000000  0.4863380000000 1.0
C      1  0.4480010000000  0.5823340000000  0.4527580000000 1.0
C      1  0.4055900000000  0.4409730000000  0.5455080000000 1.0
C      1  0.5623190000000  0.4087940000000  0.4480210000000 1.0
C      1  0.5859080000000  0.5579280000000  0.5558310000000 1.0
C      1  0.5125160000000  0.5393930000000  0.6202080000000 1.0
C      1  0.4585720000000  0.5074620000000  0.3845630000000 1.0
C      1  0.4858910000000  0.4601640000000  0.6189510000000 1.0
C      1  0.5387340000000  0.4902650000000  0.3771170000000 1.0
C      1  0.4949910000000  0.4312830000000  0.4185000000000 1.0
C      1  0.5733310000000  0.5091160000000  0.5912680000000 1.0
C      1  0.4910780000000  0.5725840000000  0.4088550000000 1.0
C      1  0.4376060000000  0.5065990000000  0.5781170000000 1.0
C      1  0.5309810000000  0.4215490000000  0.4514420000000 1.0
C      1  0.5796620000000  0.5296280000000  0.5431410000000 1.0
C      1  0.4767190000000  0.5796430000000  0.4596810000000 1.0
C      1  0.4156790000000  0.4737290000000  0.5462400000000 1.0
C      1  0.5587050000000  0.5258390000000  0.5166190000000 1.0
C      1  0.4780120000000  0.5616210000000  0.4862020000000 1.0
C      1  0.4397800000000  0.4783200000000  0.5239830000000 1.0
C      1  0.5154840000000  0.4407560000000  0.4748310000000 1.0
C      1  0.5060830000000  0.5484490000000  0.5290220000000 1.0
C      1  0.4602370000000  0.5108490000000  0.4753090000000 1.0
C      1  0.4876990000000  0.4560820000000  0.5237800000000 1.0
C      1  0.5487290000000  0.4840140000000  0.4712160000000 1.0
C      1  0.5646640000000  0.5758330000000  0.4825870000000 1.0
C      1  0.4277990000000  0.5611180000000  0.5201210000000 1.0
C      1  0.4362350000000  0.4118240000000  0.4753560000000 1.0
C      1  0.5840780000000  0.4450600000000  0.5276180000000 1.0
C      1  0.6059720000000  0.4524900000000  0.4288550000000 1.0
C      1  0.5387810000000  0.5865570000000  0.5527880000000 1.0
C      1  0.4013300000000  0.5416480000000  0.4447290000000 1.0
C      1  0.4511480000000  0.4025210000000  0.5573080000000 1.0
C      1  0.4584400000000  0.6095520000000  0.5469520000000 1.0
C      1  0.4009310000000  0.4544890000000  0.4474270000000 1.0
C      1  0.5425730000000  0.4039550000000  0.5452180000000 1.0
C      1  0.5966910000000  0.5442130000000  0.4540990000000 1.0
C      1  0.6185230000000  0.5066680000000  0.4776090000000 1.0
C      1  0.4981340000000  0.6162870000000  0.5144990000000 1.0
C      1  0.3792970000000  0.4861760000000  0.4745840000000 1.0
C      1  0.5082240000000  0.3776070000000  0.5171220000000 1.0
C      1  0.5370710000000  0.5659570000000  0.5797980000000 1.0
C      1  0.4313310000000  0.5334690000000  0.4518210000000 1.0
C      1  0.4635920000000  0.4312760000000  0.5478320000000 1.0
C      1  0.5786250000000  0.4636670000000  0.4368050000000 1.0
C      1  0.4363560000000  0.5108170000000  0.4268880000000 1.0
C      1  0.4881350000000  0.4339840000000  0.5715430000000 1.0
C      1  0.5715620000000  0.4918060000000  0.4190650000000 1.0
C      1  0.5070510000000  0.5810810000000  0.5853200000000 1.0
C      1  0.4743130000000  0.4422560000000  0.6004710000000 1.0
C      1  0.5591620000000  0.4771200000000  0.3921500000000 1.0
C      1  0.5359930000000  0.5486860000000  0.6090750000000 1.0
C      1  0.4507920000000  0.5248560000000  0.4041010000000 1.0
C      1  0.4138630000000  0.4823090000000  0.4327430000000 1.0
C      1  0.5149520000000  0.4148000000000  0.5623940000000 1.0
C      1  0.5871540000000  0.5186770000000  0.4336960000000 1.0
C      1  0.4815880000000  0.5934570000000  0.5660700000000 1.0
C      1  0.5569530000000  0.5186810000000  0.5647940000000 1.0
C      1  0.4913620000000  0.5618640000000  0.4396500000000 1.0
C      1  0.4589010000000  0.4954110000000  0.5644050000000 1.0
C      1  0.5044870000000  0.4547040000000  0.4306170000000 1.0
C      1  0.5170980000000  0.5136720000000  0.5452220000000 1.0
C      1  0.4984970000000  0.5204170000000  0.4557130000000 1.0
C      1  0.4942160000000  0.4956880000000  0.5446780000000 1.0
C      1  0.5022780000000  0.4889300000000  0.4636050000000 1.0
C      1  0.4963330000000  0.4869950000000  0.4087240000000 1.0
C      1  0.4865720000000  0.5047960000000  0.5921280000000 1.0
C      1  0.5032000000000  0.4979150000000  0.4942950000000 1.0
END
