TITL C-3289321-8710-545 0.000641663632007402 125000 -237.635517987542 0 0 45 (C1) n - 1
REM
REM in /nfs/bkarasulu/CARBON/AIRSS/Generating-Clusters/AIREBO/with-SteepDescent/Higher-Symm/SD-CG/HFTN-CG
REM
REM
REM
REM
REM
REM ./C.cell (b20cbc046b6831c77cfcea5457e17084)
REM
REM compiler GCC version 9.2.1 20190827 (Red Hat 9.2.1-1)
REM options -cpp -mtune=generic -march=x86-64 -g -O0 -fpre-include=/usr/include/finclude/math-vector-fortran.h
REM seed 590990643 2134164573 -1710298624 727828245 -1085188789 -237314499 1369257117 2069699281 1503178466 -1319218616 -500405798 -477542219 -1380542239 -438976483 -1703172429 -2015972321 -1017345622 628173892 146714831 -724560572 -1138837411 -1799733642 -1508048997 -611030353 -1770420509 981885499 1769604437 1975903228 1775852470 -1780389934 884734344 524650657 644239798
REM
CELL 1.54180   50.00000   50.00000   50.00000   90.00000   90.00000   90.00000
LATT -1
SFAC C  
C      1  0.5348890000000  0.4984910000000  0.5330010000000 1.0
C      1  0.5321620000000  0.5088170000000  0.4432900000000 1.0
C      1  0.5265920000000  0.4541680000000  0.4710150000000 1.0
C      1  0.4486940000000  0.4962940000000  0.5049910000000 1.0
C      1  0.4884220000000  0.4708460000000  0.5499300000000 1.0
C      1  0.4331580000000  0.4641770000000  0.4634240000000 1.0
C      1  0.4920510000000  0.5121560000000  0.5496620000000 1.0
C      1  0.5484770000000  0.5023270000000  0.4724140000000 1.0
C      1  0.5001330000000  0.4878100000000  0.5048250000000 1.0
C      1  0.5526290000000  0.4517140000000  0.5105910000000 1.0
C      1  0.4641420000000  0.4596290000000  0.5382990000000 1.0
C      1  0.4548200000000  0.4778770000000  0.4787750000000 1.0
C      1  0.4731010000000  0.5192600000000  0.5707910000000 1.0
C      1  0.5642760000000  0.5520930000000  0.4984040000000 1.0
C      1  0.4440030000000  0.4797890000000  0.5343460000000 1.0
C      1  0.5288650000000  0.4393070000000  0.4963720000000 1.0
C      1  0.5710170000000  0.4629190000000  0.4905330000000 1.0
C      1  0.4766480000000  0.4998080000000  0.5244740000000 1.0
C      1  0.4904580000000  0.5153900000000  0.4869250000000 1.0
C      1  0.5108550000000  0.4668530000000  0.5293670000000 1.0
C      1  0.4523370000000  0.5109570000000  0.5451760000000 1.0
C      1  0.5216280000000  0.5504460000000  0.4616860000000 1.0
C      1  0.5327440000000  0.4967190000000  0.5011690000000 1.0
C      1  0.4185120000000  0.5358000000000  0.4895710000000 1.0
C      1  0.5426360000000  0.4682760000000  0.5323650000000 1.0
C      1  0.5201970000000  0.5258740000000  0.4930220000000 1.0
C      1  0.4850160000000  0.5194390000000  0.4475230000000 1.0
C      1  0.4607930000000  0.5269310000000  0.4629670000000 1.0
C      1  0.4427720000000  0.5429360000000  0.5068700000000 1.0
C      1  0.4739400000000  0.4435220000000  0.5153620000000 1.0
C      1  0.5513440000000  0.4686650000000  0.4660180000000 1.0
C      1  0.5519230000000  0.5562570000000  0.5204000000000 1.0
C      1  0.5137840000000  0.5592530000000  0.4919690000000 1.0
C      1  0.5050220000000  0.4708620000000  0.4685330000000 1.0
C      1  0.5184640000000  0.5198400000000  0.5421070000000 1.0
C      1  0.4377720000000  0.5140190000000  0.4797940000000 1.0
C      1  0.5484070000000  0.5362770000000  0.4770890000000 1.0
C      1  0.5053720000000  0.4399100000000  0.5134870000000 1.0
C      1  0.4812100000000  0.4628910000000  0.4915160000000 1.0
C      1  0.5793480000000  0.4920880000000  0.4823360000000 1.0
C      1  0.5113070000000  0.5287890000000  0.4456530000000 1.0
C      1  0.4802080000000  0.4920750000000  0.4648830000000 1.0
C      1  0.4669450000000  0.5378960000000  0.4927510000000 1.0
C      1  0.5225860000000  0.5433980000000  0.5220730000000 1.0
C      1  0.4403410000000  0.5371520000000  0.5342540000000 1.0
END
