TITL C-3289321-8710-111 0.001362346424123 125000 -856.648070885929 0 0 155 (C1) n - 1
REM
REM in /nfs/bkarasulu/CARBON/AIRSS/Generating-Clusters/AIREBO/with-SteepDescent/Higher-Symm/SD-CG/HFTN-CG
REM
REM
REM
REM
REM
REM ./C.cell (b20cbc046b6831c77cfcea5457e17084)
REM
REM compiler GCC version 9.2.1 20190827 (Red Hat 9.2.1-1)
REM options -cpp -mtune=generic -march=x86-64 -g -O0 -fpre-include=/usr/include/finclude/math-vector-fortran.h
REM seed -1942792557 -1166298558 468043649 1253049647 -212777515 521481868 768238293 547729736 594932753 -1090874023 2093950919 1077332566 -317608196 1297772488 -1562084438 667504919 -1743093924 -1959807997 -711089646 2011881925 1365253521 1981671578 2097513161 -43149469 -1049211239 -861157360 -989956065 2085601745 43010332 -1058701025 1843107310 -1474516454 -1870059809
REM
CELL 1.54180   50.00000   50.00000   50.00000   90.00000   90.00000   90.00000
LATT -1
SFAC C  
C      1  0.5014840000000  0.5519710000000  0.6062970000000 1.0
C      1  0.5572500000000  0.6067340000000  0.4953510000000 1.0
C      1  0.6013910000000  0.5152030000000  0.5469650000000 1.0
C      1  0.4996820000000  0.5547410000000  0.3943670000000 1.0
C      1  0.4906250000000  0.4432900000000  0.6014230000000 1.0
C      1  0.5017920000000  0.4497660000000  0.3979190000000 1.0
C      1  0.4473550000000  0.6024900000000  0.4967010000000 1.0
C      1  0.4440240000000  0.3940360000000  0.5001380000000 1.0
C      1  0.5495330000000  0.4007180000000  0.4922970000000 1.0
C      1  0.3973930000000  0.5064440000000  0.4502670000000 1.0
C      1  0.3938040000000  0.5016740000000  0.5515790000000 1.0
C      1  0.6051400000000  0.4882930000000  0.4468830000000 1.0
C      1  0.4745340000000  0.5246240000000  0.5137570000000 1.0
C      1  0.5127300000000  0.5045790000000  0.4672280000000 1.0
C      1  0.5129470000000  0.4581400000000  0.5320390000000 1.0
C      1  0.5417030000000  0.5206670000000  0.5012640000000 1.0
C      1  0.5409420000000  0.4909680000000  0.5077280000000 1.0
C      1  0.4708520000000  0.4662580000000  0.5016660000000 1.0
C      1  0.4790320000000  0.5018530000000  0.5342450000000 1.0
C      1  0.4800320000000  0.5040160000000  0.4645360000000 1.0
C      1  0.5297450000000  0.4841170000000  0.5343900000000 1.0
C      1  0.4817430000000  0.4723920000000  0.4700170000000 1.0
C      1  0.5017470000000  0.5384060000000  0.5129700000000 1.0
C      1  0.5172010000000  0.5348040000000  0.4824000000000 1.0
C      1  0.4764620000000  0.4703240000000  0.5623530000000 1.0
C      1  0.4693920000000  0.5547280000000  0.4881220000000 1.0
C      1  0.5632650000000  0.4883070000000  0.4749040000000 1.0
C      1  0.5043440000000  0.4732690000000  0.4440950000000 1.0
C      1  0.5171850000000  0.5268370000000  0.5586170000000 1.0
C      1  0.4885730000000  0.5297910000000  0.4251160000000 1.0
C      1  0.5336830000000  0.5686730000000  0.5177920000000 1.0
C      1  0.5301050000000  0.4461510000000  0.4817050000000 1.0
C      1  0.4724790000000  0.4306820000000  0.5203100000000 1.0
C      1  0.4324810000000  0.4778690000000  0.5316460000000 1.0
C      1  0.4341450000000  0.5150400000000  0.4789220000000 1.0
C      1  0.5637030000000  0.5236530000000  0.5343310000000 1.0
C      1  0.5891810000000  0.4685150000000  0.5577740000000 1.0
C      1  0.4637180000000  0.5674390000000  0.5808740000000 1.0
C      1  0.5662090000000  0.5724380000000  0.4621620000000 1.0
C      1  0.4184080000000  0.4673380000000  0.4316180000000 1.0
C      1  0.4234640000000  0.5399590000000  0.5515040000000 1.0
C      1  0.5859770000000  0.5291550000000  0.4293730000000 1.0
C      1  0.5364970000000  0.5706430000000  0.4217640000000 1.0
C      1  0.5285080000000  0.4454850000000  0.5908190000000 1.0
C      1  0.4611420000000  0.4344220000000  0.4192260000000 1.0
C      1  0.4341390000000  0.5823370000000  0.5385760000000 1.0
C      1  0.4495260000000  0.4164860000000  0.4678810000000 1.0
C      1  0.5609950000000  0.4139720000000  0.5382680000000 1.0
C      1  0.4761470000000  0.5693830000000  0.5180780000000 1.0
C      1  0.5726620000000  0.5189410000000  0.4761170000000 1.0
C      1  0.5088430000000  0.4747510000000  0.5725000000000 1.0
C      1  0.5206330000000  0.5743310000000  0.4869090000000 1.0
C      1  0.5248200000000  0.4271100000000  0.5093880000000 1.0
C      1  0.4805930000000  0.4263800000000  0.4908120000000 1.0
C      1  0.4242410000000  0.5088210000000  0.5266520000000 1.0
C      1  0.4270620000000  0.4817640000000  0.4792420000000 1.0
C      1  0.5745640000000  0.4918870000000  0.5288480000000 1.0
C      1  0.4776060000000  0.4790150000000  0.4278900000000 1.0
C      1  0.4860880000000  0.5248020000000  0.5696860000000 1.0
C      1  0.5213660000000  0.5238820000000  0.4262410000000 1.0
C      1  0.4440870000000  0.5700600000000  0.4802090000000 1.0
C      1  0.5763420000000  0.4746110000000  0.4514120000000 1.0
C      1  0.4691660000000  0.4472050000000  0.5823810000000 1.0
C      1  0.5591120000000  0.5849930000000  0.5201810000000 1.0
C      1  0.5569650000000  0.4286220000000  0.4778700000000 1.0
C      1  0.4495770000000  0.4103830000000  0.5246590000000 1.0
C      1  0.4166440000000  0.4795470000000  0.5587690000000 1.0
C      1  0.4236300000000  0.5254120000000  0.4511700000000 1.0
C      1  0.5762730000000  0.5317540000000  0.5629560000000 1.0
C      1  0.5171080000000  0.4491120000000  0.4311950000000 1.0
C      1  0.5229390000000  0.5518930000000  0.5770050000000 1.0
C      1  0.4736370000000  0.5573760000000  0.4162340000000 1.0
C      1  0.4318920000000  0.5450540000000  0.4245230000000 1.0
C      1  0.5365170000000  0.4223630000000  0.4260770000000 1.0
C      1  0.4249250000000  0.4252090000000  0.5324860000000 1.0
C      1  0.5698900000000  0.5287910000000  0.5962220000000 1.0
C      1  0.5694190000000  0.4559740000000  0.4237710000000 1.0
C      1  0.4252980000000  0.4719010000000  0.5907500000000 1.0
C      1  0.4666560000000  0.4218290000000  0.5681210000000 1.0
C      1  0.4677380000000  0.5886760000000  0.4282490000000 1.0
C      1  0.5391390000000  0.5806600000000  0.5733630000000 1.0
C      1  0.5907190000000  0.4283150000000  0.4727120000000 1.0
C      1  0.5891750000000  0.5816180000000  0.5359030000000 1.0
C      1  0.4140710000000  0.5761940000000  0.4669750000000 1.0
C      1  0.4649870000000  0.4448950000000  0.4685720000000 1.0
C      1  0.4372380000000  0.4609590000000  0.4574350000000 1.0
C      1  0.4567410000000  0.4580090000000  0.4317560000000 1.0
C      1  0.5393590000000  0.4377650000000  0.5386290000000 1.0
C      1  0.5399020000000  0.5555310000000  0.4678570000000 1.0
C      1  0.4569660000000  0.5683790000000  0.5416440000000 1.0
C      1  0.5626670000000  0.4624240000000  0.5409870000000 1.0
C      1  0.5685910000000  0.5350330000000  0.4494520000000 1.0
C      1  0.4499650000000  0.5302740000000  0.5325320000000 1.0
C      1  0.5382910000000  0.4595360000000  0.5647380000000 1.0
C      1  0.5407010000000  0.5447870000000  0.4381300000000 1.0
C      1  0.4620210000000  0.5427050000000  0.5605250000000 1.0
C      1  0.4947970000000  0.5587290000000  0.4712520000000 1.0
C      1  0.5689480000000  0.4722570000000  0.5028120000000 1.0
C      1  0.4658920000000  0.5002310000000  0.5646220000000 1.0
C      1  0.5047470000000  0.5663890000000  0.5321570000000 1.0
C      1  0.5051920000000  0.4302350000000  0.4697160000000 1.0
C      1  0.5011100000000  0.4273110000000  0.5337630000000 1.0
C      1  0.4368970000000  0.4646650000000  0.5026880000000 1.0
C      1  0.4192360000000  0.5295400000000  0.5014840000000 1.0
C      1  0.5713980000000  0.5368950000000  0.5046050000000 1.0
C      1  0.5284090000000  0.4960810000000  0.4382540000000 1.0
C      1  0.5308390000000  0.4988860000000  0.5629030000000 1.0
C      1  0.4698760000000  0.5079920000000  0.4346370000000 1.0
C      1  0.4663110000000  0.3915930000000  0.4776940000000 1.0
C      1  0.3972950000000  0.4923990000000  0.4747120000000 1.0
C      1  0.4928620000000  0.4771240000000  0.4008110000000 1.0
C      1  0.5204560000000  0.3982160000000  0.4954750000000 1.0
C      1  0.5309580000000  0.6066920000000  0.4851360000000 1.0
C      1  0.4750560000000  0.5971480000000  0.5029740000000 1.0
C      1  0.6006370000000  0.5093650000000  0.5175800000000 1.0
C      1  0.6174570000000  0.4994820000000  0.4698330000000 1.0
C      1  0.3910290000000  0.5060470000000  0.5224630000000 1.0
C      1  0.5100280000000  0.4694080000000  0.6060710000000 1.0
C      1  0.5131590000000  0.5299370000000  0.3938060000000 1.0
C      1  0.4949840000000  0.5246050000000  0.5994810000000 1.0
C      1  0.4144970000000  0.4940800000000  0.4284520000000 1.0
C      1  0.4879700000000  0.4283040000000  0.4138430000000 1.0
C      1  0.4250030000000  0.4170990000000  0.4859790000000 1.0
C      1  0.5893440000000  0.4943890000000  0.5658570000000 1.0
C      1  0.5876740000000  0.5016490000000  0.4249150000000 1.0
C      1  0.4140840000000  0.5186890000000  0.5656930000000 1.0
C      1  0.5094990000000  0.4221710000000  0.5855430000000 1.0
C      1  0.5099340000000  0.5734160000000  0.4162980000000 1.0
C      1  0.4899290000000  0.5719550000000  0.5872310000000 1.0
C      1  0.5696190000000  0.4131200000000  0.5121300000000 1.0
C      1  0.5757770000000  0.5852960000000  0.4840590000000 1.0
C      1  0.4267070000000  0.5868080000000  0.5118870000000 1.0
C      1  0.4414880000000  0.5124690000000  0.4259810000000 1.0
C      1  0.5055320000000  0.4191160000000  0.4400420000000 1.0
C      1  0.4221310000000  0.4378040000000  0.5056320000000 1.0
C      1  0.5589180000000  0.5048490000000  0.5744140000000 1.0
C      1  0.5565390000000  0.4872750000000  0.4270290000000 1.0
C      1  0.4380090000000  0.4997570000000  0.5758400000000 1.0
C      1  0.4945950000000  0.4156400000000  0.5610990000000 1.0
C      1  0.4903630000000  0.5685100000000  0.4436660000000 1.0
C      1  0.5076720000000  0.5766540000000  0.5607940000000 1.0
C      1  0.5774070000000  0.4439340000000  0.4998240000000 1.0
C      1  0.5828230000000  0.5645330000000  0.5072000000000 1.0
C      1  0.4163520000000  0.5592340000000  0.4966270000000 1.0
C      1  0.5020790000000  0.4992080000000  0.6031730000000 1.0
C      1  0.4947310000000  0.3957080000000  0.4868600000000 1.0
C      1  0.5029000000000  0.5027190000000  0.3967160000000 1.0
C      1  0.5001140000000  0.6019580000000  0.4946320000000 1.0
C      1  0.6015240000000  0.5124570000000  0.4899060000000 1.0
C      1  0.3825120000000  0.4972450000000  0.4978060000000 1.0
C      1  0.5314780000000  0.5367860000000  0.5294020000000 1.0
C      1  0.4639180000000  0.5214530000000  0.4837380000000 1.0
C      1  0.4612190000000  0.4598190000000  0.5337390000000 1.0
C      1  0.5310100000000  0.4784710000000  0.4792610000000 1.0
C      1  0.4928640000000  0.4791360000000  0.5206220000000 1.0
END
