TITL C-3289331-6719-667 0.00145025530356006 125000 -587.016023542316 0 0 104 (C1) n - 1
REM
REM in /nfs/bkarasulu/CARBON/AIRSS/Generating-Clusters/AIREBO/with-SteepDescent/Higher-Symm/SD-CG/HFTN-CG
REM
REM
REM
REM
REM
REM ./C.cell (b20cbc046b6831c77cfcea5457e17084)
REM
REM compiler GCC version 9.2.1 20190827 (Red Hat 9.2.1-1)
REM options -cpp -mtune=generic -march=x86-64 -g -O0 -fpre-include=/usr/include/finclude/math-vector-fortran.h
REM seed 766104857 1864247078 -1714099117 -1325781494 1590422516 -1302502833 928433475 -1594685043 -1405365112 -516943125 -888577695 -285199983 105566289 756351490 1277812834 323688714 -1777025686 -448456868 -1119502854 -1976304884 567129275 1206745500 2059932735 562695037 -254517748 1605225862 1915180555 258627303 1309552157 -435294815 1729033999 -1822190039 893717157
REM
CELL 1.54180   50.00000   50.00000   50.00000   90.00000   90.00000   90.00000
LATT -1
SFAC C  
C      1  0.5313580000000  0.4005120000000  0.4695830000000 1.0
C      1  0.4125650000000  0.4512760000000  0.5236030000000 1.0
C      1  0.4381050000000  0.5446100000000  0.4263860000000 1.0
C      1  0.4817810000000  0.5720930000000  0.4874260000000 1.0
C      1  0.5254780000000  0.5644410000000  0.5108020000000 1.0
C      1  0.4669010000000  0.4151190000000  0.5511180000000 1.0
C      1  0.5924830000000  0.5277480000000  0.5339310000000 1.0
C      1  0.4030760000000  0.5549650000000  0.4762210000000 1.0
C      1  0.5852260000000  0.4661120000000  0.4628150000000 1.0
C      1  0.5460730000000  0.4679030000000  0.4137760000000 1.0
C      1  0.4478740000000  0.4687340000000  0.5778060000000 1.0
C      1  0.5344550000000  0.5419870000000  0.5918780000000 1.0
C      1  0.5354260000000  0.4112520000000  0.5382490000000 1.0
C      1  0.4104790000000  0.4461080000000  0.4698320000000 1.0
C      1  0.4604530000000  0.5316440000000  0.5655880000000 1.0
C      1  0.4750310000000  0.6006380000000  0.5369990000000 1.0
C      1  0.5389040000000  0.5903730000000  0.4670080000000 1.0
C      1  0.4685090000000  0.4236980000000  0.4449550000000 1.0
C      1  0.5911020000000  0.5360470000000  0.4775370000000 1.0
C      1  0.4075040000000  0.5493370000000  0.5293220000000 1.0
C      1  0.5969370000000  0.4633650000000  0.5342750000000 1.0
C      1  0.5420130000000  0.4764870000000  0.5812590000000 1.0
C      1  0.4435110000000  0.4766860000000  0.4213270000000 1.0
C      1  0.5342850000000  0.5294350000000  0.4274910000000 1.0
C      1  0.5185660000000  0.5492790000000  0.4482890000000 1.0
C      1  0.5510480000000  0.4633380000000  0.5175100000000 1.0
C      1  0.4393980000000  0.5136920000000  0.5369760000000 1.0
C      1  0.4935730000000  0.4539650000000  0.4384300000000 1.0
C      1  0.5222770000000  0.4484370000000  0.5436450000000 1.0
C      1  0.4785440000000  0.5520510000000  0.5472750000000 1.0
C      1  0.4453040000000  0.5692390000000  0.5134650000000 1.0
C      1  0.5539820000000  0.5464300000000  0.4873100000000 1.0
C      1  0.4526520000000  0.4464060000000  0.4843110000000 1.0
C      1  0.5558020000000  0.5019300000000  0.5540070000000 1.0
C      1  0.4431110000000  0.4884810000000  0.4593450000000 1.0
C      1  0.5669170000000  0.5181750000000  0.4615940000000 1.0
C      1  0.5076980000000  0.5590270000000  0.5527870000000 1.0
C      1  0.5586270000000  0.4515540000000  0.4885280000000 1.0
C      1  0.4364540000000  0.5208590000000  0.4584090000000 1.0
C      1  0.4909860000000  0.4465500000000  0.5535030000000 1.0
C      1  0.5163150000000  0.4347080000000  0.4560380000000 1.0
C      1  0.4886790000000  0.5539940000000  0.4527120000000 1.0
C      1  0.4502470000000  0.5491460000000  0.4945660000000 1.0
C      1  0.5589500000000  0.5451260000000  0.5209300000000 1.0
C      1  0.4499810000000  0.4310400000000  0.5070980000000 1.0
C      1  0.5703050000000  0.4919260000000  0.4469900000000 1.0
C      1  0.4460390000000  0.4846030000000  0.5298570000000 1.0
C      1  0.5476070000000  0.5307910000000  0.5474120000000 1.0
C      1  0.5024700000000  0.6028090000000  0.5341370000000 1.0
C      1  0.6005900000000  0.5558460000000  0.4936350000000 1.0
C      1  0.5575660000000  0.5000980000000  0.5875110000000 1.0
C      1  0.5175110000000  0.4176030000000  0.5601520000000 1.0
C      1  0.4830680000000  0.4005940000000  0.4429130000000 1.0
C      1  0.5142360000000  0.6017850000000  0.4611990000000 1.0
C      1  0.4081760000000  0.4235340000000  0.4862690000000 1.0
C      1  0.6050870000000  0.4497570000000  0.5117150000000 1.0
C      1  0.4166370000000  0.5736680000000  0.5169840000000 1.0
C      1  0.4360430000000  0.5150900000000  0.5703780000000 1.0
C      1  0.5482140000000  0.5155080000000  0.4098930000000 1.0
C      1  0.4235070000000  0.4954310000000  0.4306310000000 1.0
C      1  0.4913930000000  0.5860590000000  0.4637250000000 1.0
C      1  0.5903350000000  0.5545940000000  0.5204940000000 1.0
C      1  0.5595810000000  0.4911010000000  0.4186170000000 1.0
C      1  0.5095990000000  0.4030360000000  0.4503170000000 1.0
C      1  0.4897500000000  0.4165860000000  0.5695300000000 1.0
C      1  0.5163900000000  0.5783480000000  0.5334840000000 1.0
C      1  0.4217710000000  0.4268470000000  0.5115270000000 1.0
C      1  0.5913810000000  0.4504940000000  0.4876670000000 1.0
C      1  0.4026480000000  0.5776970000000  0.4923170000000 1.0
C      1  0.4169130000000  0.5238700000000  0.4307410000000 1.0
C      1  0.5521860000000  0.5232690000000  0.6018820000000 1.0
C      1  0.4338310000000  0.4913720000000  0.5848590000000 1.0
C      1  0.5287880000000  0.5439960000000  0.5642670000000 1.0
C      1  0.5270530000000  0.5356200000000  0.5139720000000 1.0
C      1  0.5780180000000  0.5083950000000  0.5213790000000 1.0
C      1  0.4659470000000  0.4695840000000  0.5525930000000 1.0
C      1  0.5257520000000  0.4585700000000  0.4337320000000 1.0
C      1  0.4600770000000  0.5420400000000  0.4452270000000 1.0
C      1  0.4700910000000  0.4391150000000  0.5276320000000 1.0
C      1  0.5362370000000  0.4296470000000  0.4833540000000 1.0
C      1  0.4771480000000  0.5390260000000  0.4809880000000 1.0
C      1  0.4273070000000  0.4731090000000  0.5122770000000 1.0
C      1  0.5513310000000  0.4707730000000  0.4635080000000 1.0
C      1  0.4250280000000  0.5329740000000  0.4847620000000 1.0
C      1  0.5358350000000  0.5235440000000  0.4600090000000 1.0
C      1  0.5398240000000  0.5621790000000  0.4694960000000 1.0
C      1  0.5690780000000  0.5168470000000  0.4946530000000 1.0
C      1  0.4694560000000  0.4783240000000  0.4402740000000 1.0
C      1  0.5326620000000  0.4771960000000  0.5499530000000 1.0
C      1  0.4713780000000  0.5210870000000  0.5351180000000 1.0
C      1  0.4744790000000  0.4487680000000  0.4660800000000 1.0
C      1  0.5345470000000  0.4342360000000  0.5152650000000 1.0
C      1  0.4638660000000  0.5750570000000  0.5335150000000 1.0
C      1  0.4315260000000  0.4693500000000  0.4801750000000 1.0
C      1  0.5706510000000  0.4801040000000  0.5325790000000 1.0
C      1  0.4204430000000  0.5274190000000  0.5180200000000 1.0
C      1  0.5180220000000  0.5049990000000  0.4753010000000 1.0
C      1  0.5147990000000  0.4826180000000  0.5247870000000 1.0
C      1  0.4838530000000  0.5038540000000  0.5152930000000 1.0
C      1  0.4884070000000  0.4797440000000  0.4681500000000 1.0
C      1  0.5167880000000  0.5095050000000  0.5073530000000 1.0
C      1  0.5208990000000  0.4757640000000  0.4626600000000 1.0
C      1  0.4853050000000  0.5100280000000  0.4832950000000 1.0
C      1  0.4829560000000  0.4707870000000  0.5231750000000 1.0
END
