TITL C-3289324-3781-378 -0.00248884047741408 125000 -834.816867874823 0 0 162 (C1) n - 1
REM
REM in /nfs/bkarasulu/CARBON/AIRSS/Generating-Clusters/AIREBO/with-SteepDescent/Higher-Symm/SD-CG/HFTN-CG
REM
REM
REM
REM
REM
REM ./C.cell (b20cbc046b6831c77cfcea5457e17084)
REM
REM compiler GCC version 9.2.1 20190827 (Red Hat 9.2.1-1)
REM options -cpp -mtune=generic -march=x86-64 -g -O0 -fpre-include=/usr/include/finclude/math-vector-fortran.h
REM seed 681124497 -520197361 1095377234 1715059782 1984353886 1462791703 1374184836 315480444 -66796676 -1008309939 -1823109908 -387537271 -292379662 1575251050 -885509091 -266590171 1679174773 984769328 -760242027 503376348 -443527874 -170048807 -781566988 -354597105 -1050370609 641553933 1819265336 -785930319 -89111468 -1979831816 -927318381 -845905040 381684522
REM
CELL 1.54180   50.00000   50.00000   50.00000   90.00000   90.00000   90.00000
LATT -1
SFAC C  
C      1  0.5167290000000  0.4276230000000  0.4192830000000 1.0
C      1  0.4660780000000  0.4294630000000  0.5712640000000 1.0
C      1  0.4431630000000  0.4642420000000  0.4187520000000 1.0
C      1  0.4289040000000  0.5067910000000  0.5810580000000 1.0
C      1  0.4470960000000  0.5438850000000  0.4262280000000 1.0
C      1  0.4831240000000  0.5703320000000  0.5818090000000 1.0
C      1  0.5222090000000  0.5751360000000  0.4199800000000 1.0
C      1  0.5547890000000  0.5389820000000  0.5769640000000 1.0
C      1  0.5752920000000  0.4887630000000  0.4166860000000 1.0
C      1  0.5533400000000  0.4506510000000  0.5853950000000 1.0
C      1  0.5397620000000  0.5321490000000  0.5129580000000 1.0
C      1  0.5564920000000  0.4999270000000  0.4798920000000 1.0
C      1  0.5565670000000  0.4673570000000  0.5104600000000 1.0
C      1  0.5183990000000  0.4447960000000  0.4814350000000 1.0
C      1  0.4852510000000  0.4412360000000  0.5074010000000 1.0
C      1  0.4586250000000  0.4698760000000  0.4954330000000 1.0
C      1  0.4475480000000  0.5002570000000  0.5189740000000 1.0
C      1  0.4523840000000  0.5320460000000  0.4852810000000 1.0
C      1  0.4760400000000  0.5578460000000  0.5135600000000 1.0
C      1  0.5171590000000  0.5569760000000  0.4912930000000 1.0
C      1  0.5649580000000  0.5512250000000  0.5512190000000 1.0
C      1  0.5860180000000  0.4932180000000  0.4486440000000 1.0
C      1  0.5658560000000  0.4508680000000  0.5537360000000 1.0
C      1  0.5303510000000  0.4155710000000  0.4429770000000 1.0
C      1  0.4723440000000  0.4105850000000  0.5504490000000 1.0
C      1  0.4342120000000  0.4515010000000  0.4455910000000 1.0
C      1  0.4125170000000  0.5004360000000  0.5565140000000 1.0
C      1  0.4261280000000  0.5497410000000  0.4474300000000 1.0
C      1  0.4721200000000  0.5833580000000  0.5568110000000 1.0
C      1  0.5234270000000  0.5830570000000  0.4518730000000 1.0
C      1  0.4485120000000  0.4640750000000  0.5619000000000 1.0
C      1  0.4319610000000  0.4978400000000  0.4372600000000 1.0
C      1  0.4490940000000  0.5297290000000  0.5553350000000 1.0
C      1  0.4772390000000  0.5590370000000  0.4508120000000 1.0
C      1  0.5221220000000  0.5625420000000  0.5541010000000 1.0
C      1  0.5503270000000  0.5363800000000  0.4368770000000 1.0
C      1  0.5546140000000  0.5080630000000  0.5518670000000 1.0
C      1  0.5587890000000  0.4645240000000  0.4435900000000 1.0
C      1  0.5222520000000  0.4370450000000  0.5642660000000 1.0
C      1  0.4820720000000  0.4404570000000  0.4465770000000 1.0
C      1  0.5276670000000  0.4306660000000  0.5955640000000 1.0
C      1  0.4830540000000  0.4281900000000  0.4146210000000 1.0
C      1  0.4510130000000  0.4469690000000  0.5912010000000 1.0
C      1  0.4243250000000  0.4971670000000  0.4074490000000 1.0
C      1  0.4456340000000  0.5358850000000  0.5872620000000 1.0
C      1  0.4684660000000  0.5677050000000  0.4186800000000 1.0
C      1  0.5133920000000  0.5781500000000  0.5951800000000 1.0
C      1  0.5511460000000  0.5381640000000  0.4058930000000 1.0
C      1  0.5616930000000  0.5068890000000  0.5848350000000 1.0
C      1  0.5466550000000  0.4599380000000  0.4170600000000 1.0
C      1  0.5040240000000  0.5275130000000  0.5623980000000 1.0
C      1  0.5245960000000  0.5211990000000  0.4459650000000 1.0
C      1  0.5220480000000  0.5040260000000  0.5544930000000 1.0
C      1  0.5419730000000  0.4935490000000  0.4379860000000 1.0
C      1  0.5190230000000  0.4699900000000  0.5591530000000 1.0
C      1  0.4855540000000  0.4725330000000  0.4358500000000 1.0
C      1  0.4859150000000  0.4769250000000  0.5555100000000 1.0
C      1  0.4636420000000  0.4939650000000  0.4445910000000 1.0
C      1  0.4717050000000  0.5056170000000  0.5541020000000 1.0
C      1  0.4966110000000  0.5335010000000  0.4394580000000 1.0
C      1  0.5464100000000  0.5250940000000  0.6074490000000 1.0
C      1  0.5594790000000  0.4747910000000  0.3898230000000 1.0
C      1  0.5326420000000  0.4604140000000  0.6105630000000 1.0
C      1  0.5028560000000  0.4395530000000  0.3894260000000 1.0
C      1  0.4706030000000  0.4586470000000  0.6101770000000 1.0
C      1  0.4492410000000  0.4881460000000  0.3953150000000 1.0
C      1  0.4455340000000  0.5116220000000  0.6103370000000 1.0
C      1  0.4653750000000  0.5418010000000  0.3968710000000 1.0
C      1  0.4933500000000  0.5570010000000  0.6124300000000 1.0
C      1  0.5303810000000  0.5534970000000  0.3957230000000 1.0
C      1  0.4119750000000  0.5412560000000  0.4782860000000 1.0
C      1  0.4510890000000  0.5861920000000  0.5286790000000 1.0
C      1  0.5080870000000  0.6012860000000  0.4766910000000 1.0
C      1  0.5651540000000  0.5623520000000  0.5190880000000 1.0
C      1  0.5970200000000  0.5132370000000  0.4740340000000 1.0
C      1  0.5898060000000  0.4584830000000  0.5307050000000 1.0
C      1  0.5457730000000  0.4127240000000  0.4748210000000 1.0
C      1  0.4872860000000  0.4034620000000  0.5202800000000 1.0
C      1  0.4361130000000  0.4367400000000  0.4764670000000 1.0
C      1  0.4099970000000  0.4879840000000  0.5249720000000 1.0
C      1  0.5047760000000  0.4137440000000  0.5466460000000 1.0
C      1  0.4526840000000  0.4240430000000  0.4514320000000 1.0
C      1  0.4171080000000  0.4672600000000  0.5492480000000 1.0
C      1  0.4175760000000  0.5195770000000  0.4545980000000 1.0
C      1  0.4458860000000  0.5633640000000  0.5521380000000 1.0
C      1  0.4902390000000  0.5904080000000  0.4526290000000 1.0
C      1  0.5477220000000  0.5790260000000  0.5412590000000 1.0
C      1  0.5773920000000  0.5251970000000  0.4511210000000 1.0
C      1  0.5760310000000  0.4820930000000  0.5496420000000 1.0
C      1  0.5574410000000  0.4322790000000  0.4509210000000 1.0
C      1  0.5959080000000  0.4653990000000  0.5044450000000 1.0
C      1  0.5566860000000  0.4178620000000  0.5005850000000 1.0
C      1  0.5006650000000  0.3957580000000  0.4973500000000 1.0
C      1  0.4370800000000  0.4198900000000  0.4987650000000 1.0
C      1  0.4058980000000  0.4759260000000  0.4999610000000 1.0
C      1  0.4013330000000  0.5338260000000  0.5030000000000 1.0
C      1  0.4369340000000  0.5802790000000  0.5048900000000 1.0
C      1  0.4930110000000  0.6062980000000  0.4991560000000 1.0
C      1  0.5657980000000  0.5738070000000  0.4935340000000 1.0
C      1  0.5955650000000  0.5245020000000  0.4987030000000 1.0
C      1  0.4657520000000  0.4958960000000  0.4747210000000 1.0
C      1  0.4727870000000  0.5198540000000  0.5248420000000 1.0
C      1  0.4834260000000  0.5206060000000  0.4808000000000 1.0
C      1  0.4951510000000  0.5399280000000  0.5352400000000 1.0
C      1  0.5132380000000  0.5272730000000  0.4752110000000 1.0
C      1  0.5294080000000  0.5031520000000  0.5215220000000 1.0
C      1  0.5310220000000  0.4816830000000  0.4666770000000 1.0
C      1  0.5172310000000  0.4757650000000  0.5263260000000 1.0
C      1  0.5030250000000  0.4691720000000  0.4648260000000 1.0
C      1  0.4862320000000  0.4669020000000  0.5242230000000 1.0
C      1  0.5455310000000  0.5304260000000  0.4818030000000 1.0
C      1  0.5608520000000  0.4986720000000  0.5135500000000 1.0
C      1  0.5490840000000  0.4597930000000  0.4818300000000 1.0
C      1  0.5185970000000  0.4459550000000  0.5143250000000 1.0
C      1  0.4788930000000  0.4504360000000  0.4790040000000 1.0
C      1  0.4556720000000  0.4729000000000  0.5298230000000 1.0
C      1  0.4364530000000  0.5019330000000  0.4879200000000 1.0
C      1  0.4470270000000  0.5399800000000  0.5167890000000 1.0
C      1  0.4854430000000  0.5544040000000  0.4834860000000 1.0
C      1  0.5207720000000  0.5535620000000  0.5217130000000 1.0
C      1  0.5369820000000  0.4141500000000  0.5445440000000 1.0
C      1  0.4825920000000  0.4075990000000  0.4553290000000 1.0
C      1  0.4367930000000  0.4399240000000  0.5410140000000 1.0
C      1  0.4076620000000  0.4883950000000  0.4589140000000 1.0
C      1  0.4186090000000  0.5447440000000  0.5502720000000 1.0
C      1  0.4573130000000  0.5847040000000  0.4608480000000 1.0
C      1  0.5154520000000  0.5898340000000  0.5375250000000 1.0
C      1  0.5714790000000  0.5575580000000  0.4519790000000 1.0
C      1  0.5882720000000  0.5128140000000  0.5480190000000 1.0
C      1  0.5859670000000  0.4482500000000  0.4560170000000 1.0
C      1  0.5434100000000  0.5627290000000  0.4704610000000 1.0
C      1  0.5722370000000  0.5293070000000  0.5229740000000 1.0
C      1  0.5791690000000  0.4746640000000  0.4763240000000 1.0
C      1  0.5495450000000  0.4387590000000  0.5264540000000 1.0
C      1  0.5117810000000  0.4130000000000  0.4713520000000 1.0
C      1  0.4598110000000  0.4237900000000  0.5217250000000 1.0
C      1  0.4301610000000  0.4702300000000  0.4768150000000 1.0
C      1  0.4211050000000  0.5200770000000  0.5270010000000 1.0
C      1  0.4387970000000  0.5621310000000  0.4771000000000 1.0
C      1  0.4850490000000  0.5882900000000  0.5257430000000 1.0
C      1  0.4560800000000  0.4916240000000  0.5774590000000 1.0
C      1  0.4704730000000  0.5193090000000  0.4290080000000 1.0
C      1  0.4788320000000  0.5386490000000  0.5803940000000 1.0
C      1  0.4972360000000  0.5551530000000  0.4165350000000 1.0
C      1  0.5224120000000  0.5475970000000  0.5827690000000 1.0
C      1  0.5490050000000  0.5077460000000  0.4091300000000 1.0
C      1  0.5437810000000  0.4809170000000  0.5788370000000 1.0
C      1  0.5135780000000  0.4614360000000  0.4209560000000 1.0
C      1  0.4867400000000  0.4520330000000  0.5744370000000 1.0
C      1  0.4731230000000  0.4589810000000  0.4074620000000 1.0
C      1  0.4757140000000  0.5276560000000  0.6117620000000 1.0
C      1  0.5010490000000  0.5366460000000  0.3895050000000 1.0
C      1  0.5152900000000  0.5310390000000  0.6115990000000 1.0
C      1  0.5330180000000  0.4956210000000  0.3850620000000 1.0
C      1  0.5304170000000  0.4943130000000  0.6070980000000 1.0
C      1  0.5293640000000  0.4579690000000  0.3897630000000 1.0
C      1  0.5010730000000  0.4499740000000  0.6025400000000 1.0
C      1  0.4912800000000  0.4710320000000  0.3833250000000 1.0
C      1  0.4703540000000  0.4886770000000  0.6066320000000 1.0
C      1  0.4724730000000  0.5086640000000  0.3975510000000 1.0
C      1  0.4987620000000  0.5029880000000  0.6158320000000 1.0
C      1  0.5029460000000  0.5028740000000  0.3859570000000 1.0
END
