TITL C-3289328-6581-265 -0.00211559992342761 125000 -1004.15518176064 0 0 177 (C1) n - 1
REM
REM in /nfs/bkarasulu/CARBON/AIRSS/Generating-Clusters/AIREBO/with-SteepDescent/Higher-Symm/SD-CG/HFTN-CG
REM
REM
REM
REM
REM
REM ./C.cell (b20cbc046b6831c77cfcea5457e17084)
REM
REM compiler GCC version 9.2.1 20190827 (Red Hat 9.2.1-1)
REM options -cpp -mtune=generic -march=x86-64 -g -O0 -fpre-include=/usr/include/finclude/math-vector-fortran.h
REM seed -601709262 -1055241514 -1449925368 507417795 527759990 -2084612548 -1995994759 -394757636 -582642657 -23990494 2139538767 2044817784 1051909614 -701469663 1050208962 958134407 419482139 -385351658 -1254269782 -1135008987 -145745175 1822560725 -2138838981 1488205125 2028901049 648761628 374874437 -1947926223 -345452556 -845626091 -941797020 85153090 1345572643
REM
CELL 1.54180   50.00000   50.00000   50.00000   90.00000   90.00000   90.00000
LATT -1
SFAC C  
C      1  0.5551060000000  0.5550040000000  0.4192790000000 1.0
C      1  0.5571000000000  0.5866760000000  0.4822910000000 1.0
C      1  0.5543280000000  0.5998740000000  0.5594630000000 1.0
C      1  0.5604840000000  0.5072860000000  0.6115620000000 1.0
C      1  0.5409420000000  0.3928690000000  0.5403210000000 1.0
C      1  0.5515700000000  0.4124930000000  0.4842670000000 1.0
C      1  0.5820190000000  0.4566890000000  0.4008150000000 1.0
C      1  0.4144920000000  0.5200630000000  0.4705050000000 1.0
C      1  0.4086490000000  0.5405080000000  0.4926090000000 1.0
C      1  0.4018780000000  0.5318060000000  0.5198150000000 1.0
C      1  0.4180600000000  0.5093130000000  0.5308960000000 1.0
C      1  0.4146540000000  0.4827410000000  0.5177170000000 1.0
C      1  0.4288020000000  0.4641670000000  0.4957860000000 1.0
C      1  0.4220600000000  0.4890930000000  0.4741830000000 1.0
C      1  0.4128390000000  0.5351150000000  0.5609410000000 1.0
C      1  0.4146970000000  0.4739820000000  0.5569380000000 1.0
C      1  0.4088830000000  0.4340840000000  0.5128940000000 1.0
C      1  0.4127940000000  0.4492550000000  0.4526960000000 1.0
C      1  0.4107190000000  0.4998180000000  0.4295500000000 1.0
C      1  0.4113660000000  0.5572210000000  0.4564070000000 1.0
C      1  0.4071200000000  0.5772780000000  0.5170450000000 1.0
C      1  0.6129770000000  0.4949870000000  0.4720720000000 1.0
C      1  0.6226640000000  0.5219690000000  0.4800000000000 1.0
C      1  0.6180140000000  0.5309370000000  0.5079900000000 1.0
C      1  0.6073380000000  0.5169600000000  0.5326340000000 1.0
C      1  0.6076890000000  0.4886190000000  0.5328690000000 1.0
C      1  0.6270790000000  0.4750970000000  0.5171250000000 1.0
C      1  0.6195920000000  0.4715720000000  0.4900950000000 1.0
C      1  0.4825120000000  0.5477940000000  0.5936690000000 1.0
C      1  0.4832980000000  0.4528410000000  0.6046480000000 1.0
C      1  0.4880360000000  0.3955260000000  0.5259630000000 1.0
C      1  0.4882590000000  0.4124190000000  0.4409610000000 1.0
C      1  0.4778090000000  0.4960720000000  0.3907700000000 1.0
C      1  0.4805590000000  0.5819770000000  0.4309520000000 1.0
C      1  0.4814240000000  0.6096260000000  0.5212490000000 1.0
C      1  0.4787980000000  0.4814690000000  0.4739410000000 1.0
C      1  0.4810210000000  0.5137220000000  0.4641850000000 1.0
C      1  0.4779940000000  0.5302310000000  0.4936650000000 1.0
C      1  0.4829190000000  0.5209080000000  0.5211500000000 1.0
C      1  0.4910400000000  0.4942200000000  0.5405880000000 1.0
C      1  0.4807780000000  0.4683580000000  0.5312170000000 1.0
C      1  0.4897910000000  0.4706360000000  0.5006910000000 1.0
C      1  0.4604360000000  0.3986140000000  0.5076680000000 1.0
C      1  0.4625490000000  0.4200380000000  0.4254640000000 1.0
C      1  0.4545110000000  0.5120940000000  0.3962110000000 1.0
C      1  0.4582580000000  0.5874430000000  0.4479890000000 1.0
C      1  0.4549220000000  0.6057150000000  0.5364280000000 1.0
C      1  0.4583950000000  0.5314420000000  0.5952090000000 1.0
C      1  0.4579550000000  0.4439470000000  0.5849540000000 1.0
C      1  0.5745720000000  0.5221300000000  0.5347530000000 1.0
C      1  0.5812810000000  0.4794900000000  0.5325420000000 1.0
C      1  0.5727470000000  0.4554760000000  0.5159570000000 1.0
C      1  0.5882100000000  0.4685590000000  0.4882350000000 1.0
C      1  0.5788110000000  0.4951260000000  0.4690690000000 1.0
C      1  0.5888240000000  0.5252080000000  0.4815090000000 1.0
C      1  0.5867460000000  0.5427290000000  0.5105730000000 1.0
C      1  0.5464280000000  0.5233270000000  0.4934090000000 1.0
C      1  0.5569600000000  0.4620840000000  0.4872980000000 1.0
C      1  0.5430500000000  0.4925830000000  0.4930220000000 1.0
C      1  0.5542480000000  0.4976250000000  0.4514550000000 1.0
C      1  0.5630190000000  0.5386650000000  0.4679920000000 1.0
C      1  0.5538790000000  0.5442740000000  0.5191480000000 1.0
C      1  0.5582580000000  0.4976260000000  0.5444720000000 1.0
C      1  0.4590730000000  0.4849300000000  0.4249120000000 1.0
C      1  0.4636040000000  0.5471650000000  0.4447620000000 1.0
C      1  0.4558620000000  0.5859580000000  0.5018420000000 1.0
C      1  0.4656370000000  0.5424490000000  0.5578720000000 1.0
C      1  0.4714000000000  0.4723920000000  0.5720480000000 1.0
C      1  0.4617860000000  0.4253930000000  0.5270750000000 1.0
C      1  0.4621800000000  0.4334280000000  0.4628090000000 1.0
C      1  0.4624050000000  0.4210250000000  0.5607990000000 1.0
C      1  0.4645650000000  0.4042700000000  0.4774360000000 1.0
C      1  0.4573630000000  0.4526910000000  0.4175260000000 1.0
C      1  0.4619340000000  0.5374330000000  0.4122270000000 1.0
C      1  0.4630080000000  0.5992660000000  0.4725140000000 1.0
C      1  0.4669220000000  0.5854020000000  0.5576240000000 1.0
C      1  0.4643110000000  0.4999030000000  0.5907510000000 1.0
C      1  0.4031600000000  0.5275830000000  0.4418550000000 1.0
C      1  0.3991020000000  0.5700630000000  0.4854060000000 1.0
C      1  0.4008720000000  0.5551110000000  0.5382220000000 1.0
C      1  0.4064870000000  0.5036300000000  0.5602510000000 1.0
C      1  0.4075320000000  0.4567000000000  0.5314980000000 1.0
C      1  0.4105190000000  0.4424750000000  0.4805440000000 1.0
C      1  0.4105050000000  0.4776120000000  0.4485470000000 1.0
C      1  0.5091630000000  0.3841990000000  0.5109370000000 1.0
C      1  0.5095490000000  0.4217130000000  0.4209990000000 1.0
C      1  0.5037840000000  0.5095780000000  0.4021980000000 1.0
C      1  0.5051360000000  0.5779850000000  0.4465560000000 1.0
C      1  0.5006620000000  0.5909730000000  0.5300370000000 1.0
C      1  0.5058360000000  0.5323680000000  0.5882130000000 1.0
C      1  0.5067450000000  0.4384100000000  0.5982880000000 1.0
C      1  0.4650330000000  0.5547660000000  0.4743480000000 1.0
C      1  0.4665760000000  0.5684820000000  0.5281220000000 1.0
C      1  0.4681150000000  0.5102090000000  0.5599510000000 1.0
C      1  0.4831970000000  0.4465460000000  0.5531140000000 1.0
C      1  0.4846540000000  0.4313330000000  0.5025640000000 1.0
C      1  0.4776740000000  0.4609620000000  0.4538930000000 1.0
C      1  0.4758500000000  0.5119940000000  0.4306100000000 1.0
C      1  0.5073920000000  0.3850870000000  0.4797360000000 1.0
C      1  0.4987190000000  0.4499730000000  0.4079040000000 1.0
C      1  0.4999340000000  0.5427530000000  0.4012080000000 1.0
C      1  0.5022540000000  0.5927540000000  0.4764540000000 1.0
C      1  0.5078740000000  0.5815190000000  0.5598500000000 1.0
C      1  0.5067890000000  0.5031150000000  0.5999770000000 1.0
C      1  0.5077620000000  0.4130050000000  0.5770840000000 1.0
C      1  0.5735930000000  0.4628480000000  0.5793750000000 1.0
C      1  0.5642180000000  0.4059040000000  0.5281500000000 1.0
C      1  0.5678510000000  0.4376200000000  0.4436090000000 1.0
C      1  0.5566680000000  0.4950210000000  0.4039300000000 1.0
C      1  0.5684050000000  0.5734580000000  0.4339860000000 1.0
C      1  0.5600460000000  0.5986320000000  0.5124900000000 1.0
C      1  0.5689810000000  0.5386300000000  0.5706680000000 1.0
C      1  0.5019590000000  0.4823240000000  0.5768300000000 1.0
C      1  0.4986610000000  0.4175220000000  0.5444700000000 1.0
C      1  0.4950650000000  0.4289460000000  0.4702140000000 1.0
C      1  0.4899590000000  0.4727900000000  0.4286020000000 1.0
C      1  0.4945380000000  0.5401090000000  0.4346740000000 1.0
C      1  0.4840750000000  0.5717200000000  0.4923060000000 1.0
C      1  0.4911940000000  0.5558510000000  0.5460830000000 1.0
C      1  0.5374730000000  0.5789500000000  0.5616000000000 1.0
C      1  0.5353640000000  0.4943610000000  0.6061540000000 1.0
C      1  0.5249900000000  0.4413760000000  0.5696890000000 1.0
C      1  0.5245810000000  0.4090750000000  0.4950310000000 1.0
C      1  0.5224930000000  0.4501470000000  0.4326970000000 1.0
C      1  0.5291510000000  0.5341900000000  0.4116270000000 1.0
C      1  0.5312580000000  0.5815660000000  0.4660430000000 1.0
C      1  0.5511060000000  0.4380900000000  0.4691580000000 1.0
C      1  0.5420160000000  0.4763960000000  0.4271470000000 1.0
C      1  0.5476120000000  0.5288490000000  0.4396990000000 1.0
C      1  0.5423670000000  0.5706270000000  0.5080620000000 1.0
C      1  0.5474380000000  0.5506300000000  0.5519520000000 1.0
C      1  0.5539020000000  0.4884970000000  0.5769340000000 1.0
C      1  0.5314490000000  0.4255250000000  0.5403110000000 1.0
C      1  0.5178190000000  0.5403100000000  0.5595970000000 1.0
C      1  0.5270510000000  0.4710600000000  0.5654810000000 1.0
C      1  0.5169970000000  0.4368540000000  0.5116880000000 1.0
C      1  0.5205430000000  0.4468880000000  0.4642030000000 1.0
C      1  0.5124810000000  0.4932420000000  0.4276900000000 1.0
C      1  0.5216110000000  0.5483920000000  0.4496950000000 1.0
C      1  0.5116600000000  0.5708280000000  0.5085230000000 1.0
C      1  0.4778450000000  0.5655370000000  0.4087220000000 1.0
C      1  0.4826640000000  0.6141330000000  0.4928160000000 1.0
C      1  0.4821040000000  0.5735340000000  0.5806280000000 1.0
C      1  0.4828600000000  0.4812740000000  0.6113870000000 1.0
C      1  0.4779840000000  0.3990720000000  0.5730440000000 1.0
C      1  0.4861570000000  0.3904710000000  0.4639110000000 1.0
C      1  0.4746750000000  0.4676310000000  0.3922320000000 1.0
C      1  0.4507090000000  0.5167160000000  0.5314780000000 1.0
C      1  0.4483500000000  0.4653450000000  0.5303610000000 1.0
C      1  0.4598450000000  0.4544900000000  0.5002570000000 1.0
C      1  0.4535390000000  0.4933340000000  0.4848800000000 1.0
C      1  0.4472530000000  0.5195320000000  0.4693400000000 1.0
C      1  0.4396990000000  0.5437340000000  0.4903540000000 1.0
C      1  0.4501300000000  0.5453660000000  0.5179410000000 1.0
C      1  0.5248850000000  0.4916000000000  0.5384700000000 1.0
C      1  0.5276620000000  0.4691370000000  0.5130970000000 1.0
C      1  0.5173520000000  0.4738070000000  0.4810260000000 1.0
C      1  0.5218370000000  0.4989080000000  0.4585340000000 1.0
C      1  0.5118080000000  0.5264740000000  0.4709850000000 1.0
C      1  0.5181120000000  0.5379460000000  0.5023990000000 1.0
C      1  0.5150510000000  0.5242510000000  0.5317530000000 1.0
C      1  0.4379150000000  0.4669660000000  0.5695210000000 1.0
C      1  0.4325670000000  0.4177600000000  0.5112310000000 1.0
C      1  0.4375590000000  0.4371730000000  0.4406800000000 1.0
C      1  0.4325760000000  0.4983650000000  0.4120940000000 1.0
C      1  0.4362970000000  0.5671640000000  0.4479810000000 1.0
C      1  0.4307100000000  0.5924350000000  0.5207300000000 1.0
C      1  0.4375600000000  0.5409430000000  0.5740030000000 1.0
C      1  0.5756840000000  0.4432080000000  0.5642180000000 1.0
C      1  0.5700960000000  0.4021890000000  0.5009290000000 1.0
C      1  0.5669200000000  0.4553300000000  0.4235380000000 1.0
C      1  0.5652620000000  0.5170970000000  0.4131050000000 1.0
C      1  0.5685320000000  0.5682980000000  0.4609380000000 1.0
C      1  0.5631880000000  0.6104980000000  0.5357310000000 1.0
C      1  0.5708520000000  0.5167450000000  0.5853790000000 1.0
C      1  0.5641180000000  0.4354600000000  0.5366280000000 1.0
C      1  0.4534260000000  0.4914890000000  0.5136160000000 1.0
END
