TITL C-3289327-5623-643 0.000190396864185924 125000 -708.815678734643 0 0 135 (C1) n - 1
REM
REM in /nfs/bkarasulu/CARBON/AIRSS/Generating-Clusters/AIREBO/with-SteepDescent/Higher-Symm/SD-CG/HFTN-CG
REM
REM
REM
REM
REM
REM ./C.cell (b20cbc046b6831c77cfcea5457e17084)
REM
REM compiler GCC version 9.2.1 20190827 (Red Hat 9.2.1-1)
REM options -cpp -mtune=generic -march=x86-64 -g -O0 -fpre-include=/usr/include/finclude/math-vector-fortran.h
REM seed 498625841 836542170 1649636188 -1487994003 -1834216551 451709232 -636199434 -94306457 143468112 341423170 394905051 -1884045498 -1896063442 -1851504045 1031286226 1627536716 275269192 1493511416 -429801938 -837563019 386383756 -1118287170 805389544 -1827254646 1331008676 -120745221 1292658538 382612467 1077443816 2087221752 1765239495 1428468228 708798237
REM
CELL 1.54180   50.00000   50.00000   50.00000   90.00000   90.00000   90.00000
LATT -1
SFAC C  
C      1  0.5238160000000  0.4573240000000  0.4646020000000 1.0
C      1  0.4405720000000  0.5358600000000  0.4473200000000 1.0
C      1  0.5556950000000  0.5258640000000  0.4999240000000 1.0
C      1  0.5254330000000  0.4876630000000  0.5112500000000 1.0
C      1  0.5529660000000  0.4352500000000  0.5622520000000 1.0
C      1  0.4697520000000  0.5743680000000  0.4999150000000 1.0
C      1  0.4825110000000  0.4949900000000  0.4996890000000 1.0
C      1  0.4658660000000  0.4531560000000  0.5138100000000 1.0
C      1  0.4394950000000  0.5896420000000  0.4971210000000 1.0
C      1  0.4866820000000  0.4106520000000  0.5416150000000 1.0
C      1  0.4658150000000  0.4790890000000  0.4564270000000 1.0
C      1  0.4457410000000  0.5392430000000  0.5580180000000 1.0
C      1  0.5012270000000  0.4963780000000  0.4627690000000 1.0
C      1  0.4297820000000  0.5163400000000  0.5443050000000 1.0
C      1  0.5243280000000  0.5280550000000  0.5549720000000 1.0
C      1  0.5052600000000  0.5162300000000  0.5119830000000 1.0
C      1  0.5522970000000  0.4468150000000  0.4380240000000 1.0
C      1  0.5536340000000  0.4716760000000  0.5009190000000 1.0
C      1  0.5538720000000  0.4936080000000  0.5872320000000 1.0
C      1  0.4980450000000  0.4697650000000  0.4829870000000 1.0
C      1  0.4099470000000  0.5121450000000  0.5169970000000 1.0
C      1  0.4662740000000  0.5300090000000  0.5743370000000 1.0
C      1  0.4545360000000  0.4217690000000  0.5403580000000 1.0
C      1  0.6023050000000  0.5070390000000  0.4658260000000 1.0
C      1  0.4711090000000  0.4511110000000  0.4839720000000 1.0
C      1  0.5756590000000  0.5540150000000  0.5485280000000 1.0
C      1  0.5074270000000  0.6249200000000  0.4924790000000 1.0
C      1  0.4895320000000  0.4715250000000  0.5467870000000 1.0
C      1  0.4225240000000  0.4863500000000  0.4673860000000 1.0
C      1  0.4342450000000  0.4720750000000  0.5504920000000 1.0
C      1  0.5819340000000  0.5185020000000  0.4495300000000 1.0
C      1  0.5062000000000  0.5705460000000  0.4618180000000 1.0
C      1  0.5117860000000  0.5240150000000  0.4795250000000 1.0
C      1  0.5767320000000  0.5763320000000  0.5635030000000 1.0
C      1  0.5562710000000  0.4670340000000  0.4613070000000 1.0
C      1  0.5363640000000  0.5237900000000  0.5234570000000 1.0
C      1  0.5780660000000  0.5468710000000  0.4519510000000 1.0
C      1  0.5803890000000  0.4650730000000  0.4820930000000 1.0
C      1  0.4183400000000  0.5632980000000  0.4951620000000 1.0
C      1  0.5176970000000  0.4554750000000  0.5067890000000 1.0
C      1  0.5207120000000  0.4036620000000  0.5113010000000 1.0
C      1  0.4985310000000  0.6003610000000  0.4707140000000 1.0
C      1  0.3952310000000  0.5384480000000  0.4724900000000 1.0
C      1  0.4848190000000  0.4979620000000  0.6040530000000 1.0
C      1  0.5184040000000  0.4243610000000  0.4641790000000 1.0
C      1  0.4220000000000  0.4457980000000  0.5114220000000 1.0
C      1  0.5364990000000  0.4906490000000  0.4228730000000 1.0
C      1  0.4588420000000  0.5098840000000  0.4596210000000 1.0
C      1  0.4892410000000  0.4519660000000  0.3979580000000 1.0
C      1  0.5665910000000  0.5146810000000  0.5809550000000 1.0
C      1  0.4958060000000  0.4370980000000  0.4445220000000 1.0
C      1  0.5111140000000  0.4380210000000  0.6171710000000 1.0
C      1  0.4361490000000  0.4952090000000  0.5702480000000 1.0
C      1  0.5065550000000  0.4876680000000  0.4320180000000 1.0
C      1  0.4342130000000  0.5694410000000  0.5240580000000 1.0
C      1  0.4785370000000  0.5941200000000  0.4455690000000 1.0
C      1  0.4651860000000  0.5489350000000  0.4638270000000 1.0
C      1  0.4204860000000  0.5194970000000  0.4170940000000 1.0
C      1  0.4785150000000  0.5235130000000  0.4812990000000 1.0
C      1  0.4909910000000  0.5162090000000  0.4369950000000 1.0
C      1  0.4619830000000  0.5098980000000  0.4204030000000 1.0
C      1  0.5004550000000  0.5641620000000  0.5087370000000 1.0
C      1  0.4467520000000  0.4805320000000  0.5202390000000 1.0
C      1  0.5582760000000  0.5298990000000  0.5562560000000 1.0
C      1  0.5127060000000  0.4530810000000  0.5403410000000 1.0
C      1  0.4837930000000  0.4663910000000  0.4359700000000 1.0
C      1  0.6005680000000  0.5571670000000  0.4991230000000 1.0
C      1  0.5746360000000  0.4237360000000  0.5179150000000 1.0
C      1  0.5155380000000  0.5556420000000  0.4852860000000 1.0
C      1  0.5941440000000  0.4621220000000  0.5566530000000 1.0
C      1  0.5929710000000  0.4968520000000  0.5173110000000 1.0
C      1  0.5368210000000  0.5246420000000  0.4596410000000 1.0
C      1  0.4100830000000  0.5448240000000  0.5224860000000 1.0
C      1  0.4129650000000  0.4782620000000  0.5170320000000 1.0
C      1  0.5502320000000  0.5592790000000  0.4454290000000 1.0
C      1  0.4356850000000  0.4974320000000  0.4380310000000 1.0
C      1  0.5478170000000  0.4421570000000  0.5125120000000 1.0
C      1  0.4446140000000  0.4291860000000  0.4637070000000 1.0
C      1  0.5482940000000  0.5507640000000  0.4783060000000 1.0
C      1  0.4523530000000  0.4154220000000  0.4909590000000 1.0
C      1  0.4862300000000  0.5497990000000  0.5783830000000 1.0
C      1  0.5553910000000  0.4995390000000  0.4844760000000 1.0
C      1  0.4585640000000  0.5586370000000  0.5368260000000 1.0
C      1  0.5866990000000  0.4511170000000  0.5108600000000 1.0
C      1  0.4647310000000  0.4630220000000  0.4110930000000 1.0
C      1  0.5293590000000  0.4524000000000  0.5671350000000 1.0
C      1  0.5110600000000  0.5371990000000  0.5838420000000 1.0
C      1  0.5414620000000  0.4942940000000  0.5389850000000 1.0
C      1  0.4747190000000  0.4957410000000  0.5321800000000 1.0
C      1  0.4395760000000  0.4707930000000  0.4172630000000 1.0
C      1  0.5917110000000  0.5492100000000  0.5242590000000 1.0
C      1  0.5935390000000  0.5593810000000  0.4726030000000 1.0
C      1  0.5202440000000  0.5133760000000  0.4046750000000 1.0
C      1  0.4772480000000  0.4218060000000  0.4681140000000 1.0
C      1  0.4016550000000  0.5072170000000  0.4842970000000 1.0
C      1  0.4833680000000  0.6055210000000  0.5007070000000 1.0
C      1  0.4396930000000  0.4995210000000  0.4936180000000 1.0
C      1  0.4891490000000  0.4367360000000  0.5270580000000 1.0
C      1  0.5068390000000  0.5490590000000  0.5347440000000 1.0
C      1  0.5002850000000  0.5272070000000  0.3996990000000 1.0
C      1  0.4960350000000  0.5801100000000  0.4245970000000 1.0
C      1  0.5109020000000  0.4454390000000  0.4157010000000 1.0
C      1  0.4274590000000  0.5279150000000  0.4763970000000 1.0
C      1  0.5354830000000  0.4586920000000  0.4191100000000 1.0
C      1  0.4399650000000  0.5429720000000  0.4163510000000 1.0
C      1  0.4392520000000  0.4234150000000  0.5148720000000 1.0
C      1  0.5260320000000  0.5689610000000  0.4361060000000 1.0
C      1  0.5777060000000  0.4435420000000  0.5684890000000 1.0
C      1  0.4750170000000  0.5032230000000  0.5657340000000 1.0
C      1  0.4776470000000  0.4211120000000  0.5728570000000 1.0
C      1  0.4678360000000  0.4480480000000  0.5788940000000 1.0
C      1  0.4774650000000  0.5713410000000  0.5612750000000 1.0
C      1  0.5761940000000  0.5215660000000  0.5253100000000 1.0
C      1  0.4600800000000  0.4545400000000  0.5475410000000 1.0
C      1  0.5181270000000  0.4011470000000  0.5408400000000 1.0
C      1  0.5608380000000  0.5755340000000  0.4890190000000 1.0
C      1  0.5957980000000  0.4923040000000  0.4888590000000 1.0
C      1  0.5063180000000  0.5153910000000  0.6022950000000 1.0
C      1  0.5545870000000  0.4992240000000  0.4504730000000 1.0
C      1  0.5064730000000  0.4990950000000  0.5572760000000 1.0
C      1  0.4793700000000  0.5344900000000  0.5246140000000 1.0
C      1  0.4887550000000  0.5504250000000  0.4406580000000 1.0
C      1  0.5156930000000  0.4238900000000  0.4943550000000 1.0
C      1  0.5144030000000  0.4435300000000  0.5923530000000 1.0
C      1  0.4606190000000  0.5881670000000  0.4701790000000 1.0
C      1  0.4630300000000  0.4802360000000  0.5848830000000 1.0
C      1  0.4487680000000  0.5481840000000  0.4935950000000 1.0
C      1  0.5450150000000  0.4219850000000  0.4470890000000 1.0
C      1  0.5341920000000  0.4826310000000  0.5665670000000 1.0
C      1  0.4483280000000  0.5231260000000  0.5165880000000 1.0
C      1  0.4725790000000  0.5411520000000  0.4122130000000 1.0
C      1  0.4067040000000  0.4641660000000  0.4877390000000 1.0
C      1  0.5469340000000  0.4189330000000  0.5373310000000 1.0
C      1  0.4431600000000  0.4598950000000  0.4667130000000 1.0
C      1  0.5924820000000  0.4712470000000  0.5301770000000 1.0
END
