TITL C-3289325-7307-148 0.00402055531569935 125000 -280.083282962706 0 0 51 (C1) n - 1
REM
REM in /nfs/bkarasulu/CARBON/AIRSS/Generating-Clusters/AIREBO/with-SteepDescent/Higher-Symm/SD-CG/HFTN-CG
REM
REM
REM
REM
REM
REM ./C.cell (b20cbc046b6831c77cfcea5457e17084)
REM
REM compiler GCC version 9.2.1 20190827 (Red Hat 9.2.1-1)
REM options -cpp -mtune=generic -march=x86-64 -g -O0 -fpre-include=/usr/include/finclude/math-vector-fortran.h
REM seed 1233441890 -1873172254 -861040708 -693844996 -687330937 -1913971075 486238198 348816315 -1778716617 -688384167 -106314826 1324322408 -830045130 -1059714202 968264911 689913643 -1811687653 1493602016 1255529614 435002782 -1328413470 1031441859 1733928994 599874598 891448393 -809723701 104193974 1744575617 661698728 -1859653513 718581815 1168657154 -946236760
REM
CELL 1.54180   50.00000   50.00000   50.00000   90.00000   90.00000   90.00000
LATT -1
SFAC C  
C      1  0.5149520000000  0.4319830000000  0.5232890000000 1.0
C      1  0.5396550000000  0.5591530000000  0.5224400000000 1.0
C      1  0.4392240000000  0.5136310000000  0.5191390000000 1.0
C      1  0.5159330000000  0.4235050000000  0.4606540000000 1.0
C      1  0.5374610000000  0.5612740000000  0.4703900000000 1.0
C      1  0.4277810000000  0.5156760000000  0.4591330000000 1.0
C      1  0.5136130000000  0.5685650000000  0.5234470000000 1.0
C      1  0.5409880000000  0.4417750000000  0.5226930000000 1.0
C      1  0.4391550000000  0.4856680000000  0.5194210000000 1.0
C      1  0.5157340000000  0.5756530000000  0.4607960000000 1.0
C      1  0.5380210000000  0.4374650000000  0.4699420000000 1.0
C      1  0.4298070000000  0.4880290000000  0.4586290000000 1.0
C      1  0.4330250000000  0.5359080000000  0.4786100000000 1.0
C      1  0.4956240000000  0.4139220000000  0.4822030000000 1.0
C      1  0.5584730000000  0.5463240000000  0.4812790000000 1.0
C      1  0.4215540000000  0.5303990000000  0.5045130000000 1.0
C      1  0.5038370000000  0.4107330000000  0.5087880000000 1.0
C      1  0.5652130000000  0.5575230000000  0.5067420000000 1.0
C      1  0.4349100000000  0.4670970000000  0.4770950000000 1.0
C      1  0.4952110000000  0.5859050000000  0.4818160000000 1.0
C      1  0.5593720000000  0.4520560000000  0.4804970000000 1.0
C      1  0.4220580000000  0.4703790000000  0.5026680000000 1.0
C      1  0.5024800000000  0.5895610000000  0.5085950000000 1.0
C      1  0.5659120000000  0.4405120000000  0.5062280000000 1.0
C      1  0.4642980000000  0.5116550000000  0.4748390000000 1.0
C      1  0.5088700000000  0.4628070000000  0.4597130000000 1.0
C      1  0.5282870000000  0.5230450000000  0.4631340000000 1.0
C      1  0.4729860000000  0.5128320000000  0.5473220000000 1.0
C      1  0.5151070000000  0.4635850000000  0.5563530000000 1.0
C      1  0.5380300000000  0.5278760000000  0.5472260000000 1.0
C      1  0.4684230000000  0.4880620000000  0.4716860000000 1.0
C      1  0.5079780000000  0.5365220000000  0.4595930000000 1.0
C      1  0.5289900000000  0.4760580000000  0.4648440000000 1.0
C      1  0.4731330000000  0.4872550000000  0.5476010000000 1.0
C      1  0.5152570000000  0.5359580000000  0.5555640000000 1.0
C      1  0.5380060000000  0.4719040000000  0.5487950000000 1.0
C      1  0.5517120000000  0.4839770000000  0.4869630000000 1.0
C      1  0.4866730000000  0.5563440000000  0.4715070000000 1.0
C      1  0.4663450000000  0.4587910000000  0.4861460000000 1.0
C      1  0.5419040000000  0.4750560000000  0.5157850000000 1.0
C      1  0.4945170000000  0.5454350000000  0.5315720000000 1.0
C      1  0.4705020000000  0.4727280000000  0.5169640000000 1.0
C      1  0.5506150000000  0.5144620000000  0.4848950000000 1.0
C      1  0.4872990000000  0.4434060000000  0.4714890000000 1.0
C      1  0.4655350000000  0.5421380000000  0.4864180000000 1.0
C      1  0.5411610000000  0.5263430000000  0.5136100000000 1.0
C      1  0.4953270000000  0.4545430000000  0.5317020000000 1.0
C      1  0.4705490000000  0.5265420000000  0.5162940000000 1.0
C      1  0.5101460000000  0.5172890000000  0.5206310000000 1.0
C      1  0.5107190000000  0.4832180000000  0.5218450000000 1.0
C      1  0.4876380000000  0.4994730000000  0.5048360000000 1.0
END
