TITL C-3289328-6581-132 -11.34895571716 125000 -921.193419979067 0 0 169 (C1) n - 1
REM
REM in /nfs/bkarasulu/CARBON/AIRSS/Generating-Clusters/AIREBO/with-SteepDescent/Higher-Symm/SD-CG/HFTN-CG
REM
REM
REM
REM
REM
REM ./C.cell (b20cbc046b6831c77cfcea5457e17084)
REM
REM compiler GCC version 9.2.1 20190827 (Red Hat 9.2.1-1)
REM options -cpp -mtune=generic -march=x86-64 -g -O0 -fpre-include=/usr/include/finclude/math-vector-fortran.h
REM seed -329522880 -1875697184 -580222799 -858302240 889142086 -1347899172 -1590566379 -750057193 -55723553 1015755559 386312033 -599791531 -322984318 -1189274543 1356643772 -874730393 -837432323 65224724 -1620819484 982938832 -1306837605 -1870808247 -732502641 -77915302 385773425 1854017688 1529464111 1477540849 497920830 -1233927252 -1519766865 -1720658801 -337193588
REM
CELL 1.54180   50.00000   50.00000   50.00000   90.00000   90.00000   90.00000
LATT -1
SFAC C  
C      1  0.5553710000000  0.4711210000000  0.5572390000000 1.0
C      1  0.4455030000000  0.4822520000000  0.4487650000000 1.0
C      1  0.5588690000000  0.5181660000000  0.5484370000000 1.0
C      1  0.4340370000000  0.5218220000000  0.4360570000000 1.0
C      1  0.4394880000000  0.4746770000000  0.5491580000000 1.0
C      1  0.5543600000000  0.4663530000000  0.4467360000000 1.0
C      1  0.4417050000000  0.5083580000000  0.5550850000000 1.0
C      1  0.5580140000000  0.5179410000000  0.4468460000000 1.0
C      1  0.5172120000000  0.5563140000000  0.4820540000000 1.0
C      1  0.4837510000000  0.5430380000000  0.5210150000000 1.0
C      1  0.5219050000000  0.4459600000000  0.4860760000000 1.0
C      1  0.4859660000000  0.4482030000000  0.5110890000000 1.0
C      1  0.4840050000000  0.5525680000000  0.4883100000000 1.0
C      1  0.5152120000000  0.5534620000000  0.5132200000000 1.0
C      1  0.4903430000000  0.4592290000000  0.4794710000000 1.0
C      1  0.5194470000000  0.4460610000000  0.5170190000000 1.0
C      1  0.5207430000000  0.4713440000000  0.4256720000000 1.0
C      1  0.4792750000000  0.4727310000000  0.5825640000000 1.0
C      1  0.5152470000000  0.5242190000000  0.4194110000000 1.0
C      1  0.4816790000000  0.5210590000000  0.5781510000000 1.0
C      1  0.4815160000000  0.4765130000000  0.4192420000000 1.0
C      1  0.5206310000000  0.4729730000000  0.5847580000000 1.0
C      1  0.4840040000000  0.5325850000000  0.4089140000000 1.0
C      1  0.5153040000000  0.5250730000000  0.5827050000000 1.0
C      1  0.5129480000000  0.4419890000000  0.5864390000000 1.0
C      1  0.4870200000000  0.4457780000000  0.4235860000000 1.0
C      1  0.5195630000000  0.5566540000000  0.5787520000000 1.0
C      1  0.4809380000000  0.5624380000000  0.4219910000000 1.0
C      1  0.4792230000000  0.4405360000000  0.5820920000000 1.0
C      1  0.5184710000000  0.4402110000000  0.4187110000000 1.0
C      1  0.4872080000000  0.5530120000000  0.5791570000000 1.0
C      1  0.5143500000000  0.5569780000000  0.4180650000000 1.0
C      1  0.5132330000000  0.5828290000000  0.5493620000000 1.0
C      1  0.4859300000000  0.5816000000000  0.4565590000000 1.0
C      1  0.5078120000000  0.4269810000000  0.5498050000000 1.0
C      1  0.4859180000000  0.4158130000000  0.4636380000000 1.0
C      1  0.4855190000000  0.5840000000000  0.5489690000000 1.0
C      1  0.5124030000000  0.5802760000000  0.4504230000000 1.0
C      1  0.4813270000000  0.4267670000000  0.5446990000000 1.0
C      1  0.5124440000000  0.4183570000000  0.4590370000000 1.0
C      1  0.5875500000000  0.5131040000000  0.5079710000000 1.0
C      1  0.4144690000000  0.5178480000000  0.4870970000000 1.0
C      1  0.6061120000000  0.4856450000000  0.5101750000000 1.0
C      1  0.4015770000000  0.4863950000000  0.4871850000000 1.0
C      1  0.4046710000000  0.5119860000000  0.5173100000000 1.0
C      1  0.6045410000000  0.5143950000000  0.4795740000000 1.0
C      1  0.3905090000000  0.4820040000000  0.5171560000000 1.0
C      1  0.5918000000000  0.4842070000000  0.4808350000000 1.0
C      1  0.4812960000000  0.4805380000000  0.5212170000000 1.0
C      1  0.5256360000000  0.4775110000000  0.4792240000000 1.0
C      1  0.4720510000000  0.5135040000000  0.5177120000000 1.0
C      1  0.5238370000000  0.5277060000000  0.4722170000000 1.0
C      1  0.5266800000000  0.4732530000000  0.5294860000000 1.0
C      1  0.4846110000000  0.4925330000000  0.4832590000000 1.0
C      1  0.5207480000000  0.5206150000000  0.5203050000000 1.0
C      1  0.4760910000000  0.5233650000000  0.4726790000000 1.0
C      1  0.5651450000000  0.5883850000000  0.4650290000000 1.0
C      1  0.4394260000000  0.5892430000000  0.5356130000000 1.0
C      1  0.5659310000000  0.4110970000000  0.4680320000000 1.0
C      1  0.4414640000000  0.4144490000000  0.5287030000000 1.0
C      1  0.4345920000000  0.5862150000000  0.4732050000000 1.0
C      1  0.5623180000000  0.5879250000000  0.5275350000000 1.0
C      1  0.4366600000000  0.4136430000000  0.4676720000000 1.0
C      1  0.5653830000000  0.4168520000000  0.5356090000000 1.0
C      1  0.4429850000000  0.5167390000000  0.4686100000000 1.0
C      1  0.5540440000000  0.5163930000000  0.5147850000000 1.0
C      1  0.4445090000000  0.4857710000000  0.4825770000000 1.0
C      1  0.5549830000000  0.4842430000000  0.5258560000000 1.0
C      1  0.5551250000000  0.5174850000000  0.4807600000000 1.0
C      1  0.4383010000000  0.5142640000000  0.5217720000000 1.0
C      1  0.5582050000000  0.4840090000000  0.4755510000000 1.0
C      1  0.4475850000000  0.4819100000000  0.5169240000000 1.0
C      1  0.4532750000000  0.4429830000000  0.4204830000000 1.0
C      1  0.5459300000000  0.4324950000000  0.5936030000000 1.0
C      1  0.4483750000000  0.5688410000000  0.4183110000000 1.0
C      1  0.5539580000000  0.5607320000000  0.5815250000000 1.0
C      1  0.5523880000000  0.4353470000000  0.4138960000000 1.0
C      1  0.4446500000000  0.4362200000000  0.5853250000000 1.0
C      1  0.5469050000000  0.5656330000000  0.4102700000000 1.0
C      1  0.4530670000000  0.5524920000000  0.5802690000000 1.0
C      1  0.4359210000000  0.5442960000000  0.4111040000000 1.0
C      1  0.5540070000000  0.5304510000000  0.5746880000000 1.0
C      1  0.4423520000000  0.4692930000000  0.4204410000000 1.0
C      1  0.5582420000000  0.4602180000000  0.5887210000000 1.0
C      1  0.5608090000000  0.5402080000000  0.4210300000000 1.0
C      1  0.4318920000000  0.5279700000000  0.5808480000000 1.0
C      1  0.5679400000000  0.4655630000000  0.4155650000000 1.0
C      1  0.4366300000000  0.4654430000000  0.5817700000000 1.0
C      1  0.4570230000000  0.5119130000000  0.5918590000000 1.0
C      1  0.5435660000000  0.5124870000000  0.4183040000000 1.0
C      1  0.4558040000000  0.4844250000000  0.5940370000000 1.0
C      1  0.5426480000000  0.4842110000000  0.4129250000000 1.0
C      1  0.5417270000000  0.5129100000000  0.5958220000000 1.0
C      1  0.4551310000000  0.5170470000000  0.4097760000000 1.0
C      1  0.5425970000000  0.4855750000000  0.5989350000000 1.0
C      1  0.4582980000000  0.4883590000000  0.4031180000000 1.0
C      1  0.5597090000000  0.4221610000000  0.4420350000000 1.0
C      1  0.4429320000000  0.4241210000000  0.5553000000000 1.0
C      1  0.5568030000000  0.5779590000000  0.4387920000000 1.0
C      1  0.4467120000000  0.5712300000000  0.5571790000000 1.0
C      1  0.4448130000000  0.4274850000000  0.4444730000000 1.0
C      1  0.5564230000000  0.4238170000000  0.5630930000000 1.0
C      1  0.4410690000000  0.5781580000000  0.4462870000000 1.0
C      1  0.5585590000000  0.5751940000000  0.5540060000000 1.0
C      1  0.6022900000000  0.4591760000000  0.5293960000000 1.0
C      1  0.4157590000000  0.4607130000000  0.4705930000000 1.0
C      1  0.5863330000000  0.5383200000000  0.5287610000000 1.0
C      1  0.4058770000000  0.5467690000000  0.4748110000000 1.0
C      1  0.4108100000000  0.4582560000000  0.5267630000000 1.0
C      1  0.5949020000000  0.4545200000000  0.4661080000000 1.0
C      1  0.4108940000000  0.5416000000000  0.5317660000000 1.0
C      1  0.5867010000000  0.5372590000000  0.4662790000000 1.0
C      1  0.5837050000000  0.4329520000000  0.5172310000000 1.0
C      1  0.4164000000000  0.4287540000000  0.4813600000000 1.0
C      1  0.5817220000000  0.5670290000000  0.5111300000000 1.0
C      1  0.4143550000000  0.5715460000000  0.4864420000000 1.0
C      1  0.4171210000000  0.4274690000000  0.5136930000000 1.0
C      1  0.5874060000000  0.4265580000000  0.4839500000000 1.0
C      1  0.4194890000000  0.5719320000000  0.5187720000000 1.0
C      1  0.5840670000000  0.5677000000000  0.4809770000000 1.0
C      1  0.4457030000000  0.5482650000000  0.4781500000000 1.0
C      1  0.5546290000000  0.5491470000000  0.5239160000000 1.0
C      1  0.4478710000000  0.4527030000000  0.4754090000000 1.0
C      1  0.5726700000000  0.4644990000000  0.5148120000000 1.0
C      1  0.5566910000000  0.5498450000000  0.4703690000000 1.0
C      1  0.4355370000000  0.5449690000000  0.5074330000000 1.0
C      1  0.5678040000000  0.4530730000000  0.4866100000000 1.0
C      1  0.4358260000000  0.4539910000000  0.5052390000000 1.0
C      1  0.4719380000000  0.4172890000000  0.5137870000000 1.0
C      1  0.5371820000000  0.4163330000000  0.4792020000000 1.0
C      1  0.4677270000000  0.6009190000000  0.5348430000000 1.0
C      1  0.5340580000000  0.5846540000000  0.4736750000000 1.0
C      1  0.5327850000000  0.4177830000000  0.5303910000000 1.0
C      1  0.4624550000000  0.4045460000000  0.4833580000000 1.0
C      1  0.5291420000000  0.5835890000000  0.5209980000000 1.0
C      1  0.4669070000000  0.5815080000000  0.4827140000000 1.0
C      1  0.4785630000000  0.4902340000000  0.4498460000000 1.0
C      1  0.5170720000000  0.4821450000000  0.5561780000000 1.0
C      1  0.4811360000000  0.5222860000000  0.4397120000000 1.0
C      1  0.5123020000000  0.5133390000000  0.5524280000000 1.0
C      1  0.5119160000000  0.4834500000000  0.4516880000000 1.0
C      1  0.4868750000000  0.4825690000000  0.5547020000000 1.0
C      1  0.5106850000000  0.5140640000000  0.4500400000000 1.0
C      1  0.4805580000000  0.5131270000000  0.5473520000000 1.0
C      1  0.4101020000000  0.5181410000000  0.5562810000000 1.0
C      1  0.5901840000000  0.5081720000000  0.4490030000000 1.0
C      1  0.4073030000000  0.4854490000000  0.5468850000000 1.0
C      1  0.5863270000000  0.4769380000000  0.4420200000000 1.0
C      1  0.5895270000000  0.5098150000000  0.5472360000000 1.0
C      1  0.4046450000000  0.5239870000000  0.4495930000000 1.0
C      1  0.5870140000000  0.4807950000000  0.5492630000000 1.0
C      1  0.4138990000000  0.4920390000000  0.4567150000000 1.0
C      1  0.4896110000000  0.3902620000000  0.5244630000000 1.0
C      1  0.5208550000000  0.3920470000000  0.4893500000000 1.0
C      1  0.4823090000000  0.6166400000000  0.5163520000000 1.0
C      1  0.5144290000000  0.6080480000000  0.4815610000000 1.0
C      1  0.5194810000000  0.3927390000000  0.5190570000000 1.0
C      1  0.4900320000000  0.3886670000000  0.4925810000000 1.0
C      1  0.5142880000000  0.6099430000000  0.5122560000000 1.0
C      1  0.4838400000000  0.6072050000000  0.4872710000000 1.0
C      1  0.5342130000000  0.4414580000000  0.4482890000000 1.0
C      1  0.4631310000000  0.4506940000000  0.5538950000000 1.0
C      1  0.5338200000000  0.5558860000000  0.4459350000000 1.0
C      1  0.4750370000000  0.5551090000000  0.5474720000000 1.0
C      1  0.4731860000000  0.4429950000000  0.4550040000000 1.0
C      1  0.5329070000000  0.4455990000000  0.5591350000000 1.0
C      1  0.4655780000000  0.5564390000000  0.4517860000000 1.0
C      1  0.5332310000000  0.5553380000000  0.5485210000000 1.0
C      1  0.5098210000000  0.4912130000000  0.5060490000000 1.0
END
