TITL C-3289322-3858-72 -0.00246662632868486 125000 -950.25970567511 0 0 175 (C1) n - 1
REM
REM in /nfs/bkarasulu/CARBON/AIRSS/Generating-Clusters/AIREBO/with-SteepDescent/Higher-Symm/SD-CG/HFTN-CG
REM
REM
REM
REM
REM
REM ./C.cell (b20cbc046b6831c77cfcea5457e17084)
REM
REM compiler GCC version 9.2.1 20190827 (Red Hat 9.2.1-1)
REM options -cpp -mtune=generic -march=x86-64 -g -O0 -fpre-include=/usr/include/finclude/math-vector-fortran.h
REM seed -1259348240 644661267 -1566491115 -1266424092 705247791 2051074220 -353544465 1209626387 28592330 -1345937405 797363686 1340991641 -1846427694 1764740762 -618346487 -1664363269 -543404575 -918351258 -2130184382 -1663327135 -216494086 -209373695 -149998753 90556456 -1264324723 -1275381359 -2023042349 699151606 1638842238 67750068 546290531 155483659 -699135907
REM
CELL 1.54180   50.00000   50.00000   50.00000   90.00000   90.00000   90.00000
LATT -1
SFAC C  
C      1  0.5949090000000  0.4522810000000  0.5266650000000 1.0
C      1  0.5951890000000  0.4723090000000  0.4579330000000 1.0
C      1  0.5939730000000  0.5487270000000  0.4758100000000 1.0
C      1  0.5918240000000  0.5231920000000  0.5457100000000 1.0
C      1  0.4112120000000  0.4546670000000  0.5246900000000 1.0
C      1  0.4103610000000  0.4806460000000  0.4521640000000 1.0
C      1  0.4079490000000  0.5467590000000  0.4779240000000 1.0
C      1  0.4050770000000  0.5202990000000  0.5523670000000 1.0
C      1  0.5675890000000  0.4394660000000  0.4950430000000 1.0
C      1  0.5611120000000  0.5010560000000  0.4631860000000 1.0
C      1  0.5499120000000  0.5592880000000  0.5101460000000 1.0
C      1  0.5633150000000  0.4934010000000  0.5572930000000 1.0
C      1  0.4375800000000  0.4316430000000  0.4866560000000 1.0
C      1  0.4293210000000  0.5182700000000  0.4261970000000 1.0
C      1  0.4326550000000  0.5715280000000  0.5172570000000 1.0
C      1  0.4374970000000  0.4880940000000  0.5402580000000 1.0
C      1  0.4846090000000  0.4435930000000  0.4948180000000 1.0
C      1  0.4813270000000  0.5044520000000  0.4422520000000 1.0
C      1  0.4841230000000  0.5575280000000  0.4994540000000 1.0
C      1  0.4915900000000  0.4956140000000  0.5520750000000 1.0
C      1  0.5125460000000  0.4276430000000  0.4923990000000 1.0
C      1  0.5098520000000  0.5107810000000  0.4278970000000 1.0
C      1  0.5160130000000  0.5620580000000  0.5103590000000 1.0
C      1  0.5236430000000  0.5001400000000  0.5588370000000 1.0
C      1  0.4452530000000  0.4016620000000  0.4965450000000 1.0
C      1  0.4453910000000  0.5022890000000  0.4087450000000 1.0
C      1  0.4441330000000  0.5912670000000  0.5014750000000 1.0
C      1  0.4555170000000  0.4959600000000  0.6020890000000 1.0
C      1  0.5488570000000  0.4110440000000  0.4940900000000 1.0
C      1  0.5486140000000  0.5153270000000  0.4071480000000 1.0
C      1  0.5499530000000  0.5932140000000  0.5125360000000 1.0
C      1  0.5594140000000  0.5023850000000  0.5885350000000 1.0
C      1  0.5087240000000  0.4823190000000  0.4777470000000 1.0
C      1  0.5004130000000  0.5209280000000  0.4832180000000 1.0
C      1  0.5315990000000  0.5072000000000  0.5264920000000 1.0
C      1  0.5272380000000  0.4486400000000  0.5145790000000 1.0
C      1  0.4806620000000  0.4833680000000  0.4644530000000 1.0
C      1  0.4723460000000  0.5341340000000  0.4824490000000 1.0
C      1  0.4768940000000  0.5088070000000  0.5258540000000 1.0
C      1  0.4874150000000  0.4687360000000  0.5113200000000 1.0
C      1  0.3967010000000  0.4905040000000  0.5627420000000 1.0
C      1  0.4078970000000  0.4462460000000  0.4921140000000 1.0
C      1  0.4051090000000  0.5111660000000  0.4435230000000 1.0
C      1  0.4068420000000  0.5562200000000  0.5090370000000 1.0
C      1  0.6038720000000  0.4959550000000  0.5552730000000 1.0
C      1  0.6014440000000  0.4414230000000  0.4975390000000 1.0
C      1  0.5933590000000  0.5039240000000  0.4526950000000 1.0
C      1  0.6017860000000  0.5552620000000  0.5052570000000 1.0
C      1  0.5321870000000  0.5521130000000  0.5964410000000 1.0
C      1  0.5251260000000  0.4025250000000  0.5504500000000 1.0
C      1  0.5369000000000  0.4594210000000  0.4034120000000 1.0
C      1  0.5301000000000  0.5934670000000  0.4567490000000 1.0
C      1  0.4720650000000  0.5399620000000  0.5899840000000 1.0
C      1  0.4690810000000  0.4073090000000  0.5430710000000 1.0
C      1  0.4753140000000  0.4543970000000  0.4097480000000 1.0
C      1  0.4702940000000  0.5944000000000  0.4540240000000 1.0
C      1  0.5150800000000  0.5720870000000  0.5866270000000 1.0
C      1  0.5072770000000  0.4170730000000  0.5692940000000 1.0
C      1  0.5268230000000  0.4369700000000  0.4160680000000 1.0
C      1  0.5174600000000  0.5822020000000  0.4352240000000 1.0
C      1  0.4859370000000  0.5617810000000  0.5828130000000 1.0
C      1  0.4795560000000  0.4225470000000  0.5633450000000 1.0
C      1  0.4955280000000  0.4376540000000  0.4173120000000 1.0
C      1  0.4861840000000  0.5838890000000  0.4344690000000 1.0
C      1  0.5389970000000  0.4051860000000  0.4618580000000 1.0
C      1  0.5491530000000  0.5354670000000  0.4277850000000 1.0
C      1  0.5501620000000  0.5810780000000  0.5434810000000 1.0
C      1  0.5442860000000  0.4564740000000  0.5755290000000 1.0
C      1  0.4586780000000  0.4113430000000  0.4468300000000 1.0
C      1  0.4583400000000  0.5553690000000  0.4124100000000 1.0
C      1  0.4612960000000  0.5815130000000  0.5524720000000 1.0
C      1  0.4579390000000  0.4687000000000  0.5911570000000 1.0
C      1  0.6247270000000  0.4911210000000  0.5171160000000 1.0
C      1  0.6405770000000  0.4810530000000  0.4914680000000 1.0
C      1  0.6393300000000  0.5121170000000  0.4866330000000 1.0
C      1  0.6244030000000  0.5221610000000  0.5138080000000 1.0
C      1  0.3722520000000  0.4865140000000  0.5214140000000 1.0
C      1  0.3703120000000  0.4833240000000  0.4905780000000 1.0
C      1  0.3647700000000  0.5134470000000  0.4823930000000 1.0
C      1  0.3688150000000  0.5158680000000  0.5133180000000 1.0
C      1  0.5180360000000  0.4075540000000  0.5192770000000 1.0
C      1  0.5210290000000  0.4869100000000  0.4120480000000 1.0
C      1  0.5184210000000  0.5864130000000  0.4867540000000 1.0
C      1  0.5281790000000  0.5249410000000  0.5779350000000 1.0
C      1  0.4796850000000  0.4158460000000  0.5118940000000 1.0
C      1  0.4812560000000  0.4858720000000  0.4157540000000 1.0
C      1  0.4788570000000  0.5828000000000  0.4837650000000 1.0
C      1  0.4839410000000  0.5104190000000  0.5781270000000 1.0
C      1  0.4484940000000  0.5525190000000  0.5405940000000 1.0
C      1  0.4432220000000  0.4644370000000  0.5640660000000 1.0
C      1  0.4482410000000  0.4415640000000  0.4568390000000 1.0
C      1  0.4442050000000  0.5416770000000  0.4375370000000 1.0
C      1  0.5661740000000  0.5540040000000  0.5397930000000 1.0
C      1  0.5672550000000  0.4597200000000  0.5541590000000 1.0
C      1  0.5643850000000  0.4471230000000  0.4602690000000 1.0
C      1  0.5654180000000  0.5324720000000  0.4532970000000 1.0
C      1  0.4384710000000  0.5500590000000  0.4684530000000 1.0
C      1  0.4389110000000  0.5204960000000  0.5489950000000 1.0
C      1  0.4413370000000  0.4532330000000  0.5127190000000 1.0
C      1  0.4430840000000  0.4750190000000  0.4535850000000 1.0
C      1  0.5626300000000  0.5554640000000  0.4782430000000 1.0
C      1  0.5627240000000  0.5275130000000  0.5580390000000 1.0
C      1  0.5654670000000  0.4367940000000  0.5290140000000 1.0
C      1  0.5662820000000  0.4762410000000  0.4427190000000 1.0
C      1  0.4656920000000  0.5132700000000  0.3915610000000 1.0
C      1  0.4649880000000  0.6067850000000  0.5123360000000 1.0
C      1  0.4820090000000  0.5002020000000  0.6167450000000 1.0
C      1  0.4673790000000  0.3875530000000  0.4866020000000 1.0
C      1  0.5256240000000  0.5189880000000  0.3891100000000 1.0
C      1  0.5235910000000  0.6132330000000  0.5153400000000 1.0
C      1  0.5359220000000  0.4918050000000  0.6008610000000 1.0
C      1  0.5261360000000  0.3868890000000  0.4865480000000 1.0
C      1  0.4579090000000  0.4834350000000  0.5134680000000 1.0
C      1  0.4535630000000  0.4924930000000  0.4809440000000 1.0
C      1  0.4432000000000  0.5232250000000  0.4891010000000 1.0
C      1  0.4264550000000  0.5224510000000  0.5169940000000 1.0
C      1  0.5579910000000  0.4857770000000  0.5252640000000 1.0
C      1  0.5494860000000  0.4667340000000  0.5036430000000 1.0
C      1  0.5419330000000  0.4823610000000  0.4776360000000 1.0
C      1  0.5565010000000  0.5260540000000  0.5129890000000 1.0
C      1  0.4949140000000  0.5601620000000  0.5544560000000 1.0
C      1  0.4709120000000  0.4494190000000  0.5595600000000 1.0
C      1  0.5011180000000  0.4395650000000  0.4463360000000 1.0
C      1  0.4887290000000  0.5546400000000  0.4383420000000 1.0
C      1  0.5226030000000  0.5798620000000  0.5558640000000 1.0
C      1  0.5237280000000  0.4404270000000  0.5629260000000 1.0
C      1  0.5346010000000  0.4346260000000  0.4496450000000 1.0
C      1  0.5211150000000  0.5485350000000  0.4332070000000 1.0
C      1  0.4721420000000  0.5326700000000  0.4511360000000 1.0
C      1  0.4792350000000  0.5426670000000  0.5298650000000 1.0
C      1  0.4889540000000  0.4663320000000  0.5428290000000 1.0
C      1  0.4795590000000  0.4510990000000  0.4650670000000 1.0
C      1  0.5144970000000  0.5261070000000  0.4578960000000 1.0
C      1  0.5123150000000  0.5348410000000  0.5289320000000 1.0
C      1  0.5150590000000  0.4523020000000  0.5391850000000 1.0
C      1  0.5249790000000  0.4539300000000  0.4747790000000 1.0
C      1  0.4508500000000  0.5177820000000  0.5786900000000 1.0
C      1  0.4484940000000  0.4216630000000  0.5232500000000 1.0
C      1  0.4510640000000  0.4745220000000  0.4225280000000 1.0
C      1  0.4474840000000  0.5796530000000  0.4725530000000 1.0
C      1  0.5589710000000  0.5349850000000  0.5893480000000 1.0
C      1  0.5506490000000  0.4079770000000  0.5283160000000 1.0
C      1  0.5544870000000  0.4837450000000  0.4164020000000 1.0
C      1  0.5517510000000  0.5851340000000  0.4798060000000 1.0
C      1  0.5996530000000  0.4651890000000  0.5580120000000 1.0
C      1  0.5961110000000  0.4389250000000  0.4648270000000 1.0
C      1  0.5979400000000  0.5365410000000  0.4442510000000 1.0
C      1  0.5977840000000  0.5551790000000  0.5353340000000 1.0
C      1  0.4123910000000  0.4607070000000  0.5580450000000 1.0
C      1  0.4146800000000  0.4474820000000  0.4582980000000 1.0
C      1  0.3915650000000  0.5422090000000  0.4488090000000 1.0
C      1  0.4147340000000  0.5519850000000  0.5446980000000 1.0
C      1  0.5164260000000  0.4752510000000  0.5809370000000 1.0
C      1  0.5054320000000  0.4058420000000  0.4672670000000 1.0
C      1  0.5041930000000  0.5364140000000  0.4062830000000 1.0
C      1  0.5072470000000  0.5885840000000  0.5297580000000 1.0
C      1  0.4887150000000  0.4748300000000  0.5956700000000 1.0
C      1  0.4768920000000  0.3974490000000  0.4619120000000 1.0
C      1  0.4757100000000  0.5393040000000  0.3987990000000 1.0
C      1  0.4778670000000  0.5952560000000  0.5354550000000 1.0
C      1  0.3967460000000  0.5149470000000  0.4762690000000 1.0
C      1  0.3934870000000  0.5293270000000  0.5217040000000 1.0
C      1  0.4053440000000  0.4871000000000  0.5292170000000 1.0
C      1  0.3984010000000  0.4753170000000  0.4812970000000 1.0
C      1  0.6096740000000  0.5201950000000  0.4767500000000 1.0
C      1  0.5904930000000  0.5238290000000  0.5117410000000 1.0
C      1  0.5920110000000  0.4861160000000  0.5249550000000 1.0
C      1  0.6117300000000  0.4689470000000  0.4856420000000 1.0
C      1  0.4971770000000  0.4999290000000  0.3915770000000 1.0
C      1  0.5082370000000  0.5094000000000  0.5999590000000 1.0
C      1  0.4951550000000  0.6083270000000  0.4971960000000 1.0
C      1  0.4960060000000  0.3889020000000  0.5022020000000 1.0
C      1  0.5936720000000  0.4959980000000  0.4924530000000 1.0
C      1  0.4123310000000  0.4989750000000  0.4986700000000 1.0
C      1  0.5048760000000  0.4976940000000  0.5076500000000 1.0
END
