TITL C-3289334-2237-592 0.000793927346273744 125000 -770.75509712541 0 0 139 (C1) n - 1
REM
REM in /nfs/bkarasulu/CARBON/AIRSS/Generating-Clusters/AIREBO/with-SteepDescent/Higher-Symm/SD-CG/HFTN-CG
REM
REM
REM
REM
REM
REM ./C.cell (b20cbc046b6831c77cfcea5457e17084)
REM
REM compiler GCC version 9.2.1 20190827 (Red Hat 9.2.1-1)
REM options -cpp -mtune=generic -march=x86-64 -g -O0 -fpre-include=/usr/include/finclude/math-vector-fortran.h
REM seed 1966198437 -33386124 55421903 1685705123 -358192062 2033891087 1538834030 -943635350 1784929588 241412979 -1444213278 829327699 -2088593965 1567273124 241973526 1051473593 -1698219603 850989816 2015857686 944578544 286424637 -858676800 -581921086 -76432407 -789579771 150834831 -2069466644 -1318112549 -42471237 -1562553619 542930667 72451907 981070637
REM
CELL 1.54180   50.00000   50.00000   50.00000   90.00000   90.00000   90.00000
LATT -1
SFAC C  
C      1  0.4650570000000  0.4889070000000  0.5212370000000 1.0
C      1  0.5098190000000  0.4814020000000  0.5417150000000 1.0
C      1  0.5370620000000  0.4909260000000  0.4918510000000 1.0
C      1  0.4837690000000  0.4905440000000  0.4554730000000 1.0
C      1  0.4713480000000  0.5185040000000  0.5261940000000 1.0
C      1  0.5235910000000  0.5091490000000  0.5400810000000 1.0
C      1  0.5333560000000  0.5189070000000  0.4737860000000 1.0
C      1  0.4770770000000  0.5199040000000  0.4643950000000 1.0
C      1  0.4344420000000  0.5563670000000  0.4788970000000 1.0
C      1  0.4819140000000  0.5569090000000  0.5577120000000 1.0
C      1  0.5623700000000  0.5529510000000  0.5166850000000 1.0
C      1  0.5142280000000  0.5524920000000  0.4383770000000 1.0
C      1  0.4445820000000  0.4485260000000  0.4820480000000 1.0
C      1  0.4694220000000  0.4469320000000  0.5697430000000 1.0
C      1  0.5635670000000  0.4394300000000  0.5278710000000 1.0
C      1  0.5267830000000  0.4457680000000  0.4395290000000 1.0
C      1  0.4760080000000  0.4506850000000  0.4577820000000 1.0
C      1  0.4526160000000  0.4307870000000  0.5281090000000 1.0
C      1  0.5192680000000  0.4360190000000  0.5469250000000 1.0
C      1  0.5472530000000  0.4395960000000  0.4804190000000 1.0
C      1  0.4543360000000  0.5561910000000  0.4447480000000 1.0
C      1  0.4468160000000  0.5545020000000  0.5392110000000 1.0
C      1  0.5426070000000  0.5530330000000  0.5513840000000 1.0
C      1  0.5550040000000  0.5536600000000  0.4588630000000 1.0
C      1  0.4722190000000  0.4822680000000  0.4927650000000 1.0
C      1  0.4809920000000  0.4702100000000  0.5393870000000 1.0
C      1  0.5346500000000  0.4772880000000  0.5188230000000 1.0
C      1  0.5149950000000  0.4835070000000  0.4670460000000 1.0
C      1  0.4679760000000  0.5317020000000  0.4949930000000 1.0
C      1  0.5020550000000  0.5189470000000  0.5179210000000 1.0
C      1  0.5327380000000  0.5281640000000  0.5065340000000 1.0
C      1  0.5043580000000  0.5311130000000  0.4785600000000 1.0
C      1  0.5943400000000  0.4509680000000  0.4801240000000 1.0
C      1  0.4838140000000  0.4487510000000  0.4096680000000 1.0
C      1  0.4088760000000  0.4465270000000  0.5157730000000 1.0
C      1  0.5160730000000  0.4446230000000  0.5931420000000 1.0
C      1  0.5913350000000  0.5484190000000  0.4742040000000 1.0
C      1  0.4840490000000  0.5561310000000  0.4125010000000 1.0
C      1  0.4093140000000  0.5559720000000  0.5096360000000 1.0
C      1  0.5174980000000  0.5511070000000  0.5821570000000 1.0
C      1  0.4487300000000  0.5119620000000  0.4147070000000 1.0
C      1  0.4148610000000  0.5136330000000  0.5439590000000 1.0
C      1  0.5556790000000  0.5160740000000  0.5927210000000 1.0
C      1  0.5854010000000  0.5157160000000  0.4515350000000 1.0
C      1  0.4698270000000  0.4807600000000  0.4280540000000 1.0
C      1  0.4138550000000  0.4812410000000  0.5431920000000 1.0
C      1  0.5545350000000  0.4828610000000  0.5904010000000 1.0
C      1  0.5863650000000  0.4838430000000  0.4568130000000 1.0
C      1  0.5021270000000  0.5598040000000  0.4819540000000 1.0
C      1  0.4747650000000  0.5628400000000  0.4957130000000 1.0
C      1  0.4903720000000  0.5693150000000  0.5206600000000 1.0
C      1  0.5189320000000  0.5550170000000  0.5192100000000 1.0
C      1  0.5188780000000  0.4545010000000  0.4843580000000 1.0
C      1  0.4865140000000  0.4529520000000  0.4900470000000 1.0
C      1  0.4836610000000  0.4408260000000  0.5224280000000 1.0
C      1  0.5157470000000  0.4508040000000  0.5171950000000 1.0
C      1  0.4697900000000  0.4058900000000  0.4928100000000 1.0
C      1  0.4969290000000  0.4097950000000  0.5267120000000 1.0
C      1  0.5354370000000  0.4065260000000  0.5059410000000 1.0
C      1  0.5097570000000  0.4075410000000  0.4638330000000 1.0
C      1  0.4660710000000  0.5942710000000  0.4932430000000 1.0
C      1  0.4957360000000  0.5989210000000  0.5340410000000 1.0
C      1  0.5270980000000  0.5864090000000  0.5090180000000 1.0
C      1  0.5121000000000  0.5889350000000  0.4721850000000 1.0
C      1  0.5070790000000  0.5272310000000  0.5926130000000 1.0
C      1  0.5960970000000  0.5277030000000  0.5007490000000 1.0
C      1  0.4929950000000  0.5269160000000  0.4072020000000 1.0
C      1  0.4032450000000  0.5271130000000  0.5000230000000 1.0
C      1  0.4942850000000  0.4705130000000  0.6004400000000 1.0
C      1  0.6024730000000  0.4709140000000  0.5064320000000 1.0
C      1  0.5079440000000  0.4708410000000  0.3994760000000 1.0
C      1  0.4087270000000  0.4697620000000  0.4903590000000 1.0
C      1  0.5191240000000  0.4157940000000  0.5742660000000 1.0
C      1  0.5759820000000  0.4227990000000  0.4734190000000 1.0
C      1  0.4759810000000  0.4261990000000  0.4338850000000 1.0
C      1  0.4245050000000  0.4159340000000  0.5160340000000 1.0
C      1  0.5309890000000  0.5796120000000  0.5694430000000 1.0
C      1  0.5749720000000  0.5783230000000  0.4683850000000 1.0
C      1  0.4759520000000  0.5793750000000  0.4332070000000 1.0
C      1  0.4283880000000  0.5786140000000  0.5238780000000 1.0
C      1  0.4785980000000  0.4895500000000  0.5865760000000 1.0
C      1  0.5838420000000  0.4859810000000  0.5203230000000 1.0
C      1  0.5211530000000  0.4890490000000  0.4159660000000 1.0
C      1  0.4262280000000  0.4887790000000  0.4788690000000 1.0
C      1  0.4822200000000  0.5167960000000  0.5819700000000 1.0
C      1  0.5807530000000  0.5131980000000  0.5186490000000 1.0
C      1  0.5175830000000  0.5163380000000  0.4178150000000 1.0
C      1  0.4183460000000  0.5158530000000  0.4786870000000 1.0
C      1  0.4538870000000  0.4283510000000  0.5584470000000 1.0
C      1  0.5412430000000  0.4224730000000  0.5286360000000 1.0
C      1  0.5295940000000  0.4260950000000  0.4585400000000 1.0
C      1  0.4614030000000  0.4248550000000  0.4744630000000 1.0
C      1  0.4675290000000  0.5814130000000  0.5423580000000 1.0
C      1  0.5504160000000  0.5774230000000  0.5290170000000 1.0
C      1  0.5222640000000  0.5784290000000  0.4421080000000 1.0
C      1  0.4509880000000  0.5799990000000  0.4688030000000 1.0
C      1  0.5625490000000  0.4861180000000  0.4386660000000 1.0
C      1  0.4388300000000  0.4856890000000  0.4355590000000 1.0
C      1  0.4344470000000  0.4865420000000  0.5650890000000 1.0
C      1  0.5615340000000  0.4809340000000  0.5612870000000 1.0
C      1  0.5638300000000  0.5161390000000  0.4310370000000 1.0
C      1  0.4233140000000  0.5156520000000  0.4323590000000 1.0
C      1  0.4346670000000  0.5175240000000  0.5664530000000 1.0
C      1  0.5621500000000  0.5108350000000  0.5630390000000 1.0
C      1  0.5613770000000  0.4710160000000  0.5337760000000 1.0
C      1  0.5346520000000  0.4771020000000  0.4400320000000 1.0
C      1  0.4541470000000  0.4759130000000  0.4643070000000 1.0
C      1  0.4612270000000  0.4757380000000  0.5664960000000 1.0
C      1  0.5529090000000  0.5255340000000  0.5338010000000 1.0
C      1  0.5373450000000  0.5300860000000  0.4418790000000 1.0
C      1  0.4300250000000  0.5346950000000  0.4551400000000 1.0
C      1  0.4631600000000  0.5306060000000  0.5570630000000 1.0
C      1  0.4967270000000  0.4466990000000  0.5675810000000 1.0
C      1  0.5692100000000  0.4493610000000  0.5011830000000 1.0
C      1  0.5002860000000  0.4574120000000  0.4363340000000 1.0
C      1  0.4391810000000  0.4516640000000  0.5086940000000 1.0
C      1  0.5100140000000  0.5518410000000  0.5505090000000 1.0
C      1  0.5632880000000  0.5478260000000  0.4900680000000 1.0
C      1  0.4849430000000  0.5419200000000  0.4433880000000 1.0
C      1  0.4413380000000  0.5446410000000  0.5079790000000 1.0
C      1  0.5453490000000  0.5887100000000  0.4804180000000 1.0
C      1  0.4877480000000  0.5970850000000  0.4498910000000 1.0
C      1  0.4424540000000  0.5997130000000  0.5136780000000 1.0
C      1  0.5168190000000  0.5995390000000  0.5572710000000 1.0
C      1  0.5586570000000  0.4023040000000  0.4886120000000 1.0
C      1  0.4898840000000  0.4043900000000  0.4434100000000 1.0
C      1  0.4468360000000  0.3969600000000  0.5077700000000 1.0
C      1  0.5019800000000  0.4006720000000  0.5525330000000 1.0
C      1  0.3921780000000  0.4760130000000  0.5185850000000 1.0
C      1  0.5264040000000  0.4753020000000  0.6035420000000 1.0
C      1  0.6111740000000  0.4808180000000  0.4765050000000 1.0
C      1  0.4764920000000  0.4784940000000  0.3949060000000 1.0
C      1  0.3964660000000  0.5094730000000  0.5212000000000 1.0
C      1  0.5267860000000  0.5090460000000  0.6011180000000 1.0
C      1  0.6068790000000  0.5147170000000  0.4736450000000 1.0
C      1  0.4712710000000  0.5091550000000  0.4001430000000 1.0
C      1  0.4985410000000  0.6026370000000  0.5002020000000 1.0
C      1  0.5034760000000  0.4012890000000  0.4952900000000 1.0
C      1  0.4983240000000  0.5002540000000  0.4915030000000 1.0
END
