TITL C-3289335-9438-733 0.0315808704692074 125000 -747.90365591374 0 0 136 (C1) n - 1
REM
REM in /nfs/bkarasulu/CARBON/AIRSS/Generating-Clusters/AIREBO/with-SteepDescent/Higher-Symm/SD-CG/HFTN-CG
REM
REM
REM
REM
REM
REM ./C.cell (b20cbc046b6831c77cfcea5457e17084)
REM
REM compiler GCC version 9.2.1 20190827 (Red Hat 9.2.1-1)
REM options -cpp -mtune=generic -march=x86-64 -g -O0 -fpre-include=/usr/include/finclude/math-vector-fortran.h
REM seed 1340600562 -2019963435 968420771 -180615455 -888984017 -390172012 -1628500169 -2052243814 1239938218 1995775650 2054029575 -1009762447 -63698633 786343016 1168106693 1300581152 179681285 1359041145 777593172 -7673714 2048150018 -1401450500 774617336 1801902813 -1946573274 -768725178 121202952 -1868398058 186723541 1857139423 -623204662 -204128894 262864847
REM
CELL 1.54180   50.00000   50.00000   50.00000   90.00000   90.00000   90.00000
LATT -1
SFAC C  
C      1  0.3923140000000  0.4739580000000  0.4753580000000 1.0
C      1  0.4612490000000  0.4062740000000  0.4635000000000 1.0
C      1  0.4558740000000  0.4715270000000  0.4021750000000 1.0
C      1  0.5855280000000  0.4626690000000  0.5257300000000 1.0
C      1  0.4046540000000  0.5316990000000  0.5228170000000 1.0
C      1  0.5991340000000  0.5410380000000  0.4737200000000 1.0
C      1  0.5230490000000  0.4020070000000  0.5426320000000 1.0
C      1  0.4713360000000  0.5904470000000  0.5303990000000 1.0
C      1  0.5217900000000  0.5856480000000  0.4695880000000 1.0
C      1  0.5455490000000  0.4825110000000  0.5934650000000 1.0
C      1  0.4648420000000  0.5263910000000  0.5996030000000 1.0
C      1  0.5406160000000  0.5284870000000  0.4035540000000 1.0
C      1  0.4817270000000  0.5484110000000  0.4141130000000 1.0
C      1  0.4380910000000  0.4865340000000  0.5482970000000 1.0
C      1  0.5360600000000  0.4460630000000  0.4717770000000 1.0
C      1  0.5119720000000  0.5427230000000  0.5610370000000 1.0
C      1  0.4923130000000  0.4568640000000  0.5712180000000 1.0
C      1  0.5290660000000  0.4527390000000  0.4387480000000 1.0
C      1  0.5892760000000  0.4864950000000  0.4469060000000 1.0
C      1  0.4447490000000  0.5126070000000  0.4576070000000 1.0
C      1  0.5658150000000  0.5236850000000  0.5465070000000 1.0
C      1  0.4498850000000  0.4339620000000  0.5075720000000 1.0
C      1  0.5474970000000  0.5440100000000  0.5258700000000 1.0
C      1  0.4435750000000  0.5747870000000  0.4780910000000 1.0
C      1  0.5971430000000  0.5332330000000  0.5047680000000 1.0
C      1  0.5012610000000  0.5789630000000  0.5229030000000 1.0
C      1  0.5447040000000  0.5098140000000  0.5961910000000 1.0
C      1  0.4035780000000  0.5382270000000  0.4955870000000 1.0
C      1  0.5842080000000  0.4657460000000  0.4945030000000 1.0
C      1  0.4109330000000  0.4784950000000  0.5018490000000 1.0
C      1  0.4942170000000  0.5717790000000  0.4623650000000 1.0
C      1  0.4913360000000  0.4111060000000  0.4668440000000 1.0
C      1  0.4986770000000  0.4162610000000  0.5269390000000 1.0
C      1  0.4702620000000  0.4978820000000  0.4108510000000 1.0
C      1  0.5438590000000  0.4975250000000  0.4138390000000 1.0
C      1  0.4679780000000  0.4946430000000  0.5935100000000 1.0
C      1  0.5344210000000  0.5188520000000  0.4533980000000 1.0
C      1  0.4425630000000  0.5436990000000  0.5205510000000 1.0
C      1  0.5208800000000  0.4526040000000  0.5305970000000 1.0
C      1  0.4667510000000  0.5139980000000  0.5531190000000 1.0
C      1  0.5417250000000  0.4845790000000  0.5537140000000 1.0
C      1  0.4565240000000  0.4665340000000  0.4534620000000 1.0
C      1  0.5478910000000  0.5361470000000  0.4867430000000 1.0
C      1  0.4407260000000  0.4645500000000  0.4791860000000 1.0
C      1  0.5396550000000  0.4683990000000  0.5070210000000 1.0
C      1  0.4794010000000  0.4463520000000  0.4522900000000 1.0
C      1  0.5238710000000  0.5457310000000  0.4682650000000 1.0
C      1  0.4733940000000  0.5418400000000  0.5347660000000 1.0
C      1  0.4676280000000  0.4877670000000  0.5314760000000 1.0
C      1  0.5186300000000  0.4734240000000  0.4828970000000 1.0
C      1  0.4928430000000  0.5141180000000  0.4818470000000 1.0
C      1  0.5231620000000  0.5049690000000  0.4806210000000 1.0
C      1  0.4737110000000  0.4948690000000  0.4611440000000 1.0
C      1  0.5191970000000  0.4955860000000  0.5325330000000 1.0
C      1  0.4606000000000  0.4662270000000  0.5060820000000 1.0
C      1  0.5332350000000  0.5170690000000  0.5107770000000 1.0
C      1  0.4824540000000  0.5108220000000  0.5113350000000 1.0
C      1  0.5019090000000  0.5234000000000  0.5366970000000 1.0
C      1  0.4962280000000  0.4719450000000  0.5409940000000 1.0
C      1  0.4846860000000  0.4712820000000  0.4830560000000 1.0
C      1  0.5395350000000  0.5865470000000  0.4907870000000 1.0
C      1  0.4925550000000  0.5400180000000  0.5888290000000 1.0
C      1  0.5716500000000  0.4910520000000  0.5389190000000 1.0
C      1  0.4539520000000  0.5727330000000  0.5070010000000 1.0
C      1  0.5439590000000  0.4352270000000  0.5030380000000 1.0
C      1  0.4433800000000  0.4157510000000  0.4825680000000 1.0
C      1  0.5088730000000  0.5380250000000  0.4109280000000 1.0
C      1  0.4994250000000  0.4605520000000  0.4309080000000 1.0
C      1  0.5194480000000  0.4643020000000  0.5903150000000 1.0
C      1  0.4175350000000  0.4934240000000  0.4647270000000 1.0
C      1  0.5904720000000  0.5112540000000  0.4610160000000 1.0
C      1  0.4114860000000  0.5066030000000  0.5405010000000 1.0
C      1  0.5665920000000  0.4712970000000  0.5732560000000 1.0
C      1  0.5729520000000  0.5560910000000  0.4826090000000 1.0
C      1  0.4755020000000  0.5693480000000  0.5519420000000 1.0
C      1  0.4369980000000  0.4628030000000  0.4262540000000 1.0
C      1  0.5564190000000  0.5308820000000  0.4319280000000 1.0
C      1  0.4453000000000  0.5220220000000  0.5757170000000 1.0
C      1  0.4170120000000  0.5555210000000  0.5396180000000 1.0
C      1  0.5841960000000  0.4364020000000  0.5323760000000 1.0
C      1  0.4137040000000  0.4505850000000  0.4737500000000 1.0
C      1  0.5304180000000  0.5678620000000  0.4458390000000 1.0
C      1  0.4681550000000  0.4193940000000  0.4356120000000 1.0
C      1  0.5263400000000  0.4298240000000  0.5522600000000 1.0
C      1  0.5481740000000  0.4652760000000  0.4212230000000 1.0
C      1  0.4209980000000  0.5312830000000  0.4688700000000 1.0
C      1  0.4664510000000  0.4209090000000  0.5281690000000 1.0
C      1  0.4688570000000  0.4627890000000  0.5893760000000 1.0
C      1  0.5320900000000  0.5369540000000  0.5843940000000 1.0
C      1  0.4624370000000  0.5304190000000  0.4059170000000 1.0
C      1  0.5977360000000  0.5274650000000  0.5371090000000 1.0
C      1  0.4113710000000  0.4743370000000  0.5338650000000 1.0
C      1  0.5934980000000  0.4647130000000  0.4626360000000 1.0
C      1  0.5247350000000  0.4140100000000  0.4727830000000 1.0
C      1  0.4615520000000  0.5790720000000  0.4580620000000 1.0
C      1  0.5326400000000  0.5732280000000  0.5167680000000 1.0
C      1  0.5683650000000  0.4481610000000  0.4705880000000 1.0
C      1  0.4777720000000  0.5656890000000  0.4342430000000 1.0
C      1  0.4440750000000  0.4795720000000  0.5763150000000 1.0
C      1  0.4244910000000  0.4504500000000  0.5153930000000 1.0
C      1  0.5797410000000  0.5531820000000  0.5247080000000 1.0
C      1  0.4189650000000  0.5615920000000  0.4760390000000 1.0
C      1  0.5200480000000  0.5681780000000  0.5476480000000 1.0
C      1  0.4845230000000  0.4349860000000  0.5507760000000 1.0
C      1  0.5132800000000  0.4261550000000  0.4456780000000 1.0
C      1  0.5720110000000  0.4849080000000  0.4264410000000 1.0
C      1  0.4436460000000  0.5125120000000  0.4248640000000 1.0
C      1  0.5608120000000  0.5282400000000  0.5753390000000 1.0
C      1  0.4201060000000  0.5144810000000  0.5705230000000 1.0
C      1  0.5667510000000  0.4210750000000  0.5174720000000 1.0
C      1  0.5312890000000  0.5597280000000  0.4200770000000 1.0
C      1  0.5879290000000  0.5378870000000  0.4426750000000 1.0
C      1  0.4234410000000  0.4897370000000  0.4336470000000 1.0
C      1  0.5926410000000  0.4903310000000  0.5656660000000 1.0
C      1  0.4172490000000  0.4228890000000  0.4736620000000 1.0
C      1  0.5662470000000  0.5822930000000  0.4835390000000 1.0
C      1  0.4263360000000  0.5826840000000  0.5242880000000 1.0
C      1  0.4857320000000  0.5685350000000  0.5765520000000 1.0
C      1  0.5257060000000  0.4360070000000  0.5782610000000 1.0
C      1  0.4851850000000  0.4339210000000  0.4151980000000 1.0
C      1  0.4959840000000  0.4405490000000  0.4810300000000 1.0
C      1  0.4918720000000  0.4916360000000  0.4322870000000 1.0
C      1  0.4368740000000  0.4955140000000  0.4927130000000 1.0
C      1  0.5112460000000  0.4338880000000  0.5047420000000 1.0
C      1  0.4842310000000  0.5572840000000  0.5061170000000 1.0
C      1  0.4937540000000  0.5455010000000  0.4804820000000 1.0
C      1  0.5134940000000  0.4907550000000  0.5715470000000 1.0
C      1  0.4908710000000  0.5090040000000  0.5749970000000 1.0
C      1  0.5158090000000  0.5098410000000  0.4282810000000 1.0
C      1  0.5648880000000  0.4902210000000  0.5056020000000 1.0
C      1  0.4516270000000  0.5159420000000  0.5082040000000 1.0
C      1  0.5731220000000  0.5154990000000  0.4899930000000 1.0
C      1  0.5739920000000  0.4449020000000  0.5788640000000 1.0
C      1  0.5688800000000  0.5613930000000  0.4332210000000 1.0
C      1  0.4161720000000  0.5540840000000  0.5669750000000 1.0
C      1  0.4198700000000  0.4417130000000  0.4197180000000 1.0
END
