TITL C-3289326-3776-252 -0.00525684463706886 125000 -1035.25536981598 0 0 192 (C1) n - 1
REM
REM in /nfs/bkarasulu/CARBON/AIRSS/Generating-Clusters/AIREBO/with-SteepDescent/Higher-Symm/SD-CG/HFTN-CG
REM
REM
REM
REM
REM
REM ./C.cell (b20cbc046b6831c77cfcea5457e17084)
REM
REM compiler GCC version 9.2.1 20190827 (Red Hat 9.2.1-1)
REM options -cpp -mtune=generic -march=x86-64 -g -O0 -fpre-include=/usr/include/finclude/math-vector-fortran.h
REM seed 1385222961 1669570850 661943788 802729852 1498241223 -1648587761 472340004 -1560550477 -1031672966 915183265 -547976456 -2030265528 -651787611 -2089190467 -1288248515 -1490043219 1525293585 903696520 -1143141425 -1859519783 1923365492 1938492230 -99703833 1248770673 651344605 2118564115 1195534426 303636351 -1165323703 -1557250515 -469520973 1940463365 1780518224
REM
CELL 1.54180   50.00000   50.00000   50.00000   90.00000   90.00000   90.00000
LATT -1
SFAC C  
C      1  0.4572970000000  0.5701200000000  0.5169230000000 1.0
C      1  0.5311170000000  0.5717400000000  0.5274950000000 1.0
C      1  0.5072030000000  0.5730370000000  0.4598000000000 1.0
C      1  0.5791960000000  0.4336950000000  0.5122570000000 1.0
C      1  0.4759840000000  0.4399960000000  0.4270140000000 1.0
C      1  0.4478900000000  0.4446250000000  0.5547920000000 1.0
C      1  0.5226340000000  0.4815950000000  0.6142460000000 1.0
C      1  0.5821890000000  0.4774100000000  0.4140840000000 1.0
C      1  0.3991040000000  0.4757890000000  0.4511880000000 1.0
C      1  0.5495390000000  0.5186960000000  0.4076870000000 1.0
C      1  0.3995340000000  0.5120100000000  0.4958180000000 1.0
C      1  0.5496890000000  0.5169580000000  0.5888110000000 1.0
C      1  0.4219610000000  0.4528340000000  0.4372590000000 1.0
C      1  0.4720520000000  0.4596380000000  0.5865960000000 1.0
C      1  0.5962180000000  0.4481650000000  0.4680050000000 1.0
C      1  0.4733980000000  0.5216440000000  0.5720630000000 1.0
C      1  0.5724750000000  0.5142630000000  0.4823220000000 1.0
C      1  0.4494650000000  0.5193790000000  0.4431370000000 1.0
C      1  0.5947780000000  0.5377090000000  0.5174240000000 1.0
C      1  0.4539380000000  0.5365370000000  0.4074960000000 1.0
C      1  0.4380900000000  0.5397530000000  0.5863440000000 1.0
C      1  0.5273920000000  0.4732800000000  0.4802740000000 1.0
C      1  0.4724470000000  0.4718240000000  0.4863950000000 1.0
C      1  0.5049710000000  0.4706320000000  0.5312300000000 1.0
C      1  0.4762770000000  0.6018520000000  0.5523880000000 1.0
C      1  0.5644360000000  0.5933850000000  0.4932070000000 1.0
C      1  0.4591500000000  0.5903790000000  0.4504730000000 1.0
C      1  0.5199210000000  0.4912530000000  0.5817400000000 1.0
C      1  0.5693770000000  0.4863760000000  0.4444910000000 1.0
C      1  0.4269420000000  0.4926790000000  0.4623630000000 1.0
C      1  0.4435230000000  0.5831280000000  0.4756510000000 1.0
C      1  0.5030740000000  0.5914870000000  0.5590820000000 1.0
C      1  0.5518810000000  0.5849640000000  0.4673000000000 1.0
C      1  0.4700890000000  0.4668510000000  0.4108960000000 1.0
C      1  0.4411330000000  0.4730940000000  0.5652210000000 1.0
C      1  0.5908050000000  0.4631870000000  0.5180810000000 1.0
C      1  0.4290250000000  0.5512860000000  0.5154960000000 1.0
C      1  0.5424630000000  0.5572590000000  0.5560040000000 1.0
C      1  0.5230580000000  0.5526520000000  0.4376360000000 1.0
C      1  0.4788180000000  0.6209600000000  0.5326000000000 1.0
C      1  0.5524060000000  0.6186180000000  0.5003230000000 1.0
C      1  0.4861610000000  0.5995040000000  0.4634410000000 1.0
C      1  0.4679700000000  0.4928800000000  0.5644970000000 1.0
C      1  0.5734350000000  0.4899180000000  0.5062060000000 1.0
C      1  0.4612440000000  0.4881520000000  0.4366000000000 1.0
C      1  0.4087030000000  0.4729640000000  0.5615380000000 1.0
C      1  0.5897240000000  0.4689470000000  0.5478150000000 1.0
C      1  0.4950720000000  0.4666340000000  0.3933110000000 1.0
C      1  0.4568270000000  0.4323720000000  0.4722550000000 1.0
C      1  0.4952610000000  0.4278400000000  0.5470780000000 1.0
C      1  0.5502700000000  0.4242450000000  0.4732220000000 1.0
C      1  0.5501100000000  0.4439150000000  0.5215230000000 1.0
C      1  0.5028690000000  0.4462370000000  0.4470670000000 1.0
C      1  0.4549740000000  0.4465250000000  0.5231390000000 1.0
C      1  0.5499930000000  0.4788340000000  0.4104330000000 1.0
C      1  0.4136640000000  0.4752420000000  0.5012910000000 1.0
C      1  0.5504100000000  0.4656880000000  0.5812780000000 1.0
C      1  0.5564280000000  0.5459310000000  0.5848670000000 1.0
C      1  0.5431410000000  0.5476800000000  0.4106480000000 1.0
C      1  0.3981710000000  0.5403100000000  0.5063530000000 1.0
C      1  0.5524060000000  0.5581430000000  0.4539490000000 1.0
C      1  0.4322220000000  0.5552920000000  0.4818640000000 1.0
C      1  0.5132740000000  0.5656530000000  0.5713100000000 1.0
C      1  0.4980460000000  0.5163680000000  0.5396680000000 1.0
C      1  0.5026500000000  0.5109640000000  0.5064130000000 1.0
C      1  0.4789640000000  0.5165420000000  0.4870770000000 1.0
C      1  0.5834580000000  0.4988950000000  0.5513680000000 1.0
C      1  0.5079120000000  0.4948820000000  0.3860580000000 1.0
C      1  0.3949710000000  0.4972860000000  0.5460620000000 1.0
C      1  0.4718360000000  0.5706830000000  0.5453430000000 1.0
C      1  0.5498670000000  0.5664250000000  0.5025890000000 1.0
C      1  0.4739580000000  0.5616830000000  0.4611210000000 1.0
C      1  0.4747860000000  0.4343870000000  0.5662700000000 1.0
C      1  0.5775480000000  0.4280770000000  0.4830550000000 1.0
C      1  0.4481140000000  0.4313850000000  0.4394330000000 1.0
C      1  0.6191420000000  0.4975590000000  0.4729900000000 1.0
C      1  0.4301930000000  0.5106300000000  0.4093700000000 1.0
C      1  0.4518040000000  0.5108320000000  0.6037850000000 1.0
C      1  0.4232650000000  0.4508970000000  0.5181270000000 1.0
C      1  0.5545080000000  0.4506500000000  0.5515230000000 1.0
C      1  0.5272010000000  0.4616590000000  0.4289200000000 1.0
C      1  0.4446880000000  0.5228230000000  0.5255590000000 1.0
C      1  0.5387710000000  0.5285600000000  0.5381100000000 1.0
C      1  0.5158820000000  0.5219090000000  0.4503310000000 1.0
C      1  0.5023890000000  0.3974010000000  0.5196930000000 1.0
C      1  0.5189030000000  0.3965490000000  0.4899810000000 1.0
C      1  0.4850350000000  0.3995510000000  0.4900350000000 1.0
C      1  0.5480560000000  0.4079880000000  0.5508150000000 1.0
C      1  0.5185990000000  0.4088150000000  0.4343230000000 1.0
C      1  0.4340030000000  0.4125990000000  0.5172490000000 1.0
C      1  0.4258550000000  0.4820280000000  0.5942520000000 1.0
C      1  0.6193530000000  0.4651600000000  0.5072640000000 1.0
C      1  0.4443500000000  0.4778860000000  0.3937280000000 1.0
C      1  0.4417300000000  0.4051410000000  0.4859260000000 1.0
C      1  0.5147330000000  0.4054910000000  0.5578060000000 1.0
C      1  0.5453860000000  0.4127620000000  0.4475120000000 1.0
C      1  0.3828860000000  0.5592340000000  0.4904610000000 1.0
C      1  0.5461350000000  0.5620580000000  0.6053530000000 1.0
C      1  0.5659690000000  0.5631190000000  0.4120790000000 1.0
C      1  0.4760640000000  0.5357230000000  0.5223840000000 1.0
C      1  0.5188580000000  0.5369850000000  0.5128790000000 1.0
C      1  0.5008530000000  0.5373350000000  0.4766490000000 1.0
C      1  0.5201550000000  0.4951120000000  0.5493550000000 1.0
C      1  0.5430220000000  0.4950260000000  0.4621440000000 1.0
C      1  0.4514160000000  0.4982260000000  0.4821450000000 1.0
C      1  0.5345490000000  0.5007890000000  0.4313100000000 1.0
C      1  0.4304220000000  0.5022730000000  0.5049670000000 1.0
C      1  0.5513680000000  0.5049390000000  0.5587990000000 1.0
C      1  0.4293770000000  0.5644840000000  0.4212840000000 1.0
C      1  0.4616130000000  0.5653450000000  0.6018910000000 1.0
C      1  0.6002310000000  0.5427430000000  0.4855240000000 1.0
C      1  0.4086180000000  0.4370820000000  0.4907290000000 1.0
C      1  0.5323020000000  0.4327790000000  0.5679620000000 1.0
C      1  0.5554400000000  0.4499520000000  0.4370320000000 1.0
C      1  0.3999400000000  0.5335680000000  0.4507070000000 1.0
C      1  0.5047510000000  0.5377930000000  0.6103970000000 1.0
C      1  0.5917020000000  0.5298690000000  0.4374730000000 1.0
C      1  0.6161090000000  0.4660340000000  0.4769660000000 1.0
C      1  0.4304710000000  0.4799020000000  0.4247060000000 1.0
C      1  0.4577310000000  0.4774280000000  0.6013040000000 1.0
C      1  0.5160920000000  0.5976190000000  0.5337890000000 1.0
C      1  0.5269120000000  0.5999550000000  0.4663680000000 1.0
C      1  0.4567960000000  0.5941640000000  0.4981230000000 1.0
C      1  0.4243890000000  0.5089650000000  0.5490550000000 1.0
C      1  0.5979000000000  0.5077790000000  0.5216520000000 1.0
C      1  0.4903770000000  0.5011180000000  0.4127350000000 1.0
C      1  0.3918400000000  0.5250870000000  0.5653750000000 1.0
C      1  0.5926240000000  0.5282470000000  0.5631070000000 1.0
C      1  0.4926390000000  0.5227750000000  0.3792450000000 1.0
C      1  0.5174300000000  0.4573610000000  0.5828570000000 1.0
C      1  0.5678260000000  0.4612570000000  0.4634190000000 1.0
C      1  0.4222200000000  0.4600020000000  0.4705030000000 1.0
C      1  0.5220230000000  0.5143680000000  0.6060420000000 1.0
C      1  0.5761980000000  0.5093960000000  0.4224550000000 1.0
C      1  0.3977130000000  0.5072750000000  0.4645850000000 1.0
C      1  0.4036000000000  0.5543260000000  0.4693880000000 1.0
C      1  0.5175880000000  0.5618840000000  0.6017250000000 1.0
C      1  0.5793410000000  0.5553060000000  0.4368210000000 1.0
C      1  0.4089570000000  0.4474400000000  0.5461690000000 1.0
C      1  0.5859160000000  0.4423460000000  0.5615590000000 1.0
C      1  0.5118610000000  0.4477440000000  0.4059820000000 1.0
C      1  0.5765750000000  0.4188180000000  0.5423640000000 1.0
C      1  0.5023710000000  0.4216630000000  0.4155600000000 1.0
C      1  0.4269980000000  0.4201880000000  0.5433400000000 1.0
C      1  0.4780350000000  0.5553690000000  0.4943080000000 1.0
C      1  0.4990100000000  0.5602540000000  0.5277400000000 1.0
C      1  0.5201350000000  0.5610380000000  0.4888770000000 1.0
C      1  0.4730830000000  0.4728810000000  0.5196260000000 1.0
C      1  0.5212330000000  0.4876050000000  0.5079490000000 1.0
C      1  0.4983350000000  0.4734360000000  0.4652260000000 1.0
C      1  0.4731530000000  0.3855270000000  0.5273660000000 1.0
C      1  0.5430780000000  0.3876050000000  0.5080900000000 1.0
C      1  0.4881760000000  0.3931210000000  0.4599280000000 1.0
C      1  0.4996520000000  0.5396420000000  0.5617490000000 1.0
C      1  0.5457880000000  0.5280150000000  0.4667220000000 1.0
C      1  0.4513510000000  0.5312630000000  0.4737530000000 1.0
C      1  0.5257320000000  0.6180650000000  0.4889790000000 1.0
C      1  0.4803570000000  0.6065360000000  0.4903470000000 1.0
C      1  0.5031210000000  0.6149570000000  0.5096420000000 1.0
C      1  0.4676420000000  0.4163130000000  0.5139760000000 1.0
C      1  0.5306800000000  0.4160290000000  0.5227100000000 1.0
C      1  0.5103080000000  0.4188040000000  0.4657490000000 1.0
C      1  0.4927330000000  0.4696060000000  0.5629430000000 1.0
C      1  0.5567300000000  0.4629350000000  0.4940010000000 1.0
C      1  0.4543480000000  0.4640180000000  0.4600260000000 1.0
C      1  0.4123510000000  0.4111370000000  0.4838310000000 1.0
C      1  0.5282540000000  0.4068470000000  0.5895880000000 1.0
C      1  0.5645860000000  0.4240360000000  0.4277670000000 1.0
C      1  0.4317960000000  0.5102080000000  0.5766860000000 1.0
C      1  0.6210670000000  0.4950880000000  0.5039180000000 1.0
C      1  0.4627150000000  0.5056130000000  0.4008140000000 1.0
C      1  0.4603320000000  0.4944370000000  0.5348490000000 1.0
C      1  0.5462030000000  0.5009930000000  0.5196370000000 1.0
C      1  0.4924250000000  0.4974750000000  0.4465130000000 1.0
C      1  0.4992100000000  0.5557330000000  0.4135940000000 1.0
C      1  0.4168050000000  0.5599500000000  0.5455960000000 1.0
C      1  0.5735820000000  0.5681210000000  0.5486180000000 1.0
C      1  0.5684260000000  0.5445340000000  0.4973680000000 1.0
C      1  0.4556450000000  0.5523460000000  0.4375490000000 1.0
C      1  0.4636320000000  0.5541770000000  0.5698410000000 1.0
C      1  0.6000340000000  0.5191900000000  0.4646240000000 1.0
C      1  0.4213020000000  0.5334790000000  0.4303260000000 1.0
C      1  0.4757470000000  0.5347770000000  0.6026240000000 1.0
C      1  0.5921990000000  0.5486470000000  0.5447000000000 1.0
C      1  0.4834720000000  0.5406810000000  0.3974680000000 1.0
C      1  0.4121590000000  0.5436800000000  0.5671110000000 1.0
C      1  0.3887610000000  0.4904610000000  0.5175530000000 1.0
C      1  0.5612960000000  0.4873390000000  0.5933100000000 1.0
C      1  0.5370980000000  0.4969630000000  0.3870120000000 1.0
C      1  0.5242270000000  0.4403370000000  0.4880960000000 1.0
C      1  0.4818080000000  0.4400860000000  0.4942210000000 1.0
C      1  0.5067950000000  0.4396470000000  0.5173050000000 1.0
END
