TITL C-3289330-4660-206 0.00536643446608528 125000 -1039.19710784539 0 0 197 (C1) n - 1
REM
REM in /nfs/bkarasulu/CARBON/AIRSS/Generating-Clusters/AIREBO/with-SteepDescent/Higher-Symm/SD-CG/HFTN-CG
REM
REM
REM
REM
REM
REM ./C.cell (b20cbc046b6831c77cfcea5457e17084)
REM
REM compiler GCC version 9.2.1 20190827 (Red Hat 9.2.1-1)
REM options -cpp -mtune=generic -march=x86-64 -g -O0 -fpre-include=/usr/include/finclude/math-vector-fortran.h
REM seed -739606688 -1313701315 176296875 673623178 1113670228 -729221037 1315243227 600450673 20362471 -1304475122 1241890397 310453454 -1898210851 -1344520161 1779525340 -1845815271 -850897284 1038754546 155063839 -1059693871 -222515606 1826760820 995438839 -168150152 4902279 -1426970913 1151284028 -2038858860 1961135326 -9869204 853909142 474752433 -1926767239
REM
CELL 1.54180   50.00000   50.00000   50.00000   90.00000   90.00000   90.00000
LATT -1
SFAC C  
C      1  0.5917810000000  0.5393250000000  0.5229120000000 1.0
C      1  0.5268880000000  0.5988260000000  0.5375070000000 1.0
C      1  0.5372150000000  0.5240680000000  0.6011870000000 1.0
C      1  0.5904790000000  0.4604560000000  0.4812230000000 1.0
C      1  0.3981740000000  0.4621860000000  0.5199540000000 1.0
C      1  0.4007820000000  0.5331790000000  0.4834110000000 1.0
C      1  0.5135520000000  0.4010110000000  0.4648910000000 1.0
C      1  0.4797170000000  0.4084600000000  0.5362900000000 1.0
C      1  0.4820120000000  0.6002910000000  0.4683440000000 1.0
C      1  0.5455710000000  0.4877180000000  0.4061430000000 1.0
C      1  0.4665010000000  0.4888080000000  0.5973560000000 1.0
C      1  0.4609440000000  0.5268550000000  0.3993170000000 1.0
C      1  0.5046190000000  0.6201550000000  0.4848150000000 1.0
C      1  0.4879860000000  0.5027820000000  0.6188470000000 1.0
C      1  0.6149360000000  0.4840850000000  0.4805430000000 1.0
C      1  0.4805210000000  0.3851380000000  0.5115580000000 1.0
C      1  0.4949480000000  0.3803600000000  0.4851000000000 1.0
C      1  0.5220320000000  0.6183610000000  0.5101010000000 1.0
C      1  0.4817110000000  0.5156800000000  0.3744810000000 1.0
C      1  0.5148480000000  0.5066230000000  0.6196920000000 1.0
C      1  0.5091880000000  0.5128350000000  0.3713160000000 1.0
C      1  0.6227260000000  0.5123490000000  0.4942200000000 1.0
C      1  0.3802650000000  0.5104620000000  0.4989870000000 1.0
C      1  0.3779710000000  0.4842030000000  0.5034070000000 1.0
C      1  0.4859890000000  0.4314840000000  0.4767660000000 1.0
C      1  0.4912900000000  0.4856970000000  0.4240600000000 1.0
C      1  0.4287920000000  0.4797300000000  0.4817910000000 1.0
C      1  0.4886000000000  0.5727630000000  0.5199600000000 1.0
C      1  0.5156560000000  0.5728390000000  0.4636450000000 1.0
C      1  0.5145130000000  0.4280620000000  0.5162550000000 1.0
C      1  0.4824410000000  0.5124430000000  0.5690430000000 1.0
C      1  0.5145730000000  0.5171620000000  0.4318500000000 1.0
C      1  0.5191230000000  0.4819140000000  0.5705130000000 1.0
C      1  0.4318200000000  0.5185040000000  0.5178970000000 1.0
C      1  0.5714850000000  0.5205500000000  0.4895330000000 1.0
C      1  0.5700500000000  0.4836830000000  0.5178110000000 1.0
C      1  0.5324090000000  0.5086100000000  0.3842340000000 1.0
C      1  0.3863740000000  0.5384890000000  0.5137470000000 1.0
C      1  0.5058740000000  0.3879110000000  0.5342870000000 1.0
C      1  0.5458620000000  0.4949880000000  0.6147790000000 1.0
C      1  0.4570520000000  0.4975050000000  0.3825870000000 1.0
C      1  0.4624480000000  0.5215070000000  0.6064640000000 1.0
C      1  0.3827310000000  0.4540280000000  0.4921940000000 1.0
C      1  0.6140050000000  0.4585470000000  0.5029710000000 1.0
C      1  0.6083570000000  0.5353020000000  0.5007300000000 1.0
C      1  0.5106320000000  0.6122140000000  0.4543740000000 1.0
C      1  0.5017050000000  0.6184640000000  0.5376710000000 1.0
C      1  0.4864130000000  0.3846880000000  0.4544470000000 1.0
C      1  0.5163360000000  0.4537790000000  0.5559940000000 1.0
C      1  0.5557250000000  0.5208820000000  0.4594040000000 1.0
C      1  0.4608850000000  0.5535310000000  0.5243020000000 1.0
C      1  0.5257340000000  0.5347470000000  0.4575050000000 1.0
C      1  0.4813190000000  0.5379550000000  0.5465770000000 1.0
C      1  0.4806980000000  0.4631210000000  0.4460790000000 1.0
C      1  0.5474140000000  0.4781080000000  0.5378270000000 1.0
C      1  0.4492250000000  0.4695310000000  0.4565870000000 1.0
C      1  0.4531260000000  0.5192490000000  0.5431020000000 1.0
C      1  0.4571550000000  0.4469180000000  0.4791540000000 1.0
C      1  0.5329860000000  0.4518150000000  0.5288050000000 1.0
C      1  0.5390130000000  0.5553360000000  0.4810850000000 1.0
C      1  0.5136530000000  0.4355160000000  0.4069410000000 1.0
C      1  0.4112990000000  0.5092310000000  0.4451560000000 1.0
C      1  0.4516610000000  0.4040970000000  0.5083240000000 1.0
C      1  0.5127030000000  0.5522640000000  0.5870440000000 1.0
C      1  0.4842400000000  0.5565470000000  0.4124940000000 1.0
C      1  0.4939460000000  0.4431110000000  0.5962610000000 1.0
C      1  0.4075540000000  0.4839400000000  0.5516830000000 1.0
C      1  0.5935340000000  0.4896570000000  0.4543550000000 1.0
C      1  0.5873810000000  0.5152930000000  0.5575970000000 1.0
C      1  0.4488260000000  0.5926680000000  0.4893150000000 1.0
C      1  0.5500910000000  0.5983540000000  0.5052040000000 1.0
C      1  0.5528550000000  0.4088670000000  0.4943160000000 1.0
C      1  0.4639920000000  0.4017840000000  0.4421900000000 1.0
C      1  0.4628750000000  0.4730860000000  0.3993960000000 1.0
C      1  0.4040060000000  0.4497760000000  0.4726850000000 1.0
C      1  0.4792290000000  0.6006910000000  0.5466650000000 1.0
C      1  0.5415040000000  0.6046270000000  0.4423150000000 1.0
C      1  0.5310380000000  0.4068110000000  0.5475270000000 1.0
C      1  0.4406240000000  0.5408350000000  0.5887490000000 1.0
C      1  0.5454430000000  0.5308250000000  0.4047970000000 1.0
C      1  0.5495410000000  0.4722500000000  0.5959140000000 1.0
C      1  0.4067830000000  0.5477750000000  0.5355350000000 1.0
C      1  0.5987700000000  0.5533650000000  0.4761310000000 1.0
C      1  0.6032140000000  0.4562450000000  0.5295410000000 1.0
C      1  0.4388460000000  0.5163660000000  0.5691630000000 1.0
C      1  0.5803700000000  0.4313580000000  0.5334290000000 1.0
C      1  0.5228860000000  0.5799350000000  0.4318020000000 1.0
C      1  0.4474950000000  0.4838700000000  0.4258040000000 1.0
C      1  0.5620430000000  0.4743040000000  0.5654390000000 1.0
C      1  0.5601950000000  0.5101490000000  0.4271520000000 1.0
C      1  0.5698540000000  0.5697500000000  0.4833500000000 1.0
C      1  0.4282450000000  0.5629640000000  0.5228940000000 1.0
C      1  0.4288110000000  0.4297210000000  0.4820820000000 1.0
C      1  0.5204560000000  0.4258960000000  0.5712890000000 1.0
C      1  0.4725980000000  0.4164500000000  0.4184360000000 1.0
C      1  0.4922570000000  0.5720090000000  0.5595040000000 1.0
C      1  0.5280650000000  0.4936930000000  0.4524430000000 1.0
C      1  0.4533490000000  0.5250720000000  0.4923120000000 1.0
C      1  0.4892370000000  0.4465090000000  0.5296570000000 1.0
C      1  0.5248590000000  0.5083230000000  0.5498050000000 1.0
C      1  0.4698810000000  0.5016790000000  0.4451260000000 1.0
C      1  0.4694790000000  0.4846460000000  0.5543470000000 1.0
C      1  0.4484130000000  0.4718140000000  0.5084270000000 1.0
C      1  0.5464770000000  0.4712520000000  0.4966050000000 1.0
C      1  0.5476140000000  0.5313960000000  0.5111900000000 1.0
C      1  0.4906760000000  0.5501400000000  0.4677440000000 1.0
C      1  0.5136940000000  0.5611660000000  0.5398110000000 1.0
C      1  0.5114840000000  0.4527120000000  0.4693110000000 1.0
C      1  0.4616060000000  0.4077990000000  0.4755710000000 1.0
C      1  0.4936000000000  0.4591550000000  0.4036710000000 1.0
C      1  0.4099800000000  0.4764480000000  0.4540810000000 1.0
C      1  0.4613560000000  0.5930850000000  0.5190040000000 1.0
C      1  0.5397570000000  0.5943740000000  0.4744320000000 1.0
C      1  0.5298140000000  0.4000330000000  0.5144780000000 1.0
C      1  0.4803780000000  0.5417260000000  0.5863130000000 1.0
C      1  0.5141950000000  0.5431770000000  0.4100050000000 1.0
C      1  0.5211340000000  0.4582070000000  0.5948260000000 1.0
C      1  0.4088750000000  0.5161870000000  0.5429110000000 1.0
C      1  0.5947890000000  0.5216550000000  0.4657950000000 1.0
C      1  0.5930530000000  0.4851640000000  0.5428120000000 1.0
C      1  0.4556500000000  0.5763070000000  0.5490210000000 1.0
C      1  0.5484810000000  0.4411070000000  0.5822890000000 1.0
C      1  0.5754720000000  0.5473930000000  0.4514380000000 1.0
C      1  0.4366540000000  0.4154480000000  0.4528190000000 1.0
C      1  0.5527930000000  0.4331970000000  0.5492370000000 1.0
C      1  0.5596340000000  0.5774800000000  0.4518560000000 1.0
C      1  0.5377160000000  0.5519470000000  0.4307310000000 1.0
C      1  0.4573300000000  0.5645760000000  0.5768900000000 1.0
C      1  0.4666900000000  0.4462190000000  0.4199360000000 1.0
C      1  0.5856960000000  0.4541550000000  0.5581520000000 1.0
C      1  0.4262070000000  0.4466720000000  0.4463800000000 1.0
C      1  0.4133430000000  0.5388200000000  0.5679010000000 1.0
C      1  0.5712680000000  0.5152330000000  0.5286010000000 1.0
C      1  0.5274970000000  0.5745490000000  0.5137080000000 1.0
C      1  0.5129580000000  0.5200530000000  0.5794290000000 1.0
C      1  0.5706640000000  0.4880350000000  0.4794770000000 1.0
C      1  0.4207850000000  0.4860430000000  0.5204280000000 1.0
C      1  0.4246600000000  0.5121190000000  0.4794470000000 1.0
C      1  0.5247440000000  0.4249880000000  0.4839120000000 1.0
C      1  0.4759810000000  0.4268000000000  0.5078960000000 1.0
C      1  0.4779700000000  0.5745660000000  0.4877140000000 1.0
C      1  0.5220640000000  0.4790140000000  0.4233110000000 1.0
C      1  0.4876030000000  0.4720830000000  0.5786710000000 1.0
C      1  0.4823550000000  0.5245390000000  0.4238320000000 1.0
C      1  0.4632150000000  0.4215010000000  0.5607930000000 1.0
C      1  0.5555580000000  0.4582340000000  0.4198970000000 1.0
C      1  0.4138550000000  0.5545820000000  0.4626030000000 1.0
C      1  0.4576330000000  0.5832220000000  0.4518910000000 1.0
C      1  0.5473550000000  0.5904620000000  0.5581780000000 1.0
C      1  0.5377900000000  0.4158080000000  0.4461830000000 1.0
C      1  0.5561990000000  0.5433370000000  0.5893380000000 1.0
C      1  0.4407000000000  0.5417640000000  0.4223070000000 1.0
C      1  0.4492220000000  0.4621080000000  0.5853190000000 1.0
C      1  0.4148540000000  0.4427700000000  0.5375250000000 1.0
C      1  0.5790180000000  0.4378770000000  0.4627370000000 1.0
C      1  0.5810420000000  0.5636140000000  0.5369270000000 1.0
C      1  0.5016500000000  0.5810020000000  0.4130430000000 1.0
C      1  0.4194320000000  0.4957280000000  0.5765630000000 1.0
C      1  0.5783280000000  0.4112090000000  0.5133790000000 1.0
C      1  0.5041850000000  0.4121140000000  0.5932270000000 1.0
C      1  0.4967860000000  0.4122440000000  0.4061140000000 1.0
C      1  0.4946970000000  0.5786870000000  0.5899180000000 1.0
C      1  0.4212930000000  0.4940220000000  0.4203680000000 1.0
C      1  0.5779940000000  0.4962970000000  0.5781020000000 1.0
C      1  0.5887420000000  0.5024310000000  0.4262770000000 1.0
C      1  0.5824540000000  0.5967080000000  0.4949080000000 1.0
C      1  0.4237170000000  0.5855170000000  0.5080640000000 1.0
C      1  0.4207600000000  0.4070810000000  0.5005890000000 1.0
C      1  0.4977440000000  0.5109650000000  0.5321470000000 1.0
C      1  0.5348910000000  0.5026090000000  0.5177860000000 1.0
C      1  0.5167010000000  0.5437840000000  0.5040170000000 1.0
C      1  0.5015690000000  0.4846120000000  0.4621870000000 1.0
C      1  0.5028290000000  0.4773600000000  0.5342960000000 1.0
C      1  0.5004510000000  0.5176970000000  0.4725910000000 1.0
C      1  0.5361990000000  0.5061200000000  0.4830580000000 1.0
C      1  0.4630290000000  0.4947500000000  0.5232480000000 1.0
C      1  0.4663210000000  0.4906070000000  0.4770870000000 1.0
C      1  0.5136200000000  0.4663180000000  0.5048980000000 1.0
C      1  0.4797140000000  0.4653140000000  0.4967500000000 1.0
C      1  0.4828970000000  0.5371640000000  0.5041910000000 1.0
C      1  0.4189820000000  0.5377870000000  0.4397570000000 1.0
C      1  0.4442970000000  0.4263850000000  0.5329640000000 1.0
C      1  0.5369240000000  0.4356150000000  0.4233250000000 1.0
C      1  0.4322260000000  0.4619210000000  0.5596020000000 1.0
C      1  0.5718140000000  0.4647410000000  0.4463020000000 1.0
C      1  0.5692200000000  0.5422810000000  0.5579470000000 1.0
C      1  0.4302180000000  0.5768900000000  0.4662620000000 1.0
C      1  0.5644960000000  0.5860610000000  0.5334720000000 1.0
C      1  0.5592310000000  0.4187180000000  0.4647520000000 1.0
C      1  0.5397720000000  0.5654710000000  0.5718610000000 1.0
C      1  0.4640990000000  0.5568260000000  0.4384050000000 1.0
C      1  0.4657400000000  0.4389120000000  0.5827470000000 1.0
C      1  0.5423950000000  0.4655770000000  0.4633280000000 1.0
C      1  0.4648270000000  0.5313620000000  0.4609260000000 1.0
C      1  0.4579450000000  0.4571900000000  0.5376120000000 1.0
C      1  0.5362570000000  0.5395570000000  0.5500710000000 1.0
C      1  0.4865460000000  0.5044460000000  0.5006800000000 1.0
END
