TITL C-3289331-6719-325 0.00089719702329519 125000 -740.703989368043 0 0 133 (C1) n - 1
REM
REM in /nfs/bkarasulu/CARBON/AIRSS/Generating-Clusters/AIREBO/with-SteepDescent/Higher-Symm/SD-CG/HFTN-CG
REM
REM
REM
REM
REM
REM ./C.cell (b20cbc046b6831c77cfcea5457e17084)
REM
REM compiler GCC version 9.2.1 20190827 (Red Hat 9.2.1-1)
REM options -cpp -mtune=generic -march=x86-64 -g -O0 -fpre-include=/usr/include/finclude/math-vector-fortran.h
REM seed 1268345519 2122267637 1394724917 1912157729 -1868451933 -875138555 -1493829851 332929195 -1896439239 805267566 1785983660 1718986471 -1091893184 1831513838 1629594525 348139868 -563750677 -1413374033 1985032082 174611043 1571426610 486094649 876751557 9428559 460031618 -1030217623 -329760663 -1388239014 93678267 -209322456 39077798 -1306293081 -76437839
REM
CELL 1.54180   50.00000   50.00000   50.00000   90.00000   90.00000   90.00000
LATT -1
SFAC C  
C      1  0.4384050000000  0.4702700000000  0.5754900000000 1.0
C      1  0.4388050000000  0.5335500000000  0.4205580000000 1.0
C      1  0.5654410000000  0.4679680000000  0.5721860000000 1.0
C      1  0.5575310000000  0.5368600000000  0.4308380000000 1.0
C      1  0.4435600000000  0.5322240000000  0.5814030000000 1.0
C      1  0.4317960000000  0.4703790000000  0.4220290000000 1.0
C      1  0.5562090000000  0.5303840000000  0.5740980000000 1.0
C      1  0.5629510000000  0.4687560000000  0.4246940000000 1.0
C      1  0.4714190000000  0.4485640000000  0.4440540000000 1.0
C      1  0.4825770000000  0.5463670000000  0.5554220000000 1.0
C      1  0.5346590000000  0.4341780000000  0.4419670000000 1.0
C      1  0.5165100000000  0.5456520000000  0.5532260000000 1.0
C      1  0.4841260000000  0.5498530000000  0.4417590000000 1.0
C      1  0.4831670000000  0.4513200000000  0.5551160000000 1.0
C      1  0.5160640000000  0.5612170000000  0.4458480000000 1.0
C      1  0.5171500000000  0.4515550000000  0.5567350000000 1.0
C      1  0.5655210000000  0.4109600000000  0.4747630000000 1.0
C      1  0.5533500000000  0.5815930000000  0.5382350000000 1.0
C      1  0.4374870000000  0.4156250000000  0.4734410000000 1.0
C      1  0.4382150000000  0.5796270000000  0.5333450000000 1.0
C      1  0.5687700000000  0.5796230000000  0.4760520000000 1.0
C      1  0.5633700000000  0.4194190000000  0.5305830000000 1.0
C      1  0.4328930000000  0.5798740000000  0.4679760000000 1.0
C      1  0.4410360000000  0.4186850000000  0.5354890000000 1.0
C      1  0.5607960000000  0.5110410000000  0.5468290000000 1.0
C      1  0.5760460000000  0.4857710000000  0.4430630000000 1.0
C      1  0.4389240000000  0.5145130000000  0.5556390000000 1.0
C      1  0.4206370000000  0.4857010000000  0.4427310000000 1.0
C      1  0.5758910000000  0.4855310000000  0.5527630000000 1.0
C      1  0.5650690000000  0.5143020000000  0.4507370000000 1.0
C      1  0.4251290000000  0.4877550000000  0.5572720000000 1.0
C      1  0.4306400000000  0.5155770000000  0.4440290000000 1.0
C      1  0.4554460000000  0.5522480000000  0.5357430000000 1.0
C      1  0.4519100000000  0.4429080000000  0.4710110000000 1.0
C      1  0.5423020000000  0.5530150000000  0.5322980000000 1.0
C      1  0.5503670000000  0.4381230000000  0.4696990000000 1.0
C      1  0.4567690000000  0.4465150000000  0.5341840000000 1.0
C      1  0.4550390000000  0.5560770000000  0.4583260000000 1.0
C      1  0.5420050000000  0.4449280000000  0.5344650000000 1.0
C      1  0.5447350000000  0.5587580000000  0.4640930000000 1.0
C      1  0.4862010000000  0.5141620000000  0.4078730000000 1.0
C      1  0.4886090000000  0.4856990000000  0.5855050000000 1.0
C      1  0.5149070000000  0.5227270000000  0.4173900000000 1.0
C      1  0.5217630000000  0.4826300000000  0.5920040000000 1.0
C      1  0.4843720000000  0.4807790000000  0.4088800000000 1.0
C      1  0.4855430000000  0.5171720000000  0.5973530000000 1.0
C      1  0.5132640000000  0.4698670000000  0.4178630000000 1.0
C      1  0.5147650000000  0.5144860000000  0.5948340000000 1.0
C      1  0.5407750000000  0.4593890000000  0.5799100000000 1.0
C      1  0.5322520000000  0.5448090000000  0.4245370000000 1.0
C      1  0.4641780000000  0.4627880000000  0.5808920000000 1.0
C      1  0.4654000000000  0.5392990000000  0.4154060000000 1.0
C      1  0.5294840000000  0.5354190000000  0.5829480000000 1.0
C      1  0.5385530000000  0.4537330000000  0.4223920000000 1.0
C      1  0.4706070000000  0.5370810000000  0.5853730000000 1.0
C      1  0.4572830000000  0.4624740000000  0.4180080000000 1.0
C      1  0.4360920000000  0.4636470000000  0.5176760000000 1.0
C      1  0.4352980000000  0.5431250000000  0.4828090000000 1.0
C      1  0.5677700000000  0.4575010000000  0.5161410000000 1.0
C      1  0.5703180000000  0.5477550000000  0.4841450000000 1.0
C      1  0.4320020000000  0.5441860000000  0.5124240000000 1.0
C      1  0.4369170000000  0.4647790000000  0.4846930000000 1.0
C      1  0.5655080000000  0.5406060000000  0.5132570000000 1.0
C      1  0.5651380000000  0.4609810000000  0.4831740000000 1.0
C      1  0.4809170000000  0.4864300000000  0.5534340000000 1.0
C      1  0.4829430000000  0.5154710000000  0.4416930000000 1.0
C      1  0.5202910000000  0.4857680000000  0.5581810000000 1.0
C      1  0.5231730000000  0.5104720000000  0.4428440000000 1.0
C      1  0.4724530000000  0.5144380000000  0.5495620000000 1.0
C      1  0.4812910000000  0.4815570000000  0.4427530000000 1.0
C      1  0.5294860000000  0.5144910000000  0.5490250000000 1.0
C      1  0.5212500000000  0.4832460000000  0.4428970000000 1.0
C      1  0.4841810000000  0.4419870000000  0.4817340000000 1.0
C      1  0.4828640000000  0.5553540000000  0.5158610000000 1.0
C      1  0.5178010000000  0.4373030000000  0.4795580000000 1.0
C      1  0.5142030000000  0.5490190000000  0.5135490000000 1.0
C      1  0.4772830000000  0.5574110000000  0.4838510000000 1.0
C      1  0.4853110000000  0.4445870000000  0.5157840000000 1.0
C      1  0.5201540000000  0.5580660000000  0.4854980000000 1.0
C      1  0.5180130000000  0.4361230000000  0.5135370000000 1.0
C      1  0.4135870000000  0.4774810000000  0.4695380000000 1.0
C      1  0.4051680000000  0.5283100000000  0.5226870000000 1.0
C      1  0.5866980000000  0.4767990000000  0.4686220000000 1.0
C      1  0.5915480000000  0.5245550000000  0.5242760000000 1.0
C      1  0.4131480000000  0.5232930000000  0.4708440000000 1.0
C      1  0.4150120000000  0.4809260000000  0.5315030000000 1.0
C      1  0.5848470000000  0.5236070000000  0.4729590000000 1.0
C      1  0.5876480000000  0.4766650000000  0.5289450000000 1.0
C      1  0.4526480000000  0.5174660000000  0.4695720000000 1.0
C      1  0.4545350000000  0.4886700000000  0.5114580000000 1.0
C      1  0.5467320000000  0.5134240000000  0.4793970000000 1.0
C      1  0.5434090000000  0.4776320000000  0.5120880000000 1.0
C      1  0.4561150000000  0.4895340000000  0.4804900000000 1.0
C      1  0.4432370000000  0.5163430000000  0.5232030000000 1.0
C      1  0.5416500000000  0.4829870000000  0.4822560000000 1.0
C      1  0.5494540000000  0.5108890000000  0.5145560000000 1.0
C      1  0.4769280000000  0.4095680000000  0.4744360000000 1.0
C      1  0.4819520000000  0.5885230000000  0.5233130000000 1.0
C      1  0.5220520000000  0.4038320000000  0.4752440000000 1.0
C      1  0.5118800000000  0.5992650000000  0.5176590000000 1.0
C      1  0.4710670000000  0.5886960000000  0.4745750000000 1.0
C      1  0.4797730000000  0.4133220000000  0.5279690000000 1.0
C      1  0.5246230000000  0.5907940000000  0.4876190000000 1.0
C      1  0.5249160000000  0.4091280000000  0.5300900000000 1.0
C      1  0.4836460000000  0.5804430000000  0.5561020000000 1.0
C      1  0.4867900000000  0.4208540000000  0.4480050000000 1.0
C      1  0.5140160000000  0.5784520000000  0.5445940000000 1.0
C      1  0.5144200000000  0.4146260000000  0.4468930000000 1.0
C      1  0.4874000000000  0.4179030000000  0.5561250000000 1.0
C      1  0.4889810000000  0.6002890000000  0.4572000000000 1.0
C      1  0.5169020000000  0.4159440000000  0.5567240000000 1.0
C      1  0.5136240000000  0.5895840000000  0.4588490000000 1.0
C      1  0.4545680000000  0.3969570000000  0.4893310000000 1.0
C      1  0.4524570000000  0.5971730000000  0.5167130000000 1.0
C      1  0.5462520000000  0.3941400000000  0.4886020000000 1.0
C      1  0.5447750000000  0.6003420000000  0.5204480000000 1.0
C      1  0.4467860000000  0.5979180000000  0.4891840000000 1.0
C      1  0.4557190000000  0.3991150000000  0.5174120000000 1.0
C      1  0.5556380000000  0.5992130000000  0.4921370000000 1.0
C      1  0.5482040000000  0.3958480000000  0.5171290000000 1.0
C      1  0.5170570000000  0.5195450000000  0.5201890000000 1.0
C      1  0.5184780000000  0.4700760000000  0.4693960000000 1.0
C      1  0.4760870000000  0.5220610000000  0.5172880000000 1.0
C      1  0.4864540000000  0.4752270000000  0.4749330000000 1.0
C      1  0.5175000000000  0.4857710000000  0.5246640000000 1.0
C      1  0.5188550000000  0.5288430000000  0.4695110000000 1.0
C      1  0.4855290000000  0.4782340000000  0.5207590000000 1.0
C      1  0.4852300000000  0.5262130000000  0.4738710000000 1.0
C      1  0.5957290000000  0.4994070000000  0.4842610000000 1.0
C      1  0.5965730000000  0.4985350000000  0.5128110000000 1.0
C      1  0.4040900000000  0.4998120000000  0.4846500000000 1.0
C      1  0.4035550000000  0.5009730000000  0.5138050000000 1.0
C      1  0.4908270000000  0.5013040000000  0.4963300000000 1.0
END
