TITL C-3289335-9438-359 0.000856489997550455 125000 -1073.54565440652 0 0 198 (C1) n - 1
REM
REM in /nfs/bkarasulu/CARBON/AIRSS/Generating-Clusters/AIREBO/with-SteepDescent/Higher-Symm/SD-CG/HFTN-CG
REM
REM
REM
REM
REM
REM ./C.cell (b20cbc046b6831c77cfcea5457e17084)
REM
REM compiler GCC version 9.2.1 20190827 (Red Hat 9.2.1-1)
REM options -cpp -mtune=generic -march=x86-64 -g -O0 -fpre-include=/usr/include/finclude/math-vector-fortran.h
REM seed -30284012 1983183129 -583965746 1659246182 39587045 -962762738 273175143 -754289832 -1205268391 -1171491710 242803774 2110819257 962714999 -1384122433 315951758 -1702563284 912765685 -732119090 1795934713 1064120297 -716369974 642864844 -1831652576 -1555073348 235824530 1989225471 869363051 -943639667 791530086 806524075 -1354929435 -2110332991 -1649530376
REM
CELL 1.54180   50.00000   50.00000   50.00000   90.00000   90.00000   90.00000
LATT -1
SFAC C  
C      1  0.4629070000000  0.5874680000000  0.4525120000000 1.0
C      1  0.4636690000000  0.5113180000000  0.4001680000000 1.0
C      1  0.4610690000000  0.4290270000000  0.4345030000000 1.0
C      1  0.4560650000000  0.3924780000000  0.5190050000000 1.0
C      1  0.4503170000000  0.4430860000000  0.5999260000000 1.0
C      1  0.4512560000000  0.5429640000000  0.6007480000000 1.0
C      1  0.4768650000000  0.6029890000000  0.5388250000000 1.0
C      1  0.4950440000000  0.4753170000000  0.6069000000000 1.0
C      1  0.5078840000000  0.5621190000000  0.5915170000000 1.0
C      1  0.5044670000000  0.6185260000000  0.5008310000000 1.0
C      1  0.4979700000000  0.5667160000000  0.4114250000000 1.0
C      1  0.5089400000000  0.4807760000000  0.3938730000000 1.0
C      1  0.5104990000000  0.4044250000000  0.4583840000000 1.0
C      1  0.5054030000000  0.3998200000000  0.5554850000000 1.0
C      1  0.4226540000000  0.5108320000000  0.5413550000000 1.0
C      1  0.4403960000000  0.5398500000000  0.5395510000000 1.0
C      1  0.4345480000000  0.5298390000000  0.4821190000000 1.0
C      1  0.4374830000000  0.5023510000000  0.4649870000000 1.0
C      1  0.4263720000000  0.4704210000000  0.4612920000000 1.0
C      1  0.4384130000000  0.4638070000000  0.4910440000000 1.0
C      1  0.4196000000000  0.4826230000000  0.5330690000000 1.0
C      1  0.4778360000000  0.4285090000000  0.4957570000000 1.0
C      1  0.4661280000000  0.4395030000000  0.5501880000000 1.0
C      1  0.4794690000000  0.5056380000000  0.5850620000000 1.0
C      1  0.4760450000000  0.5762910000000  0.5566790000000 1.0
C      1  0.4926190000000  0.5834550000000  0.4654410000000 1.0
C      1  0.4656170000000  0.5400820000000  0.4182380000000 1.0
C      1  0.4799610000000  0.4575110000000  0.4368680000000 1.0
C      1  0.4529620000000  0.4971740000000  0.4357770000000 1.0
C      1  0.4461280000000  0.4343340000000  0.4929140000000 1.0
C      1  0.4409490000000  0.4605370000000  0.5420310000000 1.0
C      1  0.4691400000000  0.4993960000000  0.5544600000000 1.0
C      1  0.4727700000000  0.5474180000000  0.5466830000000 1.0
C      1  0.4460390000000  0.5434610000000  0.5078340000000 1.0
C      1  0.4725560000000  0.5391030000000  0.4490420000000 1.0
C      1  0.5951890000000  0.4757600000000  0.5094940000000 1.0
C      1  0.5851850000000  0.4731100000000  0.5396900000000 1.0
C      1  0.5600650000000  0.5259570000000  0.5226330000000 1.0
C      1  0.5684900000000  0.5386580000000  0.4926990000000 1.0
C      1  0.5718970000000  0.5309340000000  0.4636180000000 1.0
C      1  0.5726500000000  0.4993190000000  0.4510170000000 1.0
C      1  0.5875910000000  0.4579700000000  0.4851180000000 1.0
C      1  0.4359300000000  0.5649610000000  0.5879380000000 1.0
C      1  0.4283810000000  0.5901760000000  0.5188730000000 1.0
C      1  0.4244190000000  0.5695340000000  0.3959290000000 1.0
C      1  0.4346370000000  0.4596350000000  0.4075530000000 1.0
C      1  0.4415060000000  0.4079980000000  0.4527480000000 1.0
C      1  0.4358270000000  0.4041030000000  0.5437350000000 1.0
C      1  0.4246830000000  0.4402430000000  0.5923340000000 1.0
C      1  0.4978510000000  0.4016530000000  0.4898570000000 1.0
C      1  0.5030750000000  0.4204950000000  0.5777070000000 1.0
C      1  0.4972740000000  0.5079130000000  0.6127570000000 1.0
C      1  0.5094790000000  0.5740830000000  0.5621240000000 1.0
C      1  0.5126700000000  0.6085880000000  0.4717360000000 1.0
C      1  0.4914830000000  0.5395580000000  0.3963830000000 1.0
C      1  0.5056020000000  0.4541690000000  0.4147770000000 1.0
C      1  0.4566670000000  0.4149200000000  0.5686970000000 1.0
C      1  0.4500350000000  0.4934780000000  0.6094610000000 1.0
C      1  0.4490060000000  0.5854310000000  0.5684030000000 1.0
C      1  0.4481980000000  0.5980970000000  0.4990720000000 1.0
C      1  0.4460820000000  0.5637810000000  0.4083440000000 1.0
C      1  0.4634480000000  0.4579960000000  0.4071400000000 1.0
C      1  0.4645360000000  0.3932720000000  0.4693730000000 1.0
C      1  0.5604330000000  0.5866260000000  0.5093800000000 1.0
C      1  0.5663490000000  0.5859640000000  0.4276180000000 1.0
C      1  0.5646540000000  0.4713070000000  0.4082780000000 1.0
C      1  0.5665880000000  0.4139300000000  0.4618070000000 1.0
C      1  0.5505220000000  0.4134030000000  0.5382790000000 1.0
C      1  0.5544490000000  0.4810540000000  0.5832760000000 1.0
C      1  0.5607100000000  0.5524220000000  0.5690070000000 1.0
C      1  0.4933790000000  0.5607320000000  0.4438560000000 1.0
C      1  0.4861460000000  0.4911650000000  0.4407720000000 1.0
C      1  0.4835210000000  0.4492070000000  0.4696510000000 1.0
C      1  0.4850250000000  0.4281290000000  0.5267800000000 1.0
C      1  0.4718190000000  0.4688600000000  0.5659660000000 1.0
C      1  0.4927980000000  0.5305490000000  0.5661420000000 1.0
C      1  0.4949260000000  0.5772970000000  0.4964860000000 1.0
C      1  0.4715910000000  0.3809490000000  0.4960410000000 1.0
C      1  0.4754100000000  0.4239030000000  0.5956240000000 1.0
C      1  0.4674440000000  0.5192960000000  0.6191530000000 1.0
C      1  0.5046040000000  0.6032550000000  0.5497150000000 1.0
C      1  0.4790260000000  0.6099050000000  0.4329940000000 1.0
C      1  0.4736980000000  0.5250180000000  0.3707090000000 1.0
C      1  0.4831310000000  0.4293980000000  0.4086260000000 1.0
C      1  0.4753190000000  0.4012230000000  0.5436900000000 1.0
C      1  0.4652440000000  0.4700390000000  0.5964710000000 1.0
C      1  0.4808910000000  0.5468620000000  0.5935070000000 1.0
C      1  0.4764780000000  0.6009520000000  0.5088330000000 1.0
C      1  0.4690840000000  0.5811700000000  0.4195960000000 1.0
C      1  0.4795800000000  0.4855920000000  0.4084420000000 1.0
C      1  0.4813340000000  0.4179130000000  0.4574880000000 1.0
C      1  0.6013280000000  0.5122810000000  0.4444480000000 1.0
C      1  0.5970660000000  0.4687160000000  0.4591300000000 1.0
C      1  0.5943720000000  0.4143850000000  0.5118890000000 1.0
C      1  0.5909330000000  0.4438200000000  0.5480940000000 1.0
C      1  0.5925940000000  0.5222550000000  0.5582440000000 1.0
C      1  0.5953110000000  0.5539580000000  0.5000000000000 1.0
C      1  0.6167900000000  0.5620270000000  0.4450260000000 1.0
C      1  0.4210370000000  0.5592970000000  0.5582960000000 1.0
C      1  0.4243330000000  0.5662820000000  0.4950110000000 1.0
C      1  0.4079220000000  0.5192070000000  0.4264270000000 1.0
C      1  0.4229080000000  0.4769390000000  0.4280970000000 1.0
C      1  0.4228900000000  0.4159810000000  0.4779780000000 1.0
C      1  0.4210080000000  0.4329630000000  0.5430620000000 1.0
C      1  0.4418390000000  0.5093080000000  0.5646080000000 1.0
C      1  0.5163410000000  0.5299140000000  0.5984100000000 1.0
C      1  0.5207130000000  0.6163100000000  0.5306900000000 1.0
C      1  0.5079080000000  0.6102630000000  0.4400050000000 1.0
C      1  0.5000050000000  0.5091930000000  0.3836800000000 1.0
C      1  0.5094640000000  0.4240110000000  0.4300000000000 1.0
C      1  0.5080060000000  0.3938570000000  0.5213570000000 1.0
C      1  0.5036320000000  0.4425410000000  0.6027830000000 1.0
C      1  0.3859370000000  0.4580170000000  0.5585710000000 1.0
C      1  0.3937010000000  0.5486520000000  0.5486190000000 1.0
C      1  0.3927050000000  0.5600020000000  0.5073670000000 1.0
C      1  0.4015410000000  0.5411870000000  0.4439250000000 1.0
C      1  0.3974670000000  0.4934950000000  0.4357770000000 1.0
C      1  0.3982060000000  0.4296850000000  0.4725050000000 1.0
C      1  0.3972740000000  0.4313310000000  0.5217700000000 1.0
C      1  0.5174700000000  0.4951480000000  0.5806160000000 1.0
C      1  0.5239510000000  0.5556480000000  0.5374170000000 1.0
C      1  0.5302830000000  0.5802490000000  0.4782680000000 1.0
C      1  0.5319340000000  0.5230890000000  0.4364430000000 1.0
C      1  0.5336090000000  0.4717290000000  0.4339420000000 1.0
C      1  0.5223640000000  0.4227750000000  0.4949420000000 1.0
C      1  0.5216720000000  0.4553580000000  0.5384410000000 1.0
C      1  0.5402490000000  0.4638140000000  0.5109040000000 1.0
C      1  0.5536240000000  0.4790480000000  0.5382010000000 1.0
C      1  0.5411200000000  0.5071550000000  0.5419380000000 1.0
C      1  0.5408930000000  0.5549180000000  0.4949560000000 1.0
C      1  0.5483940000000  0.5430710000000  0.4488420000000 1.0
C      1  0.5439010000000  0.4868590000000  0.4608530000000 1.0
C      1  0.5567740000000  0.4627590000000  0.4812000000000 1.0
C      1  0.5367500000000  0.4861000000000  0.4064840000000 1.0
C      1  0.5385150000000  0.4201550000000  0.4472550000000 1.0
C      1  0.5182340000000  0.4234400000000  0.5346530000000 1.0
C      1  0.5252540000000  0.4673340000000  0.5941270000000 1.0
C      1  0.5261980000000  0.5370090000000  0.5666400000000 1.0
C      1  0.5330330000000  0.6005340000000  0.5049170000000 1.0
C      1  0.5188450000000  0.5806650000000  0.4350050000000 1.0
C      1  0.6015770000000  0.5405930000000  0.4501300000000 1.0
C      1  0.5731420000000  0.4687690000000  0.4372750000000 1.0
C      1  0.5884490000000  0.4274140000000  0.4840970000000 1.0
C      1  0.5818780000000  0.4218580000000  0.5348030000000 1.0
C      1  0.5787640000000  0.4957860000000  0.5642060000000 1.0
C      1  0.5768490000000  0.5424380000000  0.5427910000000 1.0
C      1  0.5904150000000  0.5808650000000  0.4977980000000 1.0
C      1  0.4802710000000  0.4883340000000  0.4805290000000 1.0
C      1  0.4635560000000  0.4753050000000  0.5010730000000 1.0
C      1  0.4684790000000  0.4711390000000  0.5262730000000 1.0
C      1  0.4854870000000  0.5081460000000  0.5272860000000 1.0
C      1  0.4787200000000  0.5377820000000  0.5158290000000 1.0
C      1  0.4806080000000  0.5381360000000  0.4818810000000 1.0
C      1  0.4676930000000  0.5121500000000  0.4692410000000 1.0
C      1  0.5087100000000  0.5041130000000  0.5517990000000 1.0
C      1  0.5097820000000  0.5485570000000  0.5071150000000 1.0
C      1  0.5113320000000  0.5285350000000  0.4790100000000 1.0
C      1  0.5139780000000  0.5025820000000  0.4569330000000 1.0
C      1  0.5067630000000  0.4728310000000  0.4717760000000 1.0
C      1  0.5190220000000  0.4502820000000  0.4909350000000 1.0
C      1  0.4972370000000  0.4731220000000  0.5437890000000 1.0
C      1  0.4339410000000  0.5163280000000  0.4158910000000 1.0
C      1  0.4324080000000  0.4410140000000  0.4483250000000 1.0
C      1  0.4307410000000  0.4114020000000  0.5108330000000 1.0
C      1  0.4077670000000  0.4422320000000  0.5701750000000 1.0
C      1  0.4395830000000  0.5145520000000  0.5914840000000 1.0
C      1  0.4285940000000  0.5887080000000  0.5456960000000 1.0
C      1  0.4424080000000  0.5850350000000  0.4727740000000 1.0
C      1  0.3946510000000  0.5269550000000  0.4995980000000 1.0
C      1  0.4081690000000  0.5448850000000  0.4740530000000 1.0
C      1  0.3948830000000  0.4947800000000  0.4634280000000 1.0
C      1  0.3959300000000  0.4624640000000  0.4742060000000 1.0
C      1  0.3871250000000  0.4539240000000  0.5059590000000 1.0
C      1  0.3912250000000  0.4692760000000  0.5325300000000 1.0
C      1  0.3989590000000  0.5282350000000  0.5307810000000 1.0
C      1  0.5489870000000  0.5761540000000  0.4501640000000 1.0
C      1  0.5394330000000  0.5153720000000  0.4111660000000 1.0
C      1  0.5503250000000  0.4488010000000  0.4509310000000 1.0
C      1  0.5443260000000  0.4108040000000  0.5071360000000 1.0
C      1  0.5456460000000  0.4571210000000  0.5617590000000 1.0
C      1  0.5547480000000  0.5189840000000  0.5707550000000 1.0
C      1  0.5554060000000  0.5678590000000  0.5346610000000 1.0
C      1  0.5690290000000  0.5870110000000  0.4754250000000 1.0
C      1  0.5521100000000  0.5315600000000  0.3930070000000 1.0
C      1  0.5776250000000  0.4620490000000  0.3876910000000 1.0
C      1  0.5635740000000  0.4014290000000  0.4900700000000 1.0
C      1  0.5569160000000  0.4309760000000  0.5646280000000 1.0
C      1  0.5531840000000  0.5076220000000  0.6019580000000 1.0
C      1  0.5589630000000  0.5830790000000  0.5648580000000 1.0
C      1  0.6576600000000  0.5215220000000  0.4925680000000 1.0
C      1  0.5224510000000  0.5059260000000  0.4957840000000 1.0
C      1  0.5762210000000  0.5022950000000  0.5070210000000 1.0
C      1  0.4986450000000  0.4940130000000  0.5047160000000 1.0
C      1  0.6098530000000  0.5046300000000  0.5032360000000 1.0
C      1  0.5458700000000  0.4949070000000  0.5022260000000 1.0
C      1  0.4153920000000  0.4817590000000  0.5032310000000 1.0
C      1  0.6333610000000  0.5126240000000  0.4967390000000 1.0
C      1  0.3934950000000  0.4974320000000  0.4926880000000 1.0
END
