TITL C-3289332-8317-582 -0.00997850039997385 125000 -586.512749729363 0 0 102 (C1) n - 1
REM
REM in /nfs/bkarasulu/CARBON/AIRSS/Generating-Clusters/AIREBO/with-SteepDescent/Higher-Symm/SD-CG/HFTN-CG
REM
REM
REM
REM
REM
REM ./C.cell (b20cbc046b6831c77cfcea5457e17084)
REM
REM compiler GCC version 9.2.1 20190827 (Red Hat 9.2.1-1)
REM options -cpp -mtune=generic -march=x86-64 -g -O0 -fpre-include=/usr/include/finclude/math-vector-fortran.h
REM seed -1003263835 -1931825356 1017454578 2025048158 -707436563 1823953877 -211167934 -151023672 -1384208330 -954764878 -2116016640 -1741290438 128264406 2014087844 -727139454 -1131747826 -1647584410 1913863958 -1493503915 1789362331 -658012020 1442247282 -1689919417 930930778 320343070 -1620242857 1765340653 -705855808 48617922 1378347474 -1441308213 -686587680 -667189557
REM
CELL 1.54180   50.00000   50.00000   50.00000   90.00000   90.00000   90.00000
LATT -1
SFAC C  
C      1  0.4791220000000  0.5055740000000  0.4504720000000 1.0
C      1  0.4521140000000  0.4758160000000  0.5197790000000 1.0
C      1  0.5255760000000  0.4509470000000  0.4783130000000 1.0
C      1  0.4791470000000  0.4826370000000  0.5342330000000 1.0
C      1  0.5217660000000  0.4832940000000  0.4555620000000 1.0
C      1  0.5397650000000  0.5219730000000  0.5348210000000 1.0
C      1  0.4614350000000  0.5214300000000  0.4688010000000 1.0
C      1  0.5529610000000  0.5139860000000  0.5071830000000 1.0
C      1  0.5439850000000  0.4764580000000  0.4757010000000 1.0
C      1  0.5224170000000  0.5439110000000  0.5280650000000 1.0
C      1  0.4737900000000  0.5477950000000  0.4702720000000 1.0
C      1  0.4950510000000  0.4560780000000  0.5201510000000 1.0
C      1  0.5203890000000  0.5300270000000  0.4684270000000 1.0
C      1  0.5430870000000  0.4712310000000  0.5300510000000 1.0
C      1  0.4725050000000  0.4580170000000  0.4765120000000 1.0
C      1  0.5249190000000  0.4956140000000  0.5383150000000 1.0
C      1  0.4696510000000  0.4755460000000  0.4511600000000 1.0
C      1  0.4770580000000  0.5145070000000  0.5460370000000 1.0
C      1  0.5474060000000  0.5285950000000  0.4812570000000 1.0
C      1  0.4516140000000  0.5202250000000  0.5160960000000 1.0
C      1  0.4513690000000  0.4773020000000  0.4884000000000 1.0
C      1  0.4724000000000  0.5406230000000  0.5247200000000 1.0
C      1  0.5022460000000  0.5484340000000  0.4838850000000 1.0
C      1  0.5229120000000  0.4498520000000  0.5315950000000 1.0
C      1  0.5846330000000  0.5414920000000  0.4831560000000 1.0
C      1  0.4848960000000  0.5731290000000  0.5441880000000 1.0
C      1  0.5399210000000  0.4890570000000  0.5746810000000 1.0
C      1  0.5763800000000  0.4567900000000  0.5133840000000 1.0
C      1  0.4175130000000  0.4563990000000  0.4851790000000 1.0
C      1  0.4187610000000  0.5422620000000  0.5123290000000 1.0
C      1  0.4809090000000  0.4227760000000  0.4595680000000 1.0
C      1  0.5126140000000  0.4135750000000  0.5433970000000 1.0
C      1  0.5143390000000  0.5793840000000  0.4616870000000 1.0
C      1  0.5407050000000  0.5140110000000  0.4240610000000 1.0
C      1  0.4589670000000  0.5108470000000  0.5811580000000 1.0
C      1  0.4594560000000  0.4855170000000  0.4143270000000 1.0
C      1  0.4248040000000  0.5399690000000  0.4845600000000 1.0
C      1  0.5129900000000  0.5774780000000  0.5468830000000 1.0
C      1  0.4561830000000  0.4831300000000  0.5774770000000 1.0
C      1  0.4163070000000  0.4600400000000  0.5130390000000 1.0
C      1  0.5766000000000  0.4557590000000  0.4850860000000 1.0
C      1  0.5791060000000  0.5436530000000  0.5128390000000 1.0
C      1  0.5082790000000  0.4183810000000  0.4638680000000 1.0
C      1  0.4847020000000  0.4237270000000  0.5425850000000 1.0
C      1  0.4861260000000  0.5840060000000  0.4606380000000 1.0
C      1  0.4575530000000  0.5139160000000  0.4180360000000 1.0
C      1  0.5392120000000  0.5176650000000  0.5745600000000 1.0
C      1  0.5416570000000  0.4856920000000  0.4211700000000 1.0
C      1  0.5348680000000  0.5721090000000  0.5213970000000 1.0
C      1  0.5178740000000  0.5361210000000  0.5792950000000 1.0
C      1  0.5786510000000  0.5153840000000  0.5294180000000 1.0
C      1  0.5331270000000  0.4208650000000  0.4875130000000 1.0
C      1  0.4705040000000  0.4329820000000  0.5154550000000 1.0
C      1  0.4655070000000  0.5756040000000  0.4867320000000 1.0
C      1  0.5149090000000  0.4661890000000  0.4289360000000 1.0
C      1  0.4808220000000  0.4690950000000  0.5653760000000 1.0
C      1  0.4849140000000  0.5294260000000  0.4269340000000 1.0
C      1  0.5728880000000  0.4820390000000  0.4637730000000 1.0
C      1  0.4245300000000  0.4841970000000  0.5357640000000 1.0
C      1  0.4284330000000  0.5147780000000  0.4640480000000 1.0
C      1  0.4631890000000  0.5709870000000  0.5182630000000 1.0
C      1  0.4875180000000  0.5284720000000  0.5752060000000 1.0
C      1  0.4244880000000  0.5156060000000  0.5326510000000 1.0
C      1  0.4609200000000  0.4286280000000  0.4835210000000 1.0
C      1  0.5344710000000  0.4216540000000  0.5185090000000 1.0
C      1  0.5254680000000  0.5724740000000  0.4901690000000 1.0
C      1  0.4844730000000  0.4640440000000  0.4240610000000 1.0
C      1  0.5138680000000  0.4751170000000  0.5631440000000 1.0
C      1  0.5174480000000  0.5319290000000  0.4345800000000 1.0
C      1  0.4276040000000  0.4821580000000  0.4674070000000 1.0
C      1  0.5745630000000  0.4827640000000  0.5333160000000 1.0
C      1  0.5730260000000  0.5157590000000  0.4638140000000 1.0
C      1  0.5560360000000  0.5598640000000  0.4845390000000 1.0
C      1  0.4757470000000  0.5581680000000  0.5659000000000 1.0
C      1  0.5632080000000  0.4780940000000  0.5644280000000 1.0
C      1  0.5648640000000  0.4338550000000  0.5246850000000 1.0
C      1  0.4297090000000  0.4323780000000  0.4780320000000 1.0
C      1  0.4307630000000  0.5654140000000  0.5234250000000 1.0
C      1  0.4747640000000  0.4346250000000  0.4353920000000 1.0
C      1  0.5176060000000  0.4412340000000  0.5625520000000 1.0
C      1  0.5243010000000  0.5635160000000  0.4415380000000 1.0
C      1  0.5652190000000  0.5235500000000  0.4336780000000 1.0
C      1  0.4457790000000  0.5238440000000  0.5553960000000 1.0
C      1  0.4388490000000  0.4733220000000  0.4375670000000 1.0
C      1  0.4371260000000  0.5630080000000  0.4751180000000 1.0
C      1  0.5221930000000  0.5639280000000  0.5713410000000 1.0
C      1  0.4318520000000  0.4756970000000  0.5660470000000 1.0
C      1  0.4415950000000  0.4447710000000  0.5266810000000 1.0
C      1  0.5627950000000  0.4329160000000  0.4761500000000 1.0
C      1  0.5660130000000  0.5656690000000  0.5228100000000 1.0
C      1  0.5237450000000  0.4412610000000  0.4470840000000 1.0
C      1  0.4764990000000  0.4381480000000  0.5643420000000 1.0
C      1  0.4767130000000  0.5599970000000  0.4393510000000 1.0
C      1  0.4353120000000  0.5220660000000  0.4324600000000 1.0
C      1  0.5628830000000  0.5271350000000  0.5572960000000 1.0
C      1  0.5653350000000  0.4752060000000  0.4322780000000 1.0
C      1  0.4593720000000  0.5055100000000  0.4939980000000 1.0
C      1  0.5449490000000  0.4861890000000  0.5031700000000 1.0
C      1  0.5063430000000  0.5045370000000  0.4614050000000 1.0
C      1  0.4988500000000  0.4584890000000  0.4898730000000 1.0
C      1  0.5030900000000  0.4969400000000  0.5193570000000 1.0
C      1  0.4990620000000  0.5378850000000  0.5116330000000 1.0
END
