TITL C-3289333-7213-228 0.00226699567000173 125000 -626.210537789724 0 0 108 (C1) n - 1
REM
REM in /nfs/bkarasulu/CARBON/AIRSS/Generating-Clusters/AIREBO/with-SteepDescent/Higher-Symm/SD-CG/HFTN-CG
REM
REM
REM
REM
REM
REM ./C.cell (b20cbc046b6831c77cfcea5457e17084)
REM
REM compiler GCC version 9.2.1 20190827 (Red Hat 9.2.1-1)
REM options -cpp -mtune=generic -march=x86-64 -g -O0 -fpre-include=/usr/include/finclude/math-vector-fortran.h
REM seed -1323749190 -1736763818 -276557227 1917479644 -141513321 -170208746 -1317301174 1927850024 -1487044055 864487639 -1284866546 -1550875994 -406871525 110491514 366753960 -7136041 -1061687145 -62914381 178592979 -112428273 -1601729455 661337181 -1139964563 1161641750 1326462156 817470231 1121353693 1882754578 -287326927 -102085327 -1812741595 -1886496516 -684151525
REM
CELL 1.54180   50.00000   50.00000   50.00000   90.00000   90.00000   90.00000
LATT -1
SFAC C  
C      1  0.5143450000000  0.4706540000000  0.5277110000000 1.0
C      1  0.4658730000000  0.4684310000000  0.5305370000000 1.0
C      1  0.4653900000000  0.4677410000000  0.4819950000000 1.0
C      1  0.5110050000000  0.4717560000000  0.4575620000000 1.0
C      1  0.5475540000000  0.4712470000000  0.4932590000000 1.0
C      1  0.5230900000000  0.5212910000000  0.5469460000000 1.0
C      1  0.4840140000000  0.5292140000000  0.5181590000000 1.0
C      1  0.4662230000000  0.5302130000000  0.4827180000000 1.0
C      1  0.5091240000000  0.5265480000000  0.4585120000000 1.0
C      1  0.5370140000000  0.5267140000000  0.4986930000000 1.0
C      1  0.4797730000000  0.5278650000000  0.4178740000000 1.0
C      1  0.5840610000000  0.5249240000000  0.4627620000000 1.0
C      1  0.5578600000000  0.5248630000000  0.5692460000000 1.0
C      1  0.4517660000000  0.5263600000000  0.5675400000000 1.0
C      1  0.4175240000000  0.5283980000000  0.4817620000000 1.0
C      1  0.4802550000000  0.4728490000000  0.4157170000000 1.0
C      1  0.5837880000000  0.4759990000000  0.4583880000000 1.0
C      1  0.5582510000000  0.4752020000000  0.5681010000000 1.0
C      1  0.4527470000000  0.4780310000000  0.5755510000000 1.0
C      1  0.4145270000000  0.4793120000000  0.4787170000000 1.0
C      1  0.4358520000000  0.5437650000000  0.4608490000000 1.0
C      1  0.5076810000000  0.5352620000000  0.4282790000000 1.0
C      1  0.5829830000000  0.5330320000000  0.4897490000000 1.0
C      1  0.5316030000000  0.5434690000000  0.5679350000000 1.0
C      1  0.4388850000000  0.5415420000000  0.5423950000000 1.0
C      1  0.4367660000000  0.4649810000000  0.4623070000000 1.0
C      1  0.5084090000000  0.4667790000000  0.4248660000000 1.0
C      1  0.5792910000000  0.4650130000000  0.4866680000000 1.0
C      1  0.5333180000000  0.4602950000000  0.5735590000000 1.0
C      1  0.4425780000000  0.4607180000000  0.5520080000000 1.0
C      1  0.4805880000000  0.4779880000000  0.5738560000000 1.0
C      1  0.4220630000000  0.4763290000000  0.5051060000000 1.0
C      1  0.4607990000000  0.4704580000000  0.4423910000000 1.0
C      1  0.5593720000000  0.4770480000000  0.4452650000000 1.0
C      1  0.5655850000000  0.4744280000000  0.5411210000000 1.0
C      1  0.4791610000000  0.5269910000000  0.5683820000000 1.0
C      1  0.4280090000000  0.5290980000000  0.5126110000000 1.0
C      1  0.4595920000000  0.5297370000000  0.4434950000000 1.0
C      1  0.5593250000000  0.5268340000000  0.4504770000000 1.0
C      1  0.5660380000000  0.5239490000000  0.5427470000000 1.0
C      1  0.5260400000000  0.4851380000000  0.5895880000000 1.0
C      1  0.4199910000000  0.4827170000000  0.5525080000000 1.0
C      1  0.4266320000000  0.4905840000000  0.4423280000000 1.0
C      1  0.5261820000000  0.4861000000000  0.4100430000000 1.0
C      1  0.5976560000000  0.4814780000000  0.5036230000000 1.0
C      1  0.5233850000000  0.5184730000000  0.5883060000000 1.0
C      1  0.4187910000000  0.5148160000000  0.5486220000000 1.0
C      1  0.4211260000000  0.5214980000000  0.4397570000000 1.0
C      1  0.5276580000000  0.5178760000000  0.4131110000000 1.0
C      1  0.5959850000000  0.5136970000000  0.5061600000000 1.0
C      1  0.4058100000000  0.4850210000000  0.5258250000000 1.0
C      1  0.4474200000000  0.4832750000000  0.4146220000000 1.0
C      1  0.5544890000000  0.4893970000000  0.4204450000000 1.0
C      1  0.5906990000000  0.4845830000000  0.5328790000000 1.0
C      1  0.4963350000000  0.4898260000000  0.5935550000000 1.0
C      1  0.3989270000000  0.5150350000000  0.5232200000000 1.0
C      1  0.4455250000000  0.5148330000000  0.4170220000000 1.0
C      1  0.5564900000000  0.5201530000000  0.4233600000000 1.0
C      1  0.5913340000000  0.5150460000000  0.5360960000000 1.0
C      1  0.4927660000000  0.5200950000000  0.5922090000000 1.0
C      1  0.4518440000000  0.4835380000000  0.5077140000000 1.0
C      1  0.4832320000000  0.4850060000000  0.4598610000000 1.0
C      1  0.5376460000000  0.4841290000000  0.4659950000000 1.0
C      1  0.5425110000000  0.4824540000000  0.5221180000000 1.0
C      1  0.4902540000000  0.4842940000000  0.5442320000000 1.0
C      1  0.4556290000000  0.5143110000000  0.5079600000000 1.0
C      1  0.4813540000000  0.5140160000000  0.4616400000000 1.0
C      1  0.5370600000000  0.5153340000000  0.4682590000000 1.0
C      1  0.5427970000000  0.5132620000000  0.5242010000000 1.0
C      1  0.4936240000000  0.5156670000000  0.5436850000000 1.0
C      1  0.4558430000000  0.4321570000000  0.5423260000000 1.0
C      1  0.4648670000000  0.4121790000000  0.4773660000000 1.0
C      1  0.5118490000000  0.4365620000000  0.4400870000000 1.0
C      1  0.5633240000000  0.4352970000000  0.4909360000000 1.0
C      1  0.5247800000000  0.4377640000000  0.5577540000000 1.0
C      1  0.4564500000000  0.5664010000000  0.5364750000000 1.0
C      1  0.4502430000000  0.5673810000000  0.4740150000000 1.0
C      1  0.5108360000000  0.5641550000000  0.4459290000000 1.0
C      1  0.5642410000000  0.5558400000000  0.4960110000000 1.0
C      1  0.5250760000000  0.5689020000000  0.5523520000000 1.0
C      1  0.5074020000000  0.5632630000000  0.4750500000000 1.0
C      1  0.5303720000000  0.5581690000000  0.4984220000000 1.0
C      1  0.5138300000000  0.5664030000000  0.5255980000000 1.0
C      1  0.4819640000000  0.5607290000000  0.5204230000000 1.0
C      1  0.4782930000000  0.5590600000000  0.4876730000000 1.0
C      1  0.5085650000000  0.4420710000000  0.4735560000000 1.0
C      1  0.5305590000000  0.4420360000000  0.4971590000000 1.0
C      1  0.5141970000000  0.4388020000000  0.5269080000000 1.0
C      1  0.4807520000000  0.4391650000000  0.5206600000000 1.0
C      1  0.4791050000000  0.4370600000000  0.4871880000000 1.0
C      1  0.5151820000000  0.4136570000000  0.4282930000000 1.0
C      1  0.5739750000000  0.4116720000000  0.4889290000000 1.0
C      1  0.5258480000000  0.4126400000000  0.5691760000000 1.0
C      1  0.4489900000000  0.4084150000000  0.5503920000000 1.0
C      1  0.4528110000000  0.3912820000000  0.4690660000000 1.0
C      1  0.5157820000000  0.5873300000000  0.4320950000000 1.0
C      1  0.5767600000000  0.5804650000000  0.4995570000000 1.0
C      1  0.5296900000000  0.5933780000000  0.5638590000000 1.0
C      1  0.4490480000000  0.5905790000000  0.5431090000000 1.0
C      1  0.4410400000000  0.5917950000000  0.4746350000000 1.0
C      1  0.4805910000000  0.5018100000000  0.4029990000000 1.0
C      1  0.5623800000000  0.5000520000000  0.5821330000000 1.0
C      1  0.4407220000000  0.5034070000000  0.5800160000000 1.0
C      1  0.4053720000000  0.5053820000000  0.4732300000000 1.0
C      1  0.5982640000000  0.5006300000000  0.4568480000000 1.0
C      1  0.5050570000000  0.5269300000000  0.4915330000000 1.0
C      1  0.4930340000000  0.4717390000000  0.5013880000000 1.0
C      1  0.5019780000000  0.4981780000000  0.5018870000000 1.0
END
