TITL C-3289322-3858-199 0.000498715888343578 125000 -305.831062140701 0 0 55 (C1) n - 1
REM
REM in /nfs/bkarasulu/CARBON/AIRSS/Generating-Clusters/AIREBO/with-SteepDescent/Higher-Symm/SD-CG/HFTN-CG
REM
REM
REM
REM
REM
REM ./C.cell (b20cbc046b6831c77cfcea5457e17084)
REM
REM compiler GCC version 9.2.1 20190827 (Red Hat 9.2.1-1)
REM options -cpp -mtune=generic -march=x86-64 -g -O0 -fpre-include=/usr/include/finclude/math-vector-fortran.h
REM seed -1525213702 2126625848 567417466 418257379 -636152230 -999422768 -1095235402 -1228287821 -2091115391 -869419170 664352746 -923963620 -1609327456 1426650336 -580060460 -2048358390 -1387708020 -1652385316 -1407426441 275587772 -1734091848 -94089368 451752161 -118882736 1749177240 1426484414 -1602119320 -1358790535 -409293581 1818007841 -1798748703 -1496595642 599281731
REM
CELL 1.54180   50.00000   50.00000   50.00000   90.00000   90.00000   90.00000
LATT -1
SFAC C  
C      1  0.5182720000000  0.5412970000000  0.4466640000000 1.0
C      1  0.4692120000000  0.5367580000000  0.5078990000000 1.0
C      1  0.5300860000000  0.5531990000000  0.5302530000000 1.0
C      1  0.4915700000000  0.5434840000000  0.4610290000000 1.0
C      1  0.5452320000000  0.5399450000000  0.5045630000000 1.0
C      1  0.4703690000000  0.5362860000000  0.5378340000000 1.0
C      1  0.5593290000000  0.4691780000000  0.4810260000000 1.0
C      1  0.4550640000000  0.4691300000000  0.4585010000000 1.0
C      1  0.4889770000000  0.4304880000000  0.5456760000000 1.0
C      1  0.4406400000000  0.4705810000000  0.4823540000000 1.0
C      1  0.5537010000000  0.4746010000000  0.4552750000000 1.0
C      1  0.5140120000000  0.4288770000000  0.5461450000000 1.0
C      1  0.4646470000000  0.5608850000000  0.4655520000000 1.0
C      1  0.4845550000000  0.5612020000000  0.5484970000000 1.0
C      1  0.5521840000000  0.5577840000000  0.4805740000000 1.0
C      1  0.5390800000000  0.5565430000000  0.4566990000000 1.0
C      1  0.5101290000000  0.5666280000000  0.5409100000000 1.0
C      1  0.4536710000000  0.5579480000000  0.4884690000000 1.0
C      1  0.4454500000000  0.4719020000000  0.5421970000000 1.0
C      1  0.5758890000000  0.4800660000000  0.5298350000000 1.0
C      1  0.4862790000000  0.4758480000000  0.4197810000000 1.0
C      1  0.5564780000000  0.4748240000000  0.5482950000000 1.0
C      1  0.4267500000000  0.4775710000000  0.5229820000000 1.0
C      1  0.5098740000000  0.4664390000000  0.4305530000000 1.0
C      1  0.5450290000000  0.4976810000000  0.5603950000000 1.0
C      1  0.5285040000000  0.4893070000000  0.4411450000000 1.0
C      1  0.4363530000000  0.4983440000000  0.4978830000000 1.0
C      1  0.4528780000000  0.4938220000000  0.5575640000000 1.0
C      1  0.4697800000000  0.4925200000000  0.4444000000000 1.0
C      1  0.5662390000000  0.4920970000000  0.5015310000000 1.0
C      1  0.5042580000000  0.4502440000000  0.4528970000000 1.0
C      1  0.4516530000000  0.4517940000000  0.5055510000000 1.0
C      1  0.5347300000000  0.4509480000000  0.5415110000000 1.0
C      1  0.4736950000000  0.4447870000000  0.4583280000000 1.0
C      1  0.5486040000000  0.4576560000000  0.5111700000000 1.0
C      1  0.4693880000000  0.4513920000000  0.5345880000000 1.0
C      1  0.4851040000000  0.5117100000000  0.4667290000000 1.0
C      1  0.4823840000000  0.5085640000000  0.5509570000000 1.0
C      1  0.5369440000000  0.5105600000000  0.4931500000000 1.0
C      1  0.5143940000000  0.5004120000000  0.4698020000000 1.0
C      1  0.5137530000000  0.5038710000000  0.5500270000000 1.0
C      1  0.4675460000000  0.5089870000000  0.4936590000000 1.0
C      1  0.4710820000000  0.4796900000000  0.5064670000000 1.0
C      1  0.5182200000000  0.4767600000000  0.5305900000000 1.0
C      1  0.5126360000000  0.4675740000000  0.4787650000000 1.0
C      1  0.5277310000000  0.4813690000000  0.5019970000000 1.0
C      1  0.4861540000000  0.4803590000000  0.5338190000000 1.0
C      1  0.4832680000000  0.4595240000000  0.4851620000000 1.0
C      1  0.5145820000000  0.5176870000000  0.4320020000000 1.0
C      1  0.4266850000000  0.5174330000000  0.5237840000000 1.0
C      1  0.5385170000000  0.5244430000000  0.5407560000000 1.0
C      1  0.4874500000000  0.5147340000000  0.4256580000000 1.0
C      1  0.5641720000000  0.5177100000000  0.5208280000000 1.0
C      1  0.4445660000000  0.5196340000000  0.5448290000000 1.0
C      1  0.4930280000000  0.5526980000000  0.4924810000000 1.0
END
