TITL C-3289321-8710-431 -0.0068299387452827 125000 -571.06253847894 0 0 104 (C1) n - 1
REM
REM in /nfs/bkarasulu/CARBON/AIRSS/Generating-Clusters/AIREBO/with-SteepDescent/Higher-Symm/SD-CG/HFTN-CG
REM
REM
REM
REM
REM
REM ./C.cell (b20cbc046b6831c77cfcea5457e17084)
REM
REM compiler GCC version 9.2.1 20190827 (Red Hat 9.2.1-1)
REM options -cpp -mtune=generic -march=x86-64 -g -O0 -fpre-include=/usr/include/finclude/math-vector-fortran.h
REM seed -540034513 1303518336 418193058 -1585871853 -1766367581 928780934 -1100002635 -480977702 1767185001 -1590553214 481529009 -732943237 1364058560 185387039 1474855747 1868195909 -2034752096 -623134969 487816298 1334298350 -1068875767 1821485233 463174837 1947201150 272147053 228770212 -805910896 -459907355 833641345 2039366777 1703862769 -174958519 1112895950
REM
CELL 1.54180   50.00000   50.00000   50.00000   90.00000   90.00000   90.00000
LATT -1
SFAC C  
C      1  0.5851290000000  0.5464640000000  0.4627440000000 1.0
C      1  0.5838860000000  0.5124310000000  0.5594040000000 1.0
C      1  0.5882940000000  0.4457840000000  0.4775430000000 1.0
C      1  0.4730440000000  0.4540830000000  0.4461870000000 1.0
C      1  0.4771590000000  0.5725700000000  0.4827920000000 1.0
C      1  0.4765090000000  0.4778200000000  0.5686980000000 1.0
C      1  0.5396480000000  0.4412060000000  0.5602660000000 1.0
C      1  0.5376240000000  0.4756040000000  0.4180820000000 1.0
C      1  0.5365200000000  0.5824140000000  0.5221170000000 1.0
C      1  0.5103870000000  0.5703190000000  0.4445760000000 1.0
C      1  0.5099960000000  0.5108840000000  0.5880370000000 1.0
C      1  0.5089570000000  0.4207210000000  0.4645920000000 1.0
C      1  0.4694110000000  0.4487860000000  0.5612720000000 1.0
C      1  0.4630610000000  0.4770290000000  0.4274260000000 1.0
C      1  0.4718220000000  0.5865390000000  0.5093970000000 1.0
C      1  0.5277980000000  0.5476840000000  0.4866080000000 1.0
C      1  0.5287190000000  0.4882560000000  0.5462790000000 1.0
C      1  0.5283120000000  0.4667450000000  0.4657200000000 1.0
C      1  0.5508720000000  0.5610090000000  0.5038900000000 1.0
C      1  0.5525820000000  0.4675410000000  0.5487630000000 1.0
C      1  0.5512310000000  0.4746940000000  0.4460480000000 1.0
C      1  0.5797120000000  0.4852380000000  0.5601610000000 1.0
C      1  0.5808610000000  0.4628060000000  0.4570380000000 1.0
C      1  0.5782110000000  0.5635770000000  0.4833020000000 1.0
C      1  0.5452770000000  0.5375630000000  0.4411500000000 1.0
C      1  0.5428650000000  0.5341570000000  0.5611630000000 1.0
C      1  0.5463380000000  0.4307980000000  0.4937530000000 1.0
C      1  0.4700190000000  0.3778210000000  0.5470000000000 1.0
C      1  0.4719320000000  0.5057880000000  0.3615250000000 1.0
C      1  0.4581530000000  0.5891960000000  0.5786070000000 1.0
C      1  0.4503990000000  0.4528590000000  0.5090500000000 1.0
C      1  0.4488470000000  0.5175480000000  0.4552810000000 1.0
C      1  0.4488550000000  0.5284280000000  0.5338610000000 1.0
C      1  0.4791230000000  0.4016260000000  0.5456760000000 1.0
C      1  0.4789480000000  0.5007240000000  0.3855340000000 1.0
C      1  0.4716510000000  0.5828300000000  0.5579070000000 1.0
C      1  0.6000570000000  0.4851370000000  0.4475480000000 1.0
C      1  0.5900800000000  0.5637720000000  0.5104710000000 1.0
C      1  0.5919340000000  0.4636030000000  0.5439970000000 1.0
C      1  0.4842740000000  0.4923180000000  0.4476290000000 1.0
C      1  0.4864580000000  0.5459510000000  0.5171890000000 1.0
C      1  0.4836650000000  0.4600450000000  0.5325010000000 1.0
C      1  0.4986580000000  0.4321970000000  0.4955940000000 1.0
C      1  0.4982470000000  0.5375130000000  0.4411480000000 1.0
C      1  0.5000670000000  0.5335610000000  0.5647180000000 1.0
C      1  0.4881100000000  0.5752170000000  0.5329380000000 1.0
C      1  0.4908000000000  0.4297110000000  0.5469810000000 1.0
C      1  0.4879770000000  0.4919320000000  0.4131320000000 1.0
C      1  0.4732420000000  0.5166140000000  0.5744480000000 1.0
C      1  0.4722840000000  0.4289390000000  0.4764690000000 1.0
C      1  0.4734040000000  0.5569360000000  0.4470210000000 1.0
C      1  0.4227860000000  0.4467380000000  0.4892380000000 1.0
C      1  0.4231200000000  0.5396180000000  0.4595640000000 1.0
C      1  0.4224140000000  0.5147760000000  0.5503370000000 1.0
C      1  0.4936340000000  0.5440660000000  0.4858530000000 1.0
C      1  0.4947930000000  0.4891220000000  0.5434170000000 1.0
C      1  0.4944060000000  0.4680410000000  0.4687210000000 1.0
C      1  0.4797860000000  0.4670340000000  0.4994310000000 1.0
C      1  0.4794860000000  0.5174380000000  0.4700640000000 1.0
C      1  0.4787480000000  0.5139520000000  0.5265590000000 1.0
C      1  0.4852370000000  0.4233010000000  0.4463140000000 1.0
C      1  0.4875180000000  0.5862010000000  0.4552160000000 1.0
C      1  0.4868800000000  0.4935300000000  0.5948810000000 1.0
C      1  0.4037820000000  0.5302500000000  0.4859220000000 1.0
C      1  0.4048360000000  0.4912630000000  0.5331620000000 1.0
C      1  0.4054990000000  0.4755410000000  0.4812150000000 1.0
C      1  0.5324440000000  0.5564230000000  0.4572300000000 1.0
C      1  0.5316580000000  0.5094220000000  0.5682380000000 1.0
C      1  0.5325710000000  0.4366580000000  0.4701510000000 1.0
C      1  0.4456100000000  0.5737290000000  0.5072450000000 1.0
C      1  0.4394360000000  0.4462280000000  0.5582960000000 1.0
C      1  0.4351470000000  0.4869660000000  0.4336070000000 1.0
C      1  0.5696300000000  0.5276510000000  0.4490590000000 1.0
C      1  0.5682940000000  0.5337210000000  0.5500920000000 1.0
C      1  0.5702650000000  0.4432370000000  0.4994240000000 1.0
C      1  0.4145490000000  0.5190010000000  0.5161540000000 1.0
C      1  0.4148140000000  0.4705750000000  0.5121400000000 1.0
C      1  0.4138840000000  0.5011640000000  0.4744390000000 1.0
C      1  0.4482640000000  0.4510010000000  0.4693300000000 1.0
C      1  0.4505480000000  0.5543290000000  0.4717330000000 1.0
C      1  0.4503530000000  0.4971890000000  0.5584870000000 1.0
C      1  0.5234520000000  0.4895060000000  0.5157230000000 1.0
C      1  0.5226220000000  0.4929300000000  0.4822960000000 1.0
C      1  0.5216070000000  0.5206040000000  0.5021300000000 1.0
C      1  0.5128600000000  0.4616630000000  0.5052160000000 1.0
C      1  0.5126880000000  0.5156070000000  0.4629570000000 1.0
C      1  0.5093890000000  0.5271160000000  0.5332000000000 1.0
C      1  0.5252520000000  0.4323040000000  0.5154590000000 1.0
C      1  0.5236090000000  0.5184610000000  0.4316790000000 1.0
C      1  0.5232540000000  0.5552500000000  0.5583210000000 1.0
C      1  0.4424460000000  0.4806670000000  0.4950730000000 1.0
C      1  0.4407540000000  0.5185400000000  0.4859590000000 1.0
C      1  0.4416940000000  0.4988390000000  0.5199240000000 1.0
C      1  0.5733170000000  0.5005720000000  0.4478970000000 1.0
C      1  0.5716620000000  0.5483350000000  0.5277190000000 1.0
C      1  0.5720570000000  0.4555750000000  0.5234860000000 1.0
C      1  0.5181470000000  0.4948750000000  0.4158010000000 1.0
C      1  0.5175750000000  0.5745320000000  0.5397930000000 1.0
C      1  0.5207700000000  0.4291160000000  0.5442590000000 1.0
C      1  0.4492100000000  0.5419230000000  0.5033880000000 1.0
C      1  0.4450680000000  0.4702520000000  0.5380800000000 1.0
C      1  0.4487130000000  0.4846390000000  0.4639250000000 1.0
C      1  0.4772360000000  0.4998300000000  0.4984030000000 1.0
C      1  0.6118010000000  0.4325460000000  0.4775030000000 1.0
END
