TITL C-3289325-7307-6 0.00878172560005457 125000 -1014.29267466911 0 0 190 (C1) n - 1
REM
REM in /nfs/bkarasulu/CARBON/AIRSS/Generating-Clusters/AIREBO/with-SteepDescent/Higher-Symm/SD-CG/HFTN-CG
REM
REM
REM
REM
REM
REM ./C.cell (b20cbc046b6831c77cfcea5457e17084)
REM
REM compiler GCC version 9.2.1 20190827 (Red Hat 9.2.1-1)
REM options -cpp -mtune=generic -march=x86-64 -g -O0 -fpre-include=/usr/include/finclude/math-vector-fortran.h
REM seed 1280612162 1961328990 605057064 -649583286 1621487577 -611742624 496797316 27531343 -400054520 -858741487 2140413961 2020730047 -1269221347 1094336384 1876886197 -1771107778 859798298 -1074586331 715404694 617249515 277224570 -1413128884 -590705754 288997443 959018213 -1763737824 629517479 1401034082 615846146 844223307 -1348049922 -1533885624 -1856686933
REM
CELL 1.54180   50.00000   50.00000   50.00000   90.00000   90.00000   90.00000
LATT -1
SFAC C  
C      1  0.4412530000000  0.5231710000000  0.4636070000000 1.0
C      1  0.4786270000000  0.5609890000000  0.4748020000000 1.0
C      1  0.5345750000000  0.5588620000000  0.4769080000000 1.0
C      1  0.5638640000000  0.5122530000000  0.4736310000000 1.0
C      1  0.5467990000000  0.4626820000000  0.4743200000000 1.0
C      1  0.4911610000000  0.4395320000000  0.4727950000000 1.0
C      1  0.4530030000000  0.4648670000000  0.4661860000000 1.0
C      1  0.5292720000000  0.5783130000000  0.5789430000000 1.0
C      1  0.5791320000000  0.5255390000000  0.5735680000000 1.0
C      1  0.5755870000000  0.4675400000000  0.5563920000000 1.0
C      1  0.4995640000000  0.4151180000000  0.5752390000000 1.0
C      1  0.4494310000000  0.4390810000000  0.5743750000000 1.0
C      1  0.4284590000000  0.5101440000000  0.5620300000000 1.0
C      1  0.4687710000000  0.5689200000000  0.5722540000000 1.0
C      1  0.4837670000000  0.4591090000000  0.5980480000000 1.0
C      1  0.4622860000000  0.4858100000000  0.6003340000000 1.0
C      1  0.4758900000000  0.5150120000000  0.6107180000000 1.0
C      1  0.4964230000000  0.5401820000000  0.6005340000000 1.0
C      1  0.5292520000000  0.5313940000000  0.6015390000000 1.0
C      1  0.5472310000000  0.4932960000000  0.5938780000000 1.0
C      1  0.5152050000000  0.4579560000000  0.5924040000000 1.0
C      1  0.4979020000000  0.5605450000000  0.4313880000000 1.0
C      1  0.5459920000000  0.5351600000000  0.4261950000000 1.0
C      1  0.5543720000000  0.4837730000000  0.4245450000000 1.0
C      1  0.5221060000000  0.4435490000000  0.4409990000000 1.0
C      1  0.4740700000000  0.4408050000000  0.4425300000000 1.0
C      1  0.4452890000000  0.4895400000000  0.4336640000000 1.0
C      1  0.4441920000000  0.5356070000000  0.4342900000000 1.0
C      1  0.3997480000000  0.4633140000000  0.4817680000000 1.0
C      1  0.3985200000000  0.5500920000000  0.4772250000000 1.0
C      1  0.4745610000000  0.6027660000000  0.4793960000000 1.0
C      1  0.5684410000000  0.5793690000000  0.4890710000000 1.0
C      1  0.6075740000000  0.4898120000000  0.4746790000000 1.0
C      1  0.5616840000000  0.4066130000000  0.4813690000000 1.0
C      1  0.4572920000000  0.3984200000000  0.4859380000000 1.0
C      1  0.4728120000000  0.5237700000000  0.4881740000000 1.0
C      1  0.5000550000000  0.5329120000000  0.4931280000000 1.0
C      1  0.5248030000000  0.5195790000000  0.4849980000000 1.0
C      1  0.5358890000000  0.4945140000000  0.4957550000000 1.0
C      1  0.5142170000000  0.4719140000000  0.4955390000000 1.0
C      1  0.4831760000000  0.4737570000000  0.5019550000000 1.0
C      1  0.4706110000000  0.4945460000000  0.4848750000000 1.0
C      1  0.5081240000000  0.5907950000000  0.4436840000000 1.0
C      1  0.5751330000000  0.5492620000000  0.4371150000000 1.0
C      1  0.5862810000000  0.4722540000000  0.4222710000000 1.0
C      1  0.5347860000000  0.4122330000000  0.4371460000000 1.0
C      1  0.4543080000000  0.4154110000000  0.4315320000000 1.0
C      1  0.4138570000000  0.4777040000000  0.4283670000000 1.0
C      1  0.4323200000000  0.5630860000000  0.4381490000000 1.0
C      1  0.4683370000000  0.5056680000000  0.4528140000000 1.0
C      1  0.4836160000000  0.5361100000000  0.4520390000000 1.0
C      1  0.5160530000000  0.5455380000000  0.4559290000000 1.0
C      1  0.5365860000000  0.5184770000000  0.4542980000000 1.0
C      1  0.5353930000000  0.4852260000000  0.4518960000000 1.0
C      1  0.5089680000000  0.4665500000000  0.4623560000000 1.0
C      1  0.4795630000000  0.4740720000000  0.4470170000000 1.0
C      1  0.5672420000000  0.5224070000000  0.5198440000000 1.0
C      1  0.5560870000000  0.4624630000000  0.5153330000000 1.0
C      1  0.5190930000000  0.4254870000000  0.5168090000000 1.0
C      1  0.4497190000000  0.4492540000000  0.5241510000000 1.0
C      1  0.4346660000000  0.4994210000000  0.5146920000000 1.0
C      1  0.4513560000000  0.5507350000000  0.5197560000000 1.0
C      1  0.5182340000000  0.5684610000000  0.5276340000000 1.0
C      1  0.4977050000000  0.5725960000000  0.5902750000000 1.0
C      1  0.5307980000000  0.5572640000000  0.6115830000000 1.0
C      1  0.5741710000000  0.4991780000000  0.5904380000000 1.0
C      1  0.5344850000000  0.4713310000000  0.6054570000000 1.0
C      1  0.4748630000000  0.4286810000000  0.5944180000000 1.0
C      1  0.4378980000000  0.4649940000000  0.5889760000000 1.0
C      1  0.4275090000000  0.5401120000000  0.5779120000000 1.0
C      1  0.4301500000000  0.4153880000000  0.4981460000000 1.0
C      1  0.3927090000000  0.4972450000000  0.4913660000000 1.0
C      1  0.4385260000000  0.5870940000000  0.5099700000000 1.0
C      1  0.5364050000000  0.6011670000000  0.5138560000000 1.0
C      1  0.6095320000000  0.5365850000000  0.5011440000000 1.0
C      1  0.6076250000000  0.4647110000000  0.4976510000000 1.0
C      1  0.5099930000000  0.3956590000000  0.5036990000000 1.0
C      1  0.4222570000000  0.4478550000000  0.5564190000000 1.0
C      1  0.4052180000000  0.5221980000000  0.5403150000000 1.0
C      1  0.4836750000000  0.5929970000000  0.5590660000000 1.0
C      1  0.5568180000000  0.5813180000000  0.5684560000000 1.0
C      1  0.5941640000000  0.5192660000000  0.5468000000000 1.0
C      1  0.5776950000000  0.4426250000000  0.5421910000000 1.0
C      1  0.4822260000000  0.4009330000000  0.5499530000000 1.0
C      1  0.5230030000000  0.5223880000000  0.4046350000000 1.0
C      1  0.5334080000000  0.4942590000000  0.3993310000000 1.0
C      1  0.5147190000000  0.4710560000000  0.3980340000000 1.0
C      1  0.4861550000000  0.4757270000000  0.4139710000000 1.0
C      1  0.4647330000000  0.4930170000000  0.3989980000000 1.0
C      1  0.4650550000000  0.5237920000000  0.4101140000000 1.0
C      1  0.4936700000000  0.5363370000000  0.4073160000000 1.0
C      1  0.4655270000000  0.6000350000000  0.5061520000000 1.0
C      1  0.5624360000000  0.5897400000000  0.5146530000000 1.0
C      1  0.6175810000000  0.5049330000000  0.5028720000000 1.0
C      1  0.5630800000000  0.4025450000000  0.5085570000000 1.0
C      1  0.4611050000000  0.3973400000000  0.5158010000000 1.0
C      1  0.3949830000000  0.4611790000000  0.5114100000000 1.0
C      1  0.3921830000000  0.5543650000000  0.5045110000000 1.0
C      1  0.4164980000000  0.4702220000000  0.5314660000000 1.0
C      1  0.4046680000000  0.5485710000000  0.5292570000000 1.0
C      1  0.4842440000000  0.5894630000000  0.5267980000000 1.0
C      1  0.5677390000000  0.5699030000000  0.5383000000000 1.0
C      1  0.5913930000000  0.4986490000000  0.5195560000000 1.0
C      1  0.5539860000000  0.4211500000000  0.5355300000000 1.0
C      1  0.4775910000000  0.4206740000000  0.5252940000000 1.0
C      1  0.4189520000000  0.5014190000000  0.4701370000000 1.0
C      1  0.4474100000000  0.5734220000000  0.4801090000000 1.0
C      1  0.5236190000000  0.5889670000000  0.4883070000000 1.0
C      1  0.5755650000000  0.5411050000000  0.4813390000000 1.0
C      1  0.5801190000000  0.4610190000000  0.4779990000000 1.0
C      1  0.5092710000000  0.4177980000000  0.4790400000000 1.0
C      1  0.4479970000000  0.4365080000000  0.4783480000000 1.0
C      1  0.4833930000000  0.5653000000000  0.3945630000000 1.0
C      1  0.5323520000000  0.5510550000000  0.3922210000000 1.0
C      1  0.5638010000000  0.4999200000000  0.3893460000000 1.0
C      1  0.5316840000000  0.4463330000000  0.4023410000000 1.0
C      1  0.4920380000000  0.4439370000000  0.4069340000000 1.0
C      1  0.4493970000000  0.4673540000000  0.4006820000000 1.0
C      1  0.4401830000000  0.5176640000000  0.3877550000000 1.0
C      1  0.4367090000000  0.5642650000000  0.5659390000000 1.0
C      1  0.5119030000000  0.6012500000000  0.5673150000000 1.0
C      1  0.5751430000000  0.5591120000000  0.5772770000000 1.0
C      1  0.5875980000000  0.4764930000000  0.5802780000000 1.0
C      1  0.5135180000000  0.3906400000000  0.5559040000000 1.0
C      1  0.4606300000000  0.4073670000000  0.5720760000000 1.0
C      1  0.4179920000000  0.4787950000000  0.5701750000000 1.0
C      1  0.5212260000000  0.4768880000000  0.5284470000000 1.0
C      1  0.4985510000000  0.4645520000000  0.5461930000000 1.0
C      1  0.4780250000000  0.4810860000000  0.5303830000000 1.0
C      1  0.4809400000000  0.5108830000000  0.5320040000000 1.0
C      1  0.4981330000000  0.5340970000000  0.5242670000000 1.0
C      1  0.5287570000000  0.5300880000000  0.5274070000000 1.0
C      1  0.5349970000000  0.5014510000000  0.5399330000000 1.0
C      1  0.4473050000000  0.4560320000000  0.4280910000000 1.0
C      1  0.4272070000000  0.5134650000000  0.4177350000000 1.0
C      1  0.4725460000000  0.5791140000000  0.4183960000000 1.0
C      1  0.5303750000000  0.5653470000000  0.4224960000000 1.0
C      1  0.5710330000000  0.5130470000000  0.4198670000000 1.0
C      1  0.5511670000000  0.4499640000000  0.4262760000000 1.0
C      1  0.4986630000000  0.4218770000000  0.4293000000000 1.0
C      1  0.4857000000000  0.5272300000000  0.5740860000000 1.0
C      1  0.5466170000000  0.5316590000000  0.5723050000000 1.0
C      1  0.5299400000000  0.5046330000000  0.5713620000000 1.0
C      1  0.5201720000000  0.4396230000000  0.5686010000000 1.0
C      1  0.4874320000000  0.4776640000000  0.5708300000000 1.0
C      1  0.4569180000000  0.4922910000000  0.5673860000000 1.0
C      1  0.4660300000000  0.5396210000000  0.5551820000000 1.0
C      1  0.5323860000000  0.4456990000000  0.5002540000000 1.0
C      1  0.4722150000000  0.4426070000000  0.4998710000000 1.0
C      1  0.4400410000000  0.4861030000000  0.4866330000000 1.0
C      1  0.4473400000000  0.5414520000000  0.4895580000000 1.0
C      1  0.5021670000000  0.5648740000000  0.4990660000000 1.0
C      1  0.5472510000000  0.5374910000000  0.4998360000000 1.0
C      1  0.5691530000000  0.4874780000000  0.4963530000000 1.0
C      1  0.4407100000000  0.4087000000000  0.4601750000000 1.0
C      1  0.3960260000000  0.4814070000000  0.4549510000000 1.0
C      1  0.4186490000000  0.5643080000000  0.4644150000000 1.0
C      1  0.5002460000000  0.6002040000000  0.4692870000000 1.0
C      1  0.5757430000000  0.5662200000000  0.4604300000000 1.0
C      1  0.5993530000000  0.4683580000000  0.4509360000000 1.0
C      1  0.5358640000000  0.4019610000000  0.4670570000000 1.0
C      1  0.5759070000000  0.4280640000000  0.4707410000000 1.0
C      1  0.4892990000000  0.3912110000000  0.4766580000000 1.0
C      1  0.4141340000000  0.4370620000000  0.4752980000000 1.0
C      1  0.3922830000000  0.5223200000000  0.4673020000000 1.0
C      1  0.4536840000000  0.5990220000000  0.4586310000000 1.0
C      1  0.5489440000000  0.5946370000000  0.4663340000000 1.0
C      1  0.6020840000000  0.5224980000000  0.4710040000000 1.0
C      1  0.4498670000000  0.5163650000000  0.5363470000000 1.0
C      1  0.4798330000000  0.5587440000000  0.5315480000000 1.0
C      1  0.5406330000000  0.5518220000000  0.5470930000000 1.0
C      1  0.5650210000000  0.4927210000000  0.5401820000000 1.0
C      1  0.5381330000000  0.4505740000000  0.5417930000000 1.0
C      1  0.5016400000000  0.4345880000000  0.5405350000000 1.0
C      1  0.4486150000000  0.4741490000000  0.5419620000000 1.0
C      1  0.5067640000000  0.3943870000000  0.4476240000000 1.0
C      1  0.4275520000000  0.4359010000000  0.4440780000000 1.0
C      1  0.3996410000000  0.5102260000000  0.4363810000000 1.0
C      1  0.4503840000000  0.5844810000000  0.4340080000000 1.0
C      1  0.5383590000000  0.5906210000000  0.4408670000000 1.0
C      1  0.5943320000000  0.5256930000000  0.4402940000000 1.0
C      1  0.5775730000000  0.4429190000000  0.4425700000000 1.0
C      1  0.5899390000000  0.5466480000000  0.5270920000000 1.0
C      1  0.5886570000000  0.4527300000000  0.5161480000000 1.0
C      1  0.5306930000000  0.3968030000000  0.5308180000000 1.0
C      1  0.4277820000000  0.4319030000000  0.5265920000000 1.0
C      1  0.4030070000000  0.4992490000000  0.5199970000000 1.0
C      1  0.4290420000000  0.5664050000000  0.5352790000000 1.0
C      1  0.5152040000000  0.6000590000000  0.5360510000000 1.0
C      1  0.5017330000000  0.5024760000000  0.5778670000000 1.0
END
