TITL C-3289329-2751-352 -0.000915958915688606 125000 -288.805683343788 0 0 54 (C1) n - 1
REM
REM in /nfs/bkarasulu/CARBON/AIRSS/Generating-Clusters/AIREBO/with-SteepDescent/Higher-Symm/SD-CG/HFTN-CG
REM
REM
REM
REM
REM
REM ./C.cell (b20cbc046b6831c77cfcea5457e17084)
REM
REM compiler GCC version 9.2.1 20190827 (Red Hat 9.2.1-1)
REM options -cpp -mtune=generic -march=x86-64 -g -O0 -fpre-include=/usr/include/finclude/math-vector-fortran.h
REM seed -1626820555 -92207471 -2139046109 -1672012114 1726216681 347391610 738135625 1553153485 -1947321348 -584926953 490729209 277651227 1074289448 97816227 -830118189 -710973239 2144297515 635311346 1811545692 -1140875623 -790262041 -1474659775 1290461143 -892513630 1844781261 1412957085 -1783044133 -675804929 -1925172615 -1183350564 -553114466 1195368174 -58361527
REM
CELL 1.54180   50.00000   50.00000   50.00000   90.00000   90.00000   90.00000
LATT -1
SFAC C  
C      1  0.4681830000000  0.4338450000000  0.4673970000000 1.0
C      1  0.4598020000000  0.4367590000000  0.4978390000000 1.0
C      1  0.4587400000000  0.4283000000000  0.5292520000000 1.0
C      1  0.4837880000000  0.4374870000000  0.5490630000000 1.0
C      1  0.5156950000000  0.4470160000000  0.5452800000000 1.0
C      1  0.5253010000000  0.4506810000000  0.5149280000000 1.0
C      1  0.5397680000000  0.4502060000000  0.4857520000000 1.0
C      1  0.5253370000000  0.4387070000000  0.4584750000000 1.0
C      1  0.4942450000000  0.4500100000000  0.4538550000000 1.0
C      1  0.4626650000000  0.4599030000000  0.4462980000000 1.0
C      1  0.4493070000000  0.4619850000000  0.4776030000000 1.0
C      1  0.4425590000000  0.4572830000000  0.5180930000000 1.0
C      1  0.4572680000000  0.4570600000000  0.5479260000000 1.0
C      1  0.5014440000000  0.4479260000000  0.5754870000000 1.0
C      1  0.5300370000000  0.4761930000000  0.5370780000000 1.0
C      1  0.5568800000000  0.4603420000000  0.5118140000000 1.0
C      1  0.5464040000000  0.4664280000000  0.4580680000000 1.0
C      1  0.5193250000000  0.4650360000000  0.4373460000000 1.0
C      1  0.5692140000000  0.5025960000000  0.4932640000000 1.0
C      1  0.5507400000000  0.5169260000000  0.4364440000000 1.0
C      1  0.4997570000000  0.5153280000000  0.4274390000000 1.0
C      1  0.4483490000000  0.5181000000000  0.4415220000000 1.0
C      1  0.4264890000000  0.5111040000000  0.4875060000000 1.0
C      1  0.4502030000000  0.5148160000000  0.5370730000000 1.0
C      1  0.4773500000000  0.5094910000000  0.5728830000000 1.0
C      1  0.5156210000000  0.5000720000000  0.5660940000000 1.0
C      1  0.5651300000000  0.5255560000000  0.5257150000000 1.0
C      1  0.4704660000000  0.4843610000000  0.5530160000000 1.0
C      1  0.5001440000000  0.4778420000000  0.5653850000000 1.0
C      1  0.5424750000000  0.5050370000000  0.5371820000000 1.0
C      1  0.5606870000000  0.4877080000000  0.5142770000000 1.0
C      1  0.5354050000000  0.4963810000000  0.4561370000000 1.0
C      1  0.5035700000000  0.4926310000000  0.4481450000000 1.0
C      1  0.4781330000000  0.4853600000000  0.4626920000000 1.0
C      1  0.4566630000000  0.4935950000000  0.4877570000000 1.0
C      1  0.4580540000000  0.4868790000000  0.5213270000000 1.0
C      1  0.4981010000000  0.5710700000000  0.5308510000000 1.0
C      1  0.5216680000000  0.5551960000000  0.5311800000000 1.0
C      1  0.5392040000000  0.5598810000000  0.5102690000000 1.0
C      1  0.5344510000000  0.5792470000000  0.4905700000000 1.0
C      1  0.5235720000000  0.5703800000000  0.4668780000000 1.0
C      1  0.4990020000000  0.5555950000000  0.4593010000000 1.0
C      1  0.4766490000000  0.5483040000000  0.4732240000000 1.0
C      1  0.4616320000000  0.5594270000000  0.4978590000000 1.0
C      1  0.4735120000000  0.5592330000000  0.5236360000000 1.0
C      1  0.5487530000000  0.5210060000000  0.4757130000000 1.0
C      1  0.5363050000000  0.5428810000000  0.4528420000000 1.0
C      1  0.5070280000000  0.5395920000000  0.4357510000000 1.0
C      1  0.4594240000000  0.5203560000000  0.4669430000000 1.0
C      1  0.4440050000000  0.5359730000000  0.4921840000000 1.0
C      1  0.4682700000000  0.5367450000000  0.5394470000000 1.0
C      1  0.4883970000000  0.5297060000000  0.5579980000000 1.0
C      1  0.5187410000000  0.5276010000000  0.5463720000000 1.0
C      1  0.5560890000000  0.5388580000000  0.5035730000000 1.0
END
