TITL C-3289334-2237-288 2.42551915601307e-05 125000 -378.541411223556 0 0 74 (C1) n - 1
REM
REM in /nfs/bkarasulu/CARBON/AIRSS/Generating-Clusters/AIREBO/with-SteepDescent/Higher-Symm/SD-CG/HFTN-CG
REM
REM
REM
REM
REM
REM ./C.cell (b20cbc046b6831c77cfcea5457e17084)
REM
REM compiler GCC version 9.2.1 20190827 (Red Hat 9.2.1-1)
REM options -cpp -mtune=generic -march=x86-64 -g -O0 -fpre-include=/usr/include/finclude/math-vector-fortran.h
REM seed -1068359491 -262155394 -393987216 -1200780367 1976103118 -1984157077 -1282582598 1745712203 44636126 593132387 254722001 -137705457 -271330406 -1839725300 5256382 -311188805 -757891368 -1536018427 2119304905 1300999650 -164297221 -1791768113 -968063558 538208533 268813840 -1084232886 1964101267 -292947597 -1906884866 -306096764 2139107299 -256087483 1851790457
REM
CELL 1.54180   50.00000   50.00000   50.00000   90.00000   90.00000   90.00000
LATT -1
SFAC C  
C      1  0.4822660000000  0.4427800000000  0.5472010000000 1.0
C      1  0.4320370000000  0.4961390000000  0.5438440000000 1.0
C      1  0.4750540000000  0.5564710000000  0.5429170000000 1.0
C      1  0.5472130000000  0.5391610000000  0.5472450000000 1.0
C      1  0.5563580000000  0.4613490000000  0.5424230000000 1.0
C      1  0.5191060000000  0.4743250000000  0.4688260000000 1.0
C      1  0.4793090000000  0.4747250000000  0.4677480000000 1.0
C      1  0.4672270000000  0.5126840000000  0.4658130000000 1.0
C      1  0.4994770000000  0.5358240000000  0.4625410000000 1.0
C      1  0.5318650000000  0.5116460000000  0.4626030000000 1.0
C      1  0.5633250000000  0.5243960000000  0.4604550000000 1.0
C      1  0.5366580000000  0.4487240000000  0.4579750000000 1.0
C      1  0.4677130000000  0.4436420000000  0.4606670000000 1.0
C      1  0.4382510000000  0.5095140000000  0.4483030000000 1.0
C      1  0.4960020000000  0.5696200000000  0.4607150000000 1.0
C      1  0.5508180000000  0.4412320000000  0.4945210000000 1.0
C      1  0.4641820000000  0.4386080000000  0.5000950000000 1.0
C      1  0.4237220000000  0.5116400000000  0.4965840000000 1.0
C      1  0.4906990000000  0.5737440000000  0.4999610000000 1.0
C      1  0.5644240000000  0.5288610000000  0.4999490000000 1.0
C      1  0.4858130000000  0.4636140000000  0.4979700000000 1.0
C      1  0.4558660000000  0.5051180000000  0.4932820000000 1.0
C      1  0.4878990000000  0.5420800000000  0.4935520000000 1.0
C      1  0.5322310000000  0.5190360000000  0.4958180000000 1.0
C      1  0.5355270000000  0.4706920000000  0.4968980000000 1.0
C      1  0.4469960000000  0.5521160000000  0.4662350000000 1.0
C      1  0.5375710000000  0.5688530000000  0.4708510000000 1.0
C      1  0.5759370000000  0.4832110000000  0.4663210000000 1.0
C      1  0.5049680000000  0.4222720000000  0.4642950000000 1.0
C      1  0.4255980000000  0.4660260000000  0.4735040000000 1.0
C      1  0.4773660000000  0.5194000000000  0.4340510000000 1.0
C      1  0.5102090000000  0.5281620000000  0.4311910000000 1.0
C      1  0.5264780000000  0.4984100000000  0.4317330000000 1.0
C      1  0.5053790000000  0.4731650000000  0.4377310000000 1.0
C      1  0.4742020000000  0.4866710000000  0.4363110000000 1.0
C      1  0.5465000000000  0.4944260000000  0.5093540000000 1.0
C      1  0.5109660000000  0.4559080000000  0.5116370000000 1.0
C      1  0.4718060000000  0.4857260000000  0.5149860000000 1.0
C      1  0.4692490000000  0.5253900000000  0.5152000000000 1.0
C      1  0.5089730000000  0.5275510000000  0.5131490000000 1.0
C      1  0.5524670000000  0.4871160000000  0.4511730000000 1.0
C      1  0.5019740000000  0.4394500000000  0.4405800000000 1.0
C      1  0.4473250000000  0.4793980000000  0.4571700000000 1.0
C      1  0.4595380000000  0.5472300000000  0.4401290000000 1.0
C      1  0.5289960000000  0.5491280000000  0.4520950000000 1.0
C      1  0.4312460000000  0.5291300000000  0.4711920000000 1.0
C      1  0.5140520000000  0.5844490000000  0.4800910000000 1.0
C      1  0.5825190000000  0.5097810000000  0.4788080000000 1.0
C      1  0.5337600000000  0.4229750000000  0.4735060000000 1.0
C      1  0.4416340000000  0.4422870000000  0.4771770000000 1.0
C      1  0.4607420000000  0.5697520000000  0.4843380000000 1.0
C      1  0.5586100000000  0.5593400000000  0.4881870000000 1.0
C      1  0.5759250000000  0.4584150000000  0.4808650000000 1.0
C      1  0.4857500000000  0.4178280000000  0.4852250000000 1.0
C      1  0.4106060000000  0.4836050000000  0.4881680000000 1.0
C      1  0.4376230000000  0.5187710000000  0.5258810000000 1.0
C      1  0.5010240000000  0.5572220000000  0.5278430000000 1.0
C      1  0.5581720000000  0.5184220000000  0.5304380000000 1.0
C      1  0.5393820000000  0.4440800000000  0.5261700000000 1.0
C      1  0.4625830000000  0.4561150000000  0.5292370000000 1.0
C      1  0.4453340000000  0.5449390000000  0.5403650000000 1.0
C      1  0.5248120000000  0.5625240000000  0.5447940000000 1.0
C      1  0.5674350000000  0.4914900000000  0.5427320000000 1.0
C      1  0.5131170000000  0.4322450000000  0.5406600000000 1.0
C      1  0.4375220000000  0.4644810000000  0.5428940000000 1.0
C      1  0.4161050000000  0.4765170000000  0.5637570000000 1.0
C      1  0.4503000000000  0.5723720000000  0.5563890000000 1.0
C      1  0.5476610000000  0.5641260000000  0.5674480000000 1.0
C      1  0.5830640000000  0.4685380000000  0.5590330000000 1.0
C      1  0.5010910000000  0.4342400000000  0.5710210000000 1.0
C      1  0.4995290000000  0.5021030000000  0.4671270000000 1.0
C      1  0.5067080000000  0.4962600000000  0.5832660000000 1.0
C      1  0.4916090000000  0.5058860000000  0.5308630000000 1.0
C      1  0.4998510000000  0.5007170000000  0.5590960000000 1.0
END
