TITL C-3289332-8317-578 0.000807293177763243 125000 -702.569946773795 0 0 132 (C1) n - 1
REM
REM in /nfs/bkarasulu/CARBON/AIRSS/Generating-Clusters/AIREBO/with-SteepDescent/Higher-Symm/SD-CG/HFTN-CG
REM
REM
REM
REM
REM
REM ./C.cell (b20cbc046b6831c77cfcea5457e17084)
REM
REM compiler GCC version 9.2.1 20190827 (Red Hat 9.2.1-1)
REM options -cpp -mtune=generic -march=x86-64 -g -O0 -fpre-include=/usr/include/finclude/math-vector-fortran.h
REM seed -1729130282 -720261266 -1175916696 928596894 1145739194 -1120647201 -1708552227 708388418 -1517328765 -1230876966 -1100772735 -442742777 -1556247338 -1054990970 -1391882236 1804524474 -886459046 -2019303627 -1793768098 -1326083054 -1098361212 -334307717 -687482599 -649997739 -1023377162 -349318114 2117626042 -477791879 1788798946 788982250 -609484139 1228581865 1457150978
REM
CELL 1.54180   50.00000   50.00000   50.00000   90.00000   90.00000   90.00000
LATT -1
SFAC C  
C      1  0.4378840000000  0.5226740000000  0.4363880000000 1.0
C      1  0.5598210000000  0.4758040000000  0.4414580000000 1.0
C      1  0.5580120000000  0.5208770000000  0.5654730000000 1.0
C      1  0.4411960000000  0.4841840000000  0.5693860000000 1.0
C      1  0.5238480000000  0.4392320000000  0.4364300000000 1.0
C      1  0.4748950000000  0.5617120000000  0.4360070000000 1.0
C      1  0.5194530000000  0.5558940000000  0.5653270000000 1.0
C      1  0.4757740000000  0.4383660000000  0.5641520000000 1.0
C      1  0.4765840000000  0.5411640000000  0.4976120000000 1.0
C      1  0.5184540000000  0.4447270000000  0.4990660000000 1.0
C      1  0.5294210000000  0.5526170000000  0.5005720000000 1.0
C      1  0.4802340000000  0.4557950000000  0.5011180000000 1.0
C      1  0.5541490000000  0.4846330000000  0.4991530000000 1.0
C      1  0.4464180000000  0.5275510000000  0.4989830000000 1.0
C      1  0.5465020000000  0.5237470000000  0.4949590000000 1.0
C      1  0.4558790000000  0.4751440000000  0.5058040000000 1.0
C      1  0.4719820000000  0.5456590000000  0.4080040000000 1.0
C      1  0.5294490000000  0.4544750000000  0.4091480000000 1.0
C      1  0.5181460000000  0.5371110000000  0.5919140000000 1.0
C      1  0.4767940000000  0.4528680000000  0.5917810000000 1.0
C      1  0.5453270000000  0.4779950000000  0.4147050000000 1.0
C      1  0.4548330000000  0.5232300000000  0.4100290000000 1.0
C      1  0.5399010000000  0.5149150000000  0.5897940000000 1.0
C      1  0.4582820000000  0.4759680000000  0.5941630000000 1.0
C      1  0.5015740000000  0.4781250000000  0.4239730000000 1.0
C      1  0.4939850000000  0.5252360000000  0.4339060000000 1.0
C      1  0.5007100000000  0.4713850000000  0.5662940000000 1.0
C      1  0.5006950000000  0.5209980000000  0.5604250000000 1.0
C      1  0.4784180000000  0.4976760000000  0.4336710000000 1.0
C      1  0.5162410000000  0.5042140000000  0.4226920000000 1.0
C      1  0.4789610000000  0.4967270000000  0.5672990000000 1.0
C      1  0.5183070000000  0.4977100000000  0.5612360000000 1.0
C      1  0.5450950000000  0.4868140000000  0.5496200000000 1.0
C      1  0.4634440000000  0.5194690000000  0.5473030000000 1.0
C      1  0.4603920000000  0.4797840000000  0.4563410000000 1.0
C      1  0.5395370000000  0.5099240000000  0.4449670000000 1.0
C      1  0.4839900000000  0.5460190000000  0.5497190000000 1.0
C      1  0.5246910000000  0.4616530000000  0.5440950000000 1.0
C      1  0.4868380000000  0.4608250000000  0.4464840000000 1.0
C      1  0.5203340000000  0.5364370000000  0.4522490000000 1.0
C      1  0.4446430000000  0.4335320000000  0.5549640000000 1.0
C      1  0.5499710000000  0.5703560000000  0.5622450000000 1.0
C      1  0.5548860000000  0.4266270000000  0.4422510000000 1.0
C      1  0.4461090000000  0.5736860000000  0.4453710000000 1.0
C      1  0.4317760000000  0.4591520000000  0.5511420000000 1.0
C      1  0.5709720000000  0.5505170000000  0.5601320000000 1.0
C      1  0.4258240000000  0.5534300000000  0.4439380000000 1.0
C      1  0.5746340000000  0.4466340000000  0.4412840000000 1.0
C      1  0.5938670000000  0.5129270000000  0.4749440000000 1.0
C      1  0.4117590000000  0.4883970000000  0.4790100000000 1.0
C      1  0.4183370000000  0.5120020000000  0.5226230000000 1.0
C      1  0.5897750000000  0.4944140000000  0.5220300000000 1.0
C      1  0.5106090000000  0.5810000000000  0.4773140000000 1.0
C      1  0.4875200000000  0.4086180000000  0.4800600000000 1.0
C      1  0.5168650000000  0.4170800000000  0.5281780000000 1.0
C      1  0.4906200000000  0.5835710000000  0.5224450000000 1.0
C      1  0.5798570000000  0.4503830000000  0.4891770000000 1.0
C      1  0.4224250000000  0.5613490000000  0.4850320000000 1.0
C      1  0.4201000000000  0.4544520000000  0.5037070000000 1.0
C      1  0.5737060000000  0.5537440000000  0.5082630000000 1.0
C      1  0.4448470000000  0.5747220000000  0.4943410000000 1.0
C      1  0.5572220000000  0.4293210000000  0.4943900000000 1.0
C      1  0.4417340000000  0.4314470000000  0.5039410000000 1.0
C      1  0.5595950000000  0.5769630000000  0.5164360000000 1.0
C      1  0.4493680000000  0.5162610000000  0.4677480000000 1.0
C      1  0.5423070000000  0.4775740000000  0.4680660000000 1.0
C      1  0.5433070000000  0.5231080000000  0.5348200000000 1.0
C      1  0.4510010000000  0.4831040000000  0.5365400000000 1.0
C      1  0.5210710000000  0.4542070000000  0.4669640000000 1.0
C      1  0.4849510000000  0.5488430000000  0.4658300000000 1.0
C      1  0.5201020000000  0.5460940000000  0.5326190000000 1.0
C      1  0.4863710000000  0.4506300000000  0.5338520000000 1.0
C      1  0.5815810000000  0.4730020000000  0.5471460000000 1.0
C      1  0.4250760000000  0.5279400000000  0.5518960000000 1.0
C      1  0.4218840000000  0.4709040000000  0.4516610000000 1.0
C      1  0.5761220000000  0.5255240000000  0.4488180000000 1.0
C      1  0.4692960000000  0.5826260000000  0.5485470000000 1.0
C      1  0.5178170000000  0.4179580000000  0.5616290000000 1.0
C      1  0.4742170000000  0.4233910000000  0.4524750000000 1.0
C      1  0.5259680000000  0.5756180000000  0.4474560000000 1.0
C      1  0.5410870000000  0.4409580000000  0.5226660000000 1.0
C      1  0.4522360000000  0.5694290000000  0.5222610000000 1.0
C      1  0.4546550000000  0.4308180000000  0.4762240000000 1.0
C      1  0.5387630000000  0.5540040000000  0.4700230000000 1.0
C      1  0.4463630000000  0.5395390000000  0.5280200000000 1.0
C      1  0.5679520000000  0.4613230000000  0.5182170000000 1.0
C      1  0.4413280000000  0.4618880000000  0.4780760000000 1.0
C      1  0.5681620000000  0.5429080000000  0.4770800000000 1.0
C      1  0.4662270000000  0.5598940000000  0.5736630000000 1.0
C      1  0.5295120000000  0.4444930000000  0.5730580000000 1.0
C      1  0.5307680000000  0.5584110000000  0.4207480000000 1.0
C      1  0.4670170000000  0.4429510000000  0.4270040000000 1.0
C      1  0.5577350000000  0.4638460000000  0.5696760000000 1.0
C      1  0.4437190000000  0.5350000000000  0.5782640000000 1.0
C      1  0.5530800000000  0.5339260000000  0.4252410000000 1.0
C      1  0.4414930000000  0.4653140000000  0.4244510000000 1.0
C      1  0.5078190000000  0.4179490000000  0.4565440000000 1.0
C      1  0.4930710000000  0.5847500000000  0.4500190000000 1.0
C      1  0.4879550000000  0.4126630000000  0.5455210000000 1.0
C      1  0.5031570000000  0.5823950000000  0.5527900000000 1.0
C      1  0.4141970000000  0.5043030000000  0.4508650000000 1.0
C      1  0.5864500000000  0.4924630000000  0.4517780000000 1.0
C      1  0.4153890000000  0.4950690000000  0.5501110000000 1.0
C      1  0.5847830000000  0.5068810000000  0.5515140000000 1.0
C      1  0.4926700000000  0.4698310000000  0.4772370000000 1.0
C      1  0.4998230000000  0.5200660000000  0.4729850000000 1.0
C      1  0.5029000000000  0.4788180000000  0.5244310000000 1.0
C      1  0.4922380000000  0.5297380000000  0.5219700000000 1.0
C      1  0.4788760000000  0.5003500000000  0.4734380000000 1.0
C      1  0.5295870000000  0.5068090000000  0.4769470000000 1.0
C      1  0.4800250000000  0.4984160000000  0.5275300000000 1.0
C      1  0.5330160000000  0.4942570000000  0.5200430000000 1.0
C      1  0.4676760000000  0.5775010000000  0.4718530000000 1.0
C      1  0.5384320000000  0.4251860000000  0.4705710000000 1.0
C      1  0.5317780000000  0.5779760000000  0.5345510000000 1.0
C      1  0.4623470000000  0.4271910000000  0.5283710000000 1.0
C      1  0.5877960000000  0.4607560000000  0.4650590000000 1.0
C      1  0.4194460000000  0.5323790000000  0.4698640000000 1.0
C      1  0.5748360000000  0.5326280000000  0.5314740000000 1.0
C      1  0.4130560000000  0.4703320000000  0.5266830000000 1.0
C      1  0.5449500000000  0.5071910000000  0.4057170000000 1.0
C      1  0.4522640000000  0.4912930000000  0.4165420000000 1.0
C      1  0.4608630000000  0.5098510000000  0.5929160000000 1.0
C      1  0.5331800000000  0.4816540000000  0.5872560000000 1.0
C      1  0.5046590000000  0.5481610000000  0.4131340000000 1.0
C      1  0.4958840000000  0.4489620000000  0.4096220000000 1.0
C      1  0.5096610000000  0.4588990000000  0.5966260000000 1.0
C      1  0.4845860000000  0.5336310000000  0.5875390000000 1.0
C      1  0.4989330000000  0.5653090000000  0.5012360000000 1.0
C      1  0.4940130000000  0.4248690000000  0.5042350000000 1.0
C      1  0.5766710000000  0.5088890000000  0.4986840000000 1.0
C      1  0.4323750000000  0.4974340000000  0.4986870000000 1.0
END
