TITL C-3289322-3858-488 0.000339303754099842 125000 -145.689052659847 0 0 26 (C1) n - 1
REM
REM in /nfs/bkarasulu/CARBON/AIRSS/Generating-Clusters/AIREBO/with-SteepDescent/Higher-Symm/SD-CG/HFTN-CG
REM
REM
REM
REM
REM
REM ./C.cell (b20cbc046b6831c77cfcea5457e17084)
REM
REM compiler GCC version 9.2.1 20190827 (Red Hat 9.2.1-1)
REM options -cpp -mtune=generic -march=x86-64 -g -O0 -fpre-include=/usr/include/finclude/math-vector-fortran.h
REM seed -2030909727 1460422554 -2076914054 -1040880739 1903998896 -478911977 -1450195458 1417749757 -1229393384 1925443681 -1773652499 841699150 -834174793 673650432 -1839164241 -1208704889 -1357923746 378234979 222872021 -1045522017 -407190809 1327408971 -1985306686 -944496997 -1933046491 109293836 1972455801 -1830526012 -582293835 1867259338 -2010392087 1409712127 -1391780242
REM
CELL 1.54180   50.00000   50.00000   50.00000   90.00000   90.00000   90.00000
LATT -1
SFAC C  
C      1  0.4701130000000  0.5392050000000  0.4945730000000 1.0
C      1  0.4784430000000  0.4515590000000  0.5065270000000 1.0
C      1  0.5287990000000  0.5494310000000  0.4964450000000 1.0
C      1  0.5100830000000  0.4617290000000  0.4989100000000 1.0
C      1  0.5068690000000  0.4303260000000  0.4885660000000 1.0
C      1  0.5093140000000  0.5685030000000  0.4968980000000 1.0
C      1  0.4816250000000  0.4204070000000  0.4950990000000 1.0
C      1  0.4819250000000  0.5648980000000  0.4968430000000 1.0
C      1  0.5397470000000  0.4730140000000  0.4918210000000 1.0
C      1  0.5410830000000  0.5255360000000  0.5127860000000 1.0
C      1  0.4680900000000  0.4792900000000  0.4901650000000 1.0
C      1  0.4573800000000  0.5267100000000  0.5163380000000 1.0
C      1  0.5218600000000  0.4854300000000  0.4488990000000 1.0
C      1  0.5139300000000  0.5165650000000  0.5522170000000 1.0
C      1  0.4940960000000  0.4848190000000  0.4491050000000 1.0
C      1  0.4864950000000  0.5155800000000  0.5536780000000 1.0
C      1  0.4778770000000  0.4952260000000  0.4701030000000 1.0
C      1  0.4677840000000  0.5078900000000  0.5342370000000 1.0
C      1  0.5385620000000  0.4920740000000  0.4707840000000 1.0
C      1  0.5304720000000  0.5083660000000  0.5311270000000 1.0
C      1  0.5370260000000  0.5207060000000  0.4797990000000 1.0
C      1  0.5260900000000  0.4804670000000  0.5221220000000 1.0
C      1  0.4826720000000  0.5226410000000  0.4754120000000 1.0
C      1  0.4708690000000  0.4802210000000  0.5237300000000 1.0
C      1  0.5084630000000  0.5313700000000  0.4672990000000 1.0
C      1  0.4989060000000  0.4680330000000  0.5365160000000 1.0
END
