TITL C-3289325-7307-676 0.0018285029627793 125000 -364.300713996464 0 0 65 (C1) n - 1
REM
REM in /nfs/bkarasulu/CARBON/AIRSS/Generating-Clusters/AIREBO/with-SteepDescent/Higher-Symm/SD-CG/HFTN-CG
REM
REM
REM
REM
REM
REM ./C.cell (b20cbc046b6831c77cfcea5457e17084)
REM
REM compiler GCC version 9.2.1 20190827 (Red Hat 9.2.1-1)
REM options -cpp -mtune=generic -march=x86-64 -g -O0 -fpre-include=/usr/include/finclude/math-vector-fortran.h
REM seed 1095221746 1106247842 -1127070003 -85482710 979958101 1672983768 -2080618793 49659192 -71514779 1707865824 103513689 -293939658 1667549347 -399818748 -1025225056 -771526997 136304243 -571973632 -642610249 1651301817 -1471907183 1839141413 878416070 -1535855040 -1939745804 283669477 -598405986 -1925120796 -1555300830 -417647373 1893233619 92118259 518043876
REM
CELL 1.54180   50.00000   50.00000   50.00000   90.00000   90.00000   90.00000
LATT -1
SFAC C  
C      1  0.5235810000000  0.4343510000000  0.5219760000000 1.0
C      1  0.4366750000000  0.4753610000000  0.5255130000000 1.0
C      1  0.4756240000000  0.5653730000000  0.5215280000000 1.0
C      1  0.5619380000000  0.5240990000000  0.5239920000000 1.0
C      1  0.4819570000000  0.5128460000000  0.5162370000000 1.0
C      1  0.5127960000000  0.5215690000000  0.5161990000000 1.0
C      1  0.5136010000000  0.4891560000000  0.5178980000000 1.0
C      1  0.4835090000000  0.4802730000000  0.5141650000000 1.0
C      1  0.5289950000000  0.4901070000000  0.4899790000000 1.0
C      1  0.4841760000000  0.4700160000000  0.4857510000000 1.0
C      1  0.4684090000000  0.5098360000000  0.4863420000000 1.0
C      1  0.5104440000000  0.5340970000000  0.4884520000000 1.0
C      1  0.4952490000000  0.5265940000000  0.4619150000000 1.0
C      1  0.5210740000000  0.5052560000000  0.4628970000000 1.0
C      1  0.5046210000000  0.4764020000000  0.4614480000000 1.0
C      1  0.4785470000000  0.4974700000000  0.4563310000000 1.0
C      1  0.5367930000000  0.4566820000000  0.4293620000000 1.0
C      1  0.4612040000000  0.4825750000000  0.4235520000000 1.0
C      1  0.4637170000000  0.5483170000000  0.4254060000000 1.0
C      1  0.5477840000000  0.5281470000000  0.4247600000000 1.0
C      1  0.5186920000000  0.5136130000000  0.5810580000000 1.0
C      1  0.5109000000000  0.4839320000000  0.5782670000000 1.0
C      1  0.4805230000000  0.4870220000000  0.5815750000000 1.0
C      1  0.4881290000000  0.5166760000000  0.5785510000000 1.0
C      1  0.5320450000000  0.5353640000000  0.5356720000000 1.0
C      1  0.5356940000000  0.4671170000000  0.5259920000000 1.0
C      1  0.4668370000000  0.4655550000000  0.5358070000000 1.0
C      1  0.4617580000000  0.5344240000000  0.5270350000000 1.0
C      1  0.4701780000000  0.4440070000000  0.4827730000000 1.0
C      1  0.4453920000000  0.5325210000000  0.4969180000000 1.0
C      1  0.5324450000000  0.5528450000000  0.4831400000000 1.0
C      1  0.5509810000000  0.4659850000000  0.4953180000000 1.0
C      1  0.4493230000000  0.4803810000000  0.4531240000000 1.0
C      1  0.4780900000000  0.5497800000000  0.4488150000000 1.0
C      1  0.5476250000000  0.5180350000000  0.4505170000000 1.0
C      1  0.5222510000000  0.4534730000000  0.4528670000000 1.0
C      1  0.4601790000000  0.4769170000000  0.5667490000000 1.0
C      1  0.4718610000000  0.5334660000000  0.5594990000000 1.0
C      1  0.5391270000000  0.5237480000000  0.5662750000000 1.0
C      1  0.5264200000000  0.4671150000000  0.5587170000000 1.0
C      1  0.4342350000000  0.4798650000000  0.4987620000000 1.0
C      1  0.4838190000000  0.5671260000000  0.4950320000000 1.0
C      1  0.5648560000000  0.5181040000000  0.4973780000000 1.0
C      1  0.5183020000000  0.4288030000000  0.4954220000000 1.0
C      1  0.4904930000000  0.4236130000000  0.4820150000000 1.0
C      1  0.4287020000000  0.5060120000000  0.4877130000000 1.0
C      1  0.5091600000000  0.5731210000000  0.4799570000000 1.0
C      1  0.5686950000000  0.4917500000000  0.4860220000000 1.0
C      1  0.4401580000000  0.4914490000000  0.5503540000000 1.0
C      1  0.4878630000000  0.5574180000000  0.5467300000000 1.0
C      1  0.5586240000000  0.5089640000000  0.5494580000000 1.0
C      1  0.5108760000000  0.4431700000000  0.5462250000000 1.0
C      1  0.5074490000000  0.4248900000000  0.4571330000000 1.0
C      1  0.4268850000000  0.5022220000000  0.4600440000000 1.0
C      1  0.4990930000000  0.5742400000000  0.4523910000000 1.0
C      1  0.5693920000000  0.4955180000000  0.4584220000000 1.0
C      1  0.4420300000000  0.5193160000000  0.5513270000000 1.0
C      1  0.5149650000000  0.5589730000000  0.5482030000000 1.0
C      1  0.5561820000000  0.4811660000000  0.5501410000000 1.0
C      1  0.4838760000000  0.4417600000000  0.5471780000000 1.0
C      1  0.5361930000000  0.4433860000000  0.4790090000000 1.0
C      1  0.4457310000000  0.4622100000000  0.4784970000000 1.0
C      1  0.4661740000000  0.5514740000000  0.4786550000000 1.0
C      1  0.5548280000000  0.5363650000000  0.4768330000000 1.0
C      1  0.4815300000000  0.5011910000000  0.4219850000000 1.0
END
