TITL C-3289328-6581-79 -0.000184037885563181 125000 -795.660061473087 0 0 152 (C1) n - 1
REM
REM in /nfs/bkarasulu/CARBON/AIRSS/Generating-Clusters/AIREBO/with-SteepDescent/Higher-Symm/SD-CG/HFTN-CG
REM
REM
REM
REM
REM
REM ./C.cell (b20cbc046b6831c77cfcea5457e17084)
REM
REM compiler GCC version 9.2.1 20190827 (Red Hat 9.2.1-1)
REM options -cpp -mtune=generic -march=x86-64 -g -O0 -fpre-include=/usr/include/finclude/math-vector-fortran.h
REM seed -425794024 -1076013974 1633918892 -322026786 644337604 -1670967262 -1681290364 577538905 -216764532 -418158363 -167333552 -1899867617 -1106999969 -737644192 1378688162 -1701241917 -640533261 1254989002 -1135091991 131950215 1077818764 1953112356 -2064911701 255793884 371417841 1544208096 -1293353040 -907781686 -351451268 -1207206044 165572389 168488491 248186206
REM
CELL 1.54180   50.00000   50.00000   50.00000   90.00000   90.00000   90.00000
LATT -1
SFAC C  
C      1  0.4536520000000  0.4419620000000  0.4297820000000 1.0
C      1  0.5185540000000  0.5292010000000  0.4750040000000 1.0
C      1  0.5554420000000  0.4266780000000  0.5067080000000 1.0
C      1  0.4446190000000  0.5579340000000  0.4367460000000 1.0
C      1  0.5148390000000  0.4836920000000  0.5072380000000 1.0
C      1  0.4688670000000  0.4727940000000  0.5929590000000 1.0
C      1  0.4817330000000  0.5407270000000  0.5028060000000 1.0
C      1  0.4791700000000  0.4830230000000  0.5409480000000 1.0
C      1  0.5407720000000  0.4920950000000  0.4404030000000 1.0
C      1  0.5283260000000  0.4286260000000  0.5271670000000 1.0
C      1  0.5921510000000  0.5426170000000  0.4951510000000 1.0
C      1  0.5422100000000  0.5289050000000  0.5840390000000 1.0
C      1  0.4320340000000  0.5342170000000  0.4958040000000 1.0
C      1  0.5809260000000  0.4934500000000  0.4441440000000 1.0
C      1  0.5985720000000  0.4882410000000  0.4858840000000 1.0
C      1  0.5777870000000  0.5708580000000  0.5003760000000 1.0
C      1  0.5833430000000  0.4906380000000  0.5598050000000 1.0
C      1  0.4649140000000  0.3918390000000  0.5395140000000 1.0
C      1  0.4194530000000  0.5526470000000  0.4714810000000 1.0
C      1  0.4841460000000  0.6009600000000  0.4663050000000 1.0
C      1  0.5066540000000  0.4370050000000  0.4849980000000 1.0
C      1  0.4837880000000  0.4480440000000  0.4669150000000 1.0
C      1  0.4867360000000  0.4537270000000  0.4110480000000 1.0
C      1  0.5581440000000  0.4185870000000  0.5518140000000 1.0
C      1  0.4855380000000  0.5018450000000  0.5866740000000 1.0
C      1  0.4828330000000  0.3957760000000  0.5565190000000 1.0
C      1  0.4300300000000  0.5007960000000  0.5526930000000 1.0
C      1  0.4248720000000  0.4326210000000  0.5031500000000 1.0
C      1  0.5156060000000  0.5268050000000  0.6030550000000 1.0
C      1  0.4966490000000  0.4924520000000  0.4429620000000 1.0
C      1  0.4440360000000  0.5525140000000  0.5390320000000 1.0
C      1  0.4438440000000  0.4662410000000  0.5328140000000 1.0
C      1  0.5020880000000  0.5911170000000  0.5168730000000 1.0
C      1  0.4388590000000  0.5764990000000  0.4734660000000 1.0
C      1  0.5132710000000  0.5188480000000  0.4294250000000 1.0
C      1  0.5724260000000  0.5287900000000  0.5448050000000 1.0
C      1  0.4315280000000  0.4901160000000  0.5142700000000 1.0
C      1  0.5132690000000  0.4945990000000  0.6050720000000 1.0
C      1  0.4040010000000  0.5065330000000  0.5016020000000 1.0
C      1  0.5617140000000  0.5047060000000  0.5049150000000 1.0
C      1  0.5949330000000  0.5186770000000  0.4711600000000 1.0
C      1  0.5171080000000  0.5463220000000  0.3875680000000 1.0
C      1  0.5630430000000  0.5638740000000  0.4469360000000 1.0
C      1  0.4815400000000  0.4770420000000  0.4845940000000 1.0
C      1  0.5347630000000  0.4186080000000  0.4585270000000 1.0
C      1  0.5625370000000  0.5570370000000  0.5470760000000 1.0
C      1  0.4127240000000  0.5328490000000  0.5207220000000 1.0
C      1  0.4489600000000  0.4103370000000  0.5193660000000 1.0
C      1  0.5281100000000  0.4273610000000  0.5613810000000 1.0
C      1  0.5179200000000  0.5837510000000  0.5524370000000 1.0
C      1  0.5332810000000  0.5453950000000  0.5342180000000 1.0
C      1  0.5676600000000  0.4897660000000  0.4749390000000 1.0
C      1  0.4475220000000  0.4536190000000  0.5651460000000 1.0
C      1  0.4675510000000  0.5483280000000  0.5835170000000 1.0
C      1  0.5312330000000  0.5676470000000  0.4373720000000 1.0
C      1  0.4655970000000  0.5882820000000  0.4813120000000 1.0
C      1  0.4687800000000  0.5641420000000  0.4143280000000 1.0
C      1  0.5842090000000  0.5240910000000  0.5192900000000 1.0
C      1  0.5382090000000  0.5032410000000  0.4691970000000 1.0
C      1  0.5563860000000  0.5717130000000  0.5755590000000 1.0
C      1  0.4455040000000  0.5060080000000  0.4887150000000 1.0
C      1  0.5357640000000  0.5907610000000  0.5247150000000 1.0
C      1  0.4725300000000  0.4585450000000  0.5183030000000 1.0
C      1  0.4349690000000  0.5493080000000  0.5776940000000 1.0
C      1  0.5483810000000  0.5075420000000  0.5510570000000 1.0
C      1  0.4874120000000  0.3967340000000  0.4701220000000 1.0
C      1  0.5644470000000  0.5105100000000  0.4247480000000 1.0
C      1  0.4221940000000  0.5318980000000  0.5514160000000 1.0
C      1  0.4977530000000  0.4360630000000  0.5141000000000 1.0
C      1  0.5056720000000  0.5016290000000  0.5317740000000 1.0
C      1  0.4663810000000  0.5320350000000  0.5299090000000 1.0
C      1  0.5671470000000  0.5300250000000  0.4524750000000 1.0
C      1  0.5155140000000  0.5446240000000  0.5051800000000 1.0
C      1  0.6011760000000  0.4638090000000  0.4986940000000 1.0
C      1  0.5145010000000  0.4770800000000  0.5759560000000 1.0
C      1  0.4427780000000  0.4882310000000  0.4132770000000 1.0
C      1  0.5667780000000  0.5828400000000  0.4728950000000 1.0
C      1  0.5449990000000  0.4662960000000  0.5061920000000 1.0
C      1  0.4535090000000  0.4593230000000  0.4901280000000 1.0
C      1  0.4546600000000  0.4256430000000  0.4918570000000 1.0
C      1  0.4393440000000  0.5139930000000  0.4027690000000 1.0
C      1  0.5761640000000  0.4391570000000  0.5478080000000 1.0
C      1  0.4177470000000  0.5225500000000  0.4603460000000 1.0
C      1  0.4259190000000  0.4824210000000  0.4425420000000 1.0
C      1  0.5730950000000  0.4844410000000  0.5297520000000 1.0
C      1  0.4558130000000  0.4854060000000  0.5655970000000 1.0
C      1  0.4504800000000  0.4729960000000  0.4606160000000 1.0
C      1  0.4055690000000  0.4612260000000  0.5226820000000 1.0
C      1  0.4922340000000  0.5181830000000  0.5575970000000 1.0
C      1  0.5010480000000  0.4625640000000  0.5551820000000 1.0
C      1  0.5186880000000  0.4705550000000  0.4290920000000 1.0
C      1  0.4715920000000  0.4799540000000  0.4024830000000 1.0
C      1  0.4882760000000  0.5765860000000  0.5440230000000 1.0
C      1  0.4620490000000  0.5308350000000  0.4131410000000 1.0
C      1  0.4161240000000  0.4534710000000  0.4574430000000 1.0
C      1  0.4428440000000  0.5303130000000  0.4479710000000 1.0
C      1  0.5582290000000  0.4603050000000  0.4690570000000 1.0
C      1  0.4181530000000  0.4916310000000  0.4745040000000 1.0
C      1  0.4629450000000  0.5213150000000  0.5980930000000 1.0
C      1  0.4068190000000  0.4805880000000  0.5442260000000 1.0
C      1  0.4350880000000  0.4328630000000  0.4500450000000 1.0
C      1  0.5229970000000  0.4614850000000  0.5316670000000 1.0
C      1  0.4580860000000  0.5491990000000  0.4799630000000 1.0
C      1  0.4574390000000  0.4307180000000  0.5445620000000 1.0
C      1  0.5272820000000  0.4381020000000  0.4316800000000 1.0
C      1  0.4746070000000  0.4667190000000  0.4400270000000 1.0
C      1  0.4758360000000  0.5103350000000  0.4886630000000 1.0
C      1  0.5609300000000  0.5329220000000  0.4857840000000 1.0
C      1  0.4823560000000  0.4143190000000  0.4331760000000 1.0
C      1  0.5455020000000  0.4524370000000  0.5736050000000 1.0
C      1  0.5581560000000  0.4453260000000  0.4401630000000 1.0
C      1  0.5619950000000  0.5013350000000  0.5816960000000 1.0
C      1  0.5424000000000  0.4794140000000  0.5941050000000 1.0
C      1  0.5266650000000  0.4589260000000  0.4785500000000 1.0
C      1  0.5149250000000  0.5682720000000  0.4807490000000 1.0
C      1  0.4646210000000  0.4204660000000  0.4615430000000 1.0
C      1  0.5204590000000  0.5080770000000  0.5682460000000 1.0
C      1  0.4254620000000  0.4379390000000  0.5355260000000 1.0
C      1  0.5044550000000  0.4887110000000  0.4040650000000 1.0
C      1  0.5614680000000  0.5747720000000  0.5222770000000 1.0
C      1  0.5281260000000  0.5548040000000  0.5670680000000 1.0
C      1  0.4922150000000  0.5758970000000  0.4362270000000 1.0
C      1  0.5536950000000  0.4295860000000  0.4765810000000 1.0
C      1  0.4745780000000  0.4419550000000  0.5824990000000 1.0
C      1  0.4897220000000  0.5270420000000  0.4661120000000 1.0
C      1  0.5578640000000  0.4018160000000  0.5287720000000 1.0
C      1  0.4763990000000  0.5741540000000  0.5062660000000 1.0
C      1  0.5101890000000  0.4883120000000  0.4738740000000 1.0
C      1  0.4995850000000  0.4307230000000  0.4192350000000 1.0
C      1  0.4927690000000  0.5402380000000  0.4186330000000 1.0
C      1  0.5344260000000  0.5143700000000  0.5227620000000 1.0
C      1  0.4131960000000  0.4613930000000  0.4892930000000 1.0
C      1  0.4716860000000  0.5155420000000  0.4419720000000 1.0
C      1  0.4987290000000  0.4198870000000  0.5732130000000 1.0
C      1  0.5254140000000  0.5972860000000  0.4940520000000 1.0
C      1  0.5744430000000  0.4530190000000  0.5168270000000 1.0
C      1  0.5487830000000  0.4735920000000  0.5491460000000 1.0
C      1  0.5135910000000  0.5900150000000  0.4560480000000 1.0
C      1  0.5385980000000  0.4971460000000  0.4069850000000 1.0
C      1  0.4876360000000  0.4339520000000  0.5456510000000 1.0
C      1  0.5011360000000  0.5505120000000  0.5883830000000 1.0
C      1  0.5341070000000  0.5364450000000  0.4476240000000 1.0
C      1  0.4576930000000  0.4965480000000  0.6145680000000 1.0
C      1  0.5467650000000  0.6071160000000  0.4774020000000 1.0
C      1  0.4806300000000  0.5477210000000  0.5543190000000 1.0
C      1  0.5115120000000  0.4093120000000  0.4723990000000 1.0
C      1  0.4563750000000  0.5778270000000  0.5334610000000 1.0
C      1  0.5121720000000  0.5665070000000  0.4103380000000 1.0
C      1  0.5173710000000  0.5190260000000  0.3956700000000 1.0
C      1  0.4745240000000  0.5542450000000  0.4525000000000 1.0
C      1  0.4558520000000  0.5049930000000  0.5309700000000 1.0
C      1  0.5448280000000  0.5584800000000  0.4819160000000 1.0
END
