TITL C-3289321-8710-127 0.0013093784966879 125000 -822.336474755414 0 0 151 (C1) n - 1
REM
REM in /nfs/bkarasulu/CARBON/AIRSS/Generating-Clusters/AIREBO/with-SteepDescent/Higher-Symm/SD-CG/HFTN-CG
REM
REM
REM
REM
REM
REM ./C.cell (b20cbc046b6831c77cfcea5457e17084)
REM
REM compiler GCC version 9.2.1 20190827 (Red Hat 9.2.1-1)
REM options -cpp -mtune=generic -march=x86-64 -g -O0 -fpre-include=/usr/include/finclude/math-vector-fortran.h
REM seed 1989733481 -2134765939 849966504 1445910318 1259300178 -2118261558 1563845901 -618607237 -1994868251 1878061715 -2088268341 181275147 199775162 1599160508 -198969388 -86317344 163650925 -663649383 847316717 1647720774 -1838441511 -370602446 -2023957347 1609136164 -1957296453 363825598 1686626899 -1605226333 -1871050811 -1679522749 -317126815 1987782445 -153618348
REM
CELL 1.54180   50.00000   50.00000   50.00000   90.00000   90.00000   90.00000
LATT -1
SFAC C  
C      1  0.4465990000000  0.5182130000000  0.4247560000000 1.0
C      1  0.4860360000000  0.5617630000000  0.4024730000000 1.0
C      1  0.5372580000000  0.5505820000000  0.4201150000000 1.0
C      1  0.5563770000000  0.4860010000000  0.4196010000000 1.0
C      1  0.5163560000000  0.4455900000000  0.4134440000000 1.0
C      1  0.4417320000000  0.4624020000000  0.4124540000000 1.0
C      1  0.4369250000000  0.4945900000000  0.5802280000000 1.0
C      1  0.4866920000000  0.4284310000000  0.5980300000000 1.0
C      1  0.5323250000000  0.4536700000000  0.5790690000000 1.0
C      1  0.5618450000000  0.5264420000000  0.5872670000000 1.0
C      1  0.5187120000000  0.5566460000000  0.5779020000000 1.0
C      1  0.4592600000000  0.5377590000000  0.5774090000000 1.0
C      1  0.5185900000000  0.4195450000000  0.5021180000000 1.0
C      1  0.4482300000000  0.4487060000000  0.5035660000000 1.0
C      1  0.4221370000000  0.5074500000000  0.5164750000000 1.0
C      1  0.4791290000000  0.5716290000000  0.5155880000000 1.0
C      1  0.5480550000000  0.5452840000000  0.5061790000000 1.0
C      1  0.5685920000000  0.4830000000000  0.5094980000000 1.0
C      1  0.5213630000000  0.5685120000000  0.4862290000000 1.0
C      1  0.4569340000000  0.5513950000000  0.4848890000000 1.0
C      1  0.4246680000000  0.4725370000000  0.4977800000000 1.0
C      1  0.4878320000000  0.4269110000000  0.4976630000000 1.0
C      1  0.5430620000000  0.4498820000000  0.4948510000000 1.0
C      1  0.5653570000000  0.5203600000000  0.4908010000000 1.0
C      1  0.5050630000000  0.5959410000000  0.4743140000000 1.0
C      1  0.5906520000000  0.5386780000000  0.4807240000000 1.0
C      1  0.5742520000000  0.4464750000000  0.4839360000000 1.0
C      1  0.4970600000000  0.3906050000000  0.4635890000000 1.0
C      1  0.4070250000000  0.4540890000000  0.4782360000000 1.0
C      1  0.4253310000000  0.5553120000000  0.4819170000000 1.0
C      1  0.5081160000000  0.3994640000000  0.5269370000000 1.0
C      1  0.5870670000000  0.4575810000000  0.5238460000000 1.0
C      1  0.5753430000000  0.5555270000000  0.5202850000000 1.0
C      1  0.4963320000000  0.5994000000000  0.5251490000000 1.0
C      1  0.4126490000000  0.5392330000000  0.5241200000000 1.0
C      1  0.4212150000000  0.4388080000000  0.5195040000000 1.0
C      1  0.3906700000000  0.5162450000000  0.5217060000000 1.0
C      1  0.4658120000000  0.6021080000000  0.5162960000000 1.0
C      1  0.5851160000000  0.5748280000000  0.4968650000000 1.0
C      1  0.6024160000000  0.4855110000000  0.5119860000000 1.0
C      1  0.5242810000000  0.3871490000000  0.5006240000000 1.0
C      1  0.4206840000000  0.4206600000000  0.4953050000000 1.0
C      1  0.3887540000000  0.4570750000000  0.5051100000000 1.0
C      1  0.4771470000000  0.4035710000000  0.4802980000000 1.0
C      1  0.5811560000000  0.4230180000000  0.5049080000000 1.0
C      1  0.6086010000000  0.5352000000000  0.5040180000000 1.0
C      1  0.5269270000000  0.5993070000000  0.4995230000000 1.0
C      1  0.4159960000000  0.5725910000000  0.5023510000000 1.0
C      1  0.5308780000000  0.4945260000000  0.4652570000000 1.0
C      1  0.5085500000000  0.4718890000000  0.4709780000000 1.0
C      1  0.4774540000000  0.4785170000000  0.4589260000000 1.0
C      1  0.4585630000000  0.4988320000000  0.4783580000000 1.0
C      1  0.4947970000000  0.5397620000000  0.4742410000000 1.0
C      1  0.5255100000000  0.5256540000000  0.4779870000000 1.0
C      1  0.5373220000000  0.5167860000000  0.5360110000000 1.0
C      1  0.5155430000000  0.5394030000000  0.5283790000000 1.0
C      1  0.4715350000000  0.5192530000000  0.5258700000000 1.0
C      1  0.4669810000000  0.4868670000000  0.5259880000000 1.0
C      1  0.4875520000000  0.4656040000000  0.5391790000000 1.0
C      1  0.5193660000000  0.4660290000000  0.5327540000000 1.0
C      1  0.4755190000000  0.5774970000000  0.5549070000000 1.0
C      1  0.5625170000000  0.5746860000000  0.5656840000000 1.0
C      1  0.5781510000000  0.4883650000000  0.5635830000000 1.0
C      1  0.5330760000000  0.4147300000000  0.5702580000000 1.0
C      1  0.4509640000000  0.4309190000000  0.5600630000000 1.0
C      1  0.4215870000000  0.5096130000000  0.5563820000000 1.0
C      1  0.4718860000000  0.4275590000000  0.4389910000000 1.0
C      1  0.5470290000000  0.4350390000000  0.4455700000000 1.0
C      1  0.5785820000000  0.5134240000000  0.4371680000000 1.0
C      1  0.5320220000000  0.5770730000000  0.4366790000000 1.0
C      1  0.4484130000000  0.5670660000000  0.4359760000000 1.0
C      1  0.4116120000000  0.4877320000000  0.4383630000000 1.0
C      1  0.5349920000000  0.5214950000000  0.5877440000000 1.0
C      1  0.5152600000000  0.4441260000000  0.5992070000000 1.0
C      1  0.4874180000000  0.4596200000000  0.5977750000000 1.0
C      1  0.4533710000000  0.5145140000000  0.6015170000000 1.0
C      1  0.4843320000000  0.5282520000000  0.5985680000000 1.0
C      1  0.5103760000000  0.5352780000000  0.5985950000000 1.0
C      1  0.5522650000000  0.4763190000000  0.3944940000000 1.0
C      1  0.5125670000000  0.5405390000000  0.4001920000000 1.0
C      1  0.4809190000000  0.5312890000000  0.3919550000000 1.0
C      1  0.4609240000000  0.5130300000000  0.3976280000000 1.0
C      1  0.4586050000000  0.4837000000000  0.4084930000000 1.0
C      1  0.5260370000000  0.4656810000000  0.3915980000000 1.0
C      1  0.5333560000000  0.5805970000000  0.5632930000000 1.0
C      1  0.5807110000000  0.5211470000000  0.5599230000000 1.0
C      1  0.5565000000000  0.4362660000000  0.5656400000000 1.0
C      1  0.4787500000000  0.4168700000000  0.5718520000000 1.0
C      1  0.4158020000000  0.4763130000000  0.5608140000000 1.0
C      1  0.4506370000000  0.5616030000000  0.5563180000000 1.0
C      1  0.5233580000000  0.4298370000000  0.4340670000000 1.0
C      1  0.5792580000000  0.4814130000000  0.4414160000000 1.0
C      1  0.5629840000000  0.5635080000000  0.4384940000000 1.0
C      1  0.4788370000000  0.5755630000000  0.4286500000000 1.0
C      1  0.4206500000000  0.5162420000000  0.4387400000000 1.0
C      1  0.4418230000000  0.4400200000000  0.4380560000000 1.0
C      1  0.4937100000000  0.5259790000000  0.4455310000000 1.0
C      1  0.5189920000000  0.5246230000000  0.4288220000000 1.0
C      1  0.5303430000000  0.4968270000000  0.4329210000000 1.0
C      1  0.5089260000000  0.4772800000000  0.4186460000000 1.0
C      1  0.4820640000000  0.4817320000000  0.4284510000000 1.0
C      1  0.4728680000000  0.5107680000000  0.4357270000000 1.0
C      1  0.4862060000000  0.4751620000000  0.5718030000000 1.0
C      1  0.5181060000000  0.4764460000000  0.5624810000000 1.0
C      1  0.5267930000000  0.5045400000000  0.5632230000000 1.0
C      1  0.5083960000000  0.5317980000000  0.5588000000000 1.0
C      1  0.4795650000000  0.5232490000000  0.5556890000000 1.0
C      1  0.4696370000000  0.4993540000000  0.5748360000000 1.0
C      1  0.4297110000000  0.5681120000000  0.5296870000000 1.0
C      1  0.5293640000000  0.6012760000000  0.5329940000000 1.0
C      1  0.5941000000000  0.5287400000000  0.5295980000000 1.0
C      1  0.5747040000000  0.4284450000000  0.5351790000000 1.0
C      1  0.4800960000000  0.4143980000000  0.5382650000000 1.0
C      1  0.4029840000000  0.4631640000000  0.5321940000000 1.0
C      1  0.4305830000000  0.4313340000000  0.4690910000000 1.0
C      1  0.5161520000000  0.3755840000000  0.4776350000000 1.0
C      1  0.5921790000000  0.4728370000000  0.4716750000000 1.0
C      1  0.5803210000000  0.5681910000000  0.4673680000000 1.0
C      1  0.4784920000000  0.5989790000000  0.4533130000000 1.0
C      1  0.4178530000000  0.5251020000000  0.4690990000000 1.0
C      1  0.5050740000000  0.5737600000000  0.5456960000000 1.0
C      1  0.5749730000000  0.5540580000000  0.5530850000000 1.0
C      1  0.5691410000000  0.4643050000000  0.5511010000000 1.0
C      1  0.5089910000000  0.4141080000000  0.5562060000000 1.0
C      1  0.4355350000000  0.4517190000000  0.5480880000000 1.0
C      1  0.4384710000000  0.5322920000000  0.5440720000000 1.0
C      1  0.5004910000000  0.4201860000000  0.4523980000000 1.0
C      1  0.5576390000000  0.4612200000000  0.4581870000000 1.0
C      1  0.5698460000000  0.5342690000000  0.4536710000000 1.0
C      1  0.5058180000000  0.5725190000000  0.4496780000000 1.0
C      1  0.4357990000000  0.5474060000000  0.4507370000000 1.0
C      1  0.4242680000000  0.4659090000000  0.4514140000000 1.0
C      1  0.4552030000000  0.5482890000000  0.5190190000000 1.0
C      1  0.5319310000000  0.5682530000000  0.5254180000000 1.0
C      1  0.5652720000000  0.5137160000000  0.5236950000000 1.0
C      1  0.5484510000000  0.4488600000000  0.5287920000000 1.0
C      1  0.4727310000000  0.4411540000000  0.5237130000000 1.0
C      1  0.4374200000000  0.4787800000000  0.5275420000000 1.0
C      1  0.4514790000000  0.4601960000000  0.4710010000000 1.0
C      1  0.5179400000000  0.4393300000000  0.4744710000000 1.0
C      1  0.5625120000000  0.4893690000000  0.4766500000000 1.0
C      1  0.5468420000000  0.5506600000000  0.4726280000000 1.0
C      1  0.4772200000000  0.5682580000000  0.4678340000000 1.0
C      1  0.4290510000000  0.5022840000000  0.4851920000000 1.0
C      1  0.5353030000000  0.4792740000000  0.5076420000000 1.0
C      1  0.5297770000000  0.5097580000000  0.5056750000000 1.0
C      1  0.4709840000000  0.5234500000000  0.4922130000000 1.0
C      1  0.4798860000000  0.4850370000000  0.4982050000000 1.0
C      1  0.5013660000000  0.5533610000000  0.5047070000000 1.0
C      1  0.4844850000000  0.4554330000000  0.4884800000000 1.0
C      1  0.5027570000000  0.5001950000000  0.4985330000000 1.0
END
