TITL C-3289334-2237-231 0.000566204554616825 125000 -283.981811925853 0 0 54 (C1) n - 1
REM
REM in /nfs/bkarasulu/CARBON/AIRSS/Generating-Clusters/AIREBO/with-SteepDescent/Higher-Symm/SD-CG/HFTN-CG
REM
REM
REM
REM
REM
REM ./C.cell (b20cbc046b6831c77cfcea5457e17084)
REM
REM compiler GCC version 9.2.1 20190827 (Red Hat 9.2.1-1)
REM options -cpp -mtune=generic -march=x86-64 -g -O0 -fpre-include=/usr/include/finclude/math-vector-fortran.h
REM seed -2078619158 -1770215731 1422215369 -945333626 854995345 1408452018 1108316934 2072917496 413705676 -399640748 -110765280 2089358276 -2075594434 -1274427587 -1850395219 150788147 -608588664 2092879564 -731001479 -860686743 -1633506210 417075218 -434812713 2092372838 -741171283 -906507207 -820831130 -187026869 1582304305 588304259 -1904335554 470184453 584632505
REM
CELL 1.54180   50.00000   50.00000   50.00000   90.00000   90.00000   90.00000
LATT -1
SFAC C  
C      1  0.5345300000000  0.5039730000000  0.5576240000000 1.0
C      1  0.5573710000000  0.5269240000000  0.5148120000000 1.0
C      1  0.5136860000000  0.5489340000000  0.5296510000000 1.0
C      1  0.5161930000000  0.4786450000000  0.4527730000000 1.0
C      1  0.4705530000000  0.4961590000000  0.5473900000000 1.0
C      1  0.4622420000000  0.5157170000000  0.4456580000000 1.0
C      1  0.5519730000000  0.4756640000000  0.4909970000000 1.0
C      1  0.4459370000000  0.4645020000000  0.5123390000000 1.0
C      1  0.4400220000000  0.5412010000000  0.4909850000000 1.0
C      1  0.5222060000000  0.4307700000000  0.4748750000000 1.0
C      1  0.4930780000000  0.4513370000000  0.5269530000000 1.0
C      1  0.4911670000000  0.5535320000000  0.4721800000000 1.0
C      1  0.5455840000000  0.5518090000000  0.5195100000000 1.0
C      1  0.5567830000000  0.5006430000000  0.5404680000000 1.0
C      1  0.5106710000000  0.5315420000000  0.5525170000000 1.0
C      1  0.5444590000000  0.4487410000000  0.4982140000000 1.0
C      1  0.4615670000000  0.5601210000000  0.4930970000000 1.0
C      1  0.4624680000000  0.4443470000000  0.5161550000000 1.0
C      1  0.5424310000000  0.4856440000000  0.4623450000000 1.0
C      1  0.4402610000000  0.5162970000000  0.4637750000000 1.0
C      1  0.4527150000000  0.4959580000000  0.5250640000000 1.0
C      1  0.5112840000000  0.4458760000000  0.4538830000000 1.0
C      1  0.4935890000000  0.5343960000000  0.4507620000000 1.0
C      1  0.4941260000000  0.4681540000000  0.5505030000000 1.0
C      1  0.4973930000000  0.4523520000000  0.4292920000000 1.0
C      1  0.4118920000000  0.5268080000000  0.4539940000000 1.0
C      1  0.4633290000000  0.4133710000000  0.5141200000000 1.0
C      1  0.5235190000000  0.5364520000000  0.5797520000000 1.0
C      1  0.4906800000000  0.5473420000000  0.4214660000000 1.0
C      1  0.4793650000000  0.4582800000000  0.5771320000000 1.0
C      1  0.4188790000000  0.5034110000000  0.5269140000000 1.0
C      1  0.5707600000000  0.4888930000000  0.4582870000000 1.0
C      1  0.5850870000000  0.5149910000000  0.5410650000000 1.0
C      1  0.4578450000000  0.5888010000000  0.4797040000000 1.0
C      1  0.5364030000000  0.5792520000000  0.5170460000000 1.0
C      1  0.5605850000000  0.4253880000000  0.4872260000000 1.0
C      1  0.5453880000000  0.4090480000000  0.4703530000000 1.0
C      1  0.4228440000000  0.4827570000000  0.5030990000000 1.0
C      1  0.4654760000000  0.5352310000000  0.4223330000000 1.0
C      1  0.5072650000000  0.5809560000000  0.5179980000000 1.0
C      1  0.4920970000000  0.4180620000000  0.5196190000000 1.0
C      1  0.4796750000000  0.5810220000000  0.4642160000000 1.0
C      1  0.4153660000000  0.5461980000000  0.4738570000000 1.0
C      1  0.5858510000000  0.4876880000000  0.4824590000000 1.0
C      1  0.5911890000000  0.5289000000000  0.5177720000000 1.0
C      1  0.4623390000000  0.4796590000000  0.5722590000000 1.0
C      1  0.5401750000000  0.5154050000000  0.5870340000000 1.0
C      1  0.4971030000000  0.4808720000000  0.4236490000000 1.0
C      1  0.4915830000000  0.5546510000000  0.5047760000000 1.0
C      1  0.4910770000000  0.5012820000000  0.4490660000000 1.0
C      1  0.5150310000000  0.4374110000000  0.5058360000000 1.0
C      1  0.5026070000000  0.4999190000000  0.5517650000000 1.0
C      1  0.5696680000000  0.4963830000000  0.5092930000000 1.0
C      1  0.4425650000000  0.5093990000000  0.4955250000000 1.0
END
