TITL C-3289323-3850-2 -0.000176503773276255 125000 -179.909602347507 0 0 39 (C1) n - 1
REM
REM in /nfs/bkarasulu/CARBON/AIRSS/Generating-Clusters/AIREBO/with-SteepDescent/Higher-Symm/SD-CG/HFTN-CG
REM
REM
REM
REM
REM
REM ./C.cell (b20cbc046b6831c77cfcea5457e17084)
REM
REM compiler GCC version 9.2.1 20190827 (Red Hat 9.2.1-1)
REM options -cpp -mtune=generic -march=x86-64 -g -O0 -fpre-include=/usr/include/finclude/math-vector-fortran.h
REM seed -991080635 -24994319 -729334550 396789928 -2019836891 -1251537978 -899813623 -361432408 -1538988572 47114802 -1025870035 1870071303 -54941194 1808671406 -654913686 202302315 -575683605 -473088511 25370724 -356644702 -847470420 1387396222 859253567 1769150244 1776422056 199078961 -2048894836 940852731 791559245 -638927098 -931065250 -1961387315 -704501829
REM
CELL 1.54180   50.00000   50.00000   50.00000   90.00000   90.00000   90.00000
LATT -1
SFAC C  
C      1  0.4985470000000  0.5594870000000  0.4475710000000 1.0
C      1  0.4927960000000  0.4482720000000  0.5520220000000 1.0
C      1  0.4926880000000  0.4345910000000  0.4447640000000 1.0
C      1  0.4825890000000  0.5477610000000  0.5504610000000 1.0
C      1  0.4995740000000  0.4604200000000  0.4373990000000 1.0
C      1  0.4931050000000  0.5296450000000  0.5687030000000 1.0
C      1  0.5074900000000  0.5341460000000  0.4408150000000 1.0
C      1  0.5066970000000  0.4669090000000  0.5667800000000 1.0
C      1  0.5519550000000  0.4734930000000  0.4828280000000 1.0
C      1  0.5315630000000  0.5134540000000  0.5326180000000 1.0
C      1  0.5495630000000  0.5224840000000  0.4894910000000 1.0
C      1  0.5402890000000  0.4830820000000  0.5266430000000 1.0
C      1  0.4853180000000  0.5352250000000  0.5183780000000 1.0
C      1  0.4830100000000  0.4615030000000  0.4860310000000 1.0
C      1  0.4906080000000  0.4578860000000  0.5190740000000 1.0
C      1  0.4804920000000  0.5303090000000  0.4849270000000 1.0
C      1  0.5077800000000  0.4817410000000  0.5362040000000 1.0
C      1  0.4977270000000  0.5132890000000  0.4610450000000 1.0
C      1  0.5012490000000  0.5141870000000  0.5398500000000 1.0
C      1  0.4964140000000  0.4800820000000  0.4608640000000 1.0
C      1  0.4831890000000  0.5595400000000  0.4706830000000 1.0
C      1  0.4689350000000  0.4330470000000  0.5187720000000 1.0
C      1  0.4840200000000  0.4329330000000  0.4710870000000 1.0
C      1  0.4628160000000  0.5594220000000  0.5152590000000 1.0
C      1  0.4625260000000  0.5131420000000  0.5306290000000 1.0
C      1  0.4577560000000  0.4811530000000  0.4751310000000 1.0
C      1  0.4673350000000  0.4790430000000  0.5320280000000 1.0
C      1  0.4585510000000  0.5106440000000  0.4679430000000 1.0
C      1  0.5147510000000  0.5516840000000  0.5139660000000 1.0
C      1  0.5197500000000  0.4418100000000  0.5121050000000 1.0
C      1  0.5403510000000  0.4585940000000  0.5063840000000 1.0
C      1  0.5370610000000  0.5335340000000  0.5136890000000 1.0
C      1  0.5651250000000  0.5000220000000  0.4769440000000 1.0
C      1  0.4712260000000  0.4958080000000  0.5026960000000 1.0
C      1  0.4415780000000  0.5128030000000  0.5040950000000 1.0
C      1  0.5865120000000  0.5032250000000  0.4610400000000 1.0
C      1  0.5306020000000  0.4960500000000  0.4966730000000 1.0
C      1  0.5016040000000  0.4966930000000  0.4898380000000 1.0
C      1  0.4197080000000  0.5197980000000  0.4934440000000 1.0
END
