TITL C-3289326-3776-75 5.11762424778141e-05 125000 -505.381977992131 0 0 88 (C1) n - 1
REM
REM in /nfs/bkarasulu/CARBON/AIRSS/Generating-Clusters/AIREBO/with-SteepDescent/Higher-Symm/SD-CG/HFTN-CG
REM
REM
REM
REM
REM
REM ./C.cell (b20cbc046b6831c77cfcea5457e17084)
REM
REM compiler GCC version 9.2.1 20190827 (Red Hat 9.2.1-1)
REM options -cpp -mtune=generic -march=x86-64 -g -O0 -fpre-include=/usr/include/finclude/math-vector-fortran.h
REM seed -1820539556 -568669799 -968229194 -1887719303 -1025209398 1098510430 1696227183 2060375468 891881 -1517556221 1687312844 1806962140 -1167767223 -486005915 780529633 -1312618441 168150360 663255449 742959974 -277828682 1723939542 -2032534942 -125422754 1090399611 -788343599 1725931841 -1823807402 -652874794 1620214682 186486583 1174124726 1365084098 -2119156590
REM
CELL 1.54180   50.00000   50.00000   50.00000   90.00000   90.00000   90.00000
LATT -1
SFAC C  
C      1  0.4178950000000  0.4112110000000  0.4961750000000 1.0
C      1  0.4540600000000  0.4540880000000  0.4389470000000 1.0
C      1  0.4209640000000  0.5087260000000  0.4115100000000 1.0
C      1  0.4240270000000  0.5645760000000  0.4781810000000 1.0
C      1  0.3835520000000  0.5687420000000  0.5060490000000 1.0
C      1  0.4451050000000  0.5246210000000  0.5863660000000 1.0
C      1  0.4301060000000  0.4576560000000  0.5671450000000 1.0
C      1  0.5715790000000  0.5414830000000  0.5359850000000 1.0
C      1  0.5536940000000  0.4972350000000  0.5448990000000 1.0
C      1  0.5511590000000  0.4577850000000  0.5390610000000 1.0
C      1  0.5594150000000  0.4512930000000  0.4932370000000 1.0
C      1  0.5558570000000  0.4777150000000  0.4487380000000 1.0
C      1  0.5545430000000  0.5173800000000  0.4535450000000 1.0
C      1  0.5569180000000  0.5516720000000  0.4810610000000 1.0
C      1  0.5530470000000  0.4252530000000  0.4965490000000 1.0
C      1  0.5453980000000  0.4554410000000  0.4343360000000 1.0
C      1  0.5494650000000  0.5208750000000  0.4232490000000 1.0
C      1  0.5500790000000  0.5751650000000  0.4623870000000 1.0
C      1  0.5549460000000  0.5685760000000  0.5392980000000 1.0
C      1  0.5515440000000  0.5078320000000  0.5736240000000 1.0
C      1  0.5460830000000  0.4485590000000  0.5640780000000 1.0
C      1  0.4183560000000  0.5323490000000  0.5131420000000 1.0
C      1  0.4418280000000  0.5073500000000  0.5120060000000 1.0
C      1  0.4297230000000  0.4813760000000  0.5200900000000 1.0
C      1  0.4207800000000  0.4657850000000  0.4989010000000 1.0
C      1  0.4247420000000  0.4776230000000  0.4738840000000 1.0
C      1  0.4177800000000  0.5033640000000  0.4645690000000 1.0
C      1  0.4229890000000  0.5247860000000  0.4815800000000 1.0
C      1  0.5253720000000  0.5022390000000  0.5302360000000 1.0
C      1  0.5282580000000  0.4528270000000  0.5182320000000 1.0
C      1  0.5337260000000  0.4704210000000  0.4924080000000 1.0
C      1  0.5288630000000  0.4814030000000  0.4633730000000 1.0
C      1  0.5291090000000  0.5172260000000  0.4714390000000 1.0
C      1  0.5319860000000  0.5467870000000  0.5005080000000 1.0
C      1  0.5423110000000  0.5290800000000  0.5239190000000 1.0
C      1  0.4497260000000  0.5156860000000  0.5610400000000 1.0
C      1  0.4442280000000  0.4685680000000  0.5456640000000 1.0
C      1  0.4304330000000  0.4345950000000  0.5002730000000 1.0
C      1  0.4532900000000  0.4696400000000  0.4649890000000 1.0
C      1  0.4283290000000  0.5104150000000  0.4367700000000 1.0
C      1  0.4488210000000  0.5444860000000  0.4732480000000 1.0
C      1  0.4071400000000  0.5573640000000  0.4984430000000 1.0
C      1  0.5771760000000  0.5096570000000  0.5251080000000 1.0
C      1  0.5752690000000  0.4766450000000  0.5286990000000 1.0
C      1  0.5819130000000  0.4652290000000  0.5017880000000 1.0
C      1  0.5953160000000  0.4790110000000  0.4827030000000 1.0
C      1  0.5785720000000  0.4952740000000  0.4628470000000 1.0
C      1  0.5796960000000  0.5282320000000  0.4713090000000 1.0
C      1  0.5760450000000  0.5346230000000  0.5032480000000 1.0
C      1  0.5235680000000  0.4211740000000  0.5066830000000 1.0
C      1  0.5167180000000  0.4531750000000  0.4372330000000 1.0
C      1  0.5223080000000  0.5220160000000  0.4146370000000 1.0
C      1  0.5221920000000  0.5790070000000  0.4574180000000 1.0
C      1  0.5253650000000  0.5648960000000  0.5285290000000 1.0
C      1  0.5249530000000  0.5150710000000  0.5808010000000 1.0
C      1  0.5186500000000  0.4472940000000  0.5713110000000 1.0
C      1  0.4577040000000  0.4529550000000  0.4905470000000 1.0
C      1  0.4687160000000  0.4962560000000  0.4667650000000 1.0
C      1  0.4525650000000  0.5192630000000  0.4531850000000 1.0
C      1  0.4702300000000  0.5449290000000  0.4944850000000 1.0
C      1  0.4667000000000  0.5376380000000  0.5199020000000 1.0
C      1  0.4632040000000  0.4912860000000  0.5534760000000 1.0
C      1  0.4514850000000  0.4482530000000  0.5231730000000 1.0
C      1  0.5048450000000  0.4787380000000  0.4315970000000 1.0
C      1  0.5077020000000  0.5406500000000  0.4305790000000 1.0
C      1  0.5067550000000  0.5749600000000  0.4810790000000 1.0
C      1  0.5099720000000  0.5470420000000  0.5480860000000 1.0
C      1  0.5067200000000  0.4941110000000  0.5754240000000 1.0
C      1  0.5032260000000  0.4394100000000  0.5489250000000 1.0
C      1  0.5037970000000  0.4340580000000  0.4860550000000 1.0
C      1  0.5059250000000  0.4351430000000  0.4575550000000 1.0
C      1  0.5095980000000  0.4965970000000  0.4098240000000 1.0
C      1  0.5112170000000  0.5685670000000  0.4331490000000 1.0
C      1  0.5126310000000  0.5853940000000  0.5060920000000 1.0
C      1  0.5162200000000  0.5414140000000  0.5740410000000 1.0
C      1  0.5080440000000  0.4684510000000  0.5868130000000 1.0
C      1  0.5093710000000  0.4164950000000  0.5350420000000 1.0
C      1  0.4921330000000  0.5269570000000  0.5353360000000 1.0
C      1  0.4955100000000  0.4943620000000  0.5444700000000 1.0
C      1  0.4980100000000  0.4639660000000  0.5290740000000 1.0
C      1  0.4865720000000  0.4512440000000  0.5005680000000 1.0
C      1  0.4984560000000  0.4955720000000  0.4576200000000 1.0
C      1  0.5030160000000  0.5277890000000  0.4568070000000 1.0
C      1  0.5017430000000  0.5427830000000  0.4854880000000 1.0
C      1  0.4414290000000  0.5302290000000  0.5362710000000 1.0
C      1  0.4964900000000  0.5155230000000  0.5051260000000 1.0
C      1  0.4686240000000  0.5050260000000  0.4964510000000 1.0
C      1  0.5244680000000  0.4998840000000  0.4983190000000 1.0
END
