TITL C-3289322-3858-460 0.00315873467838349 125000 -749.907953380592 0 0 129 (C1) n - 1
REM
REM in /nfs/bkarasulu/CARBON/AIRSS/Generating-Clusters/AIREBO/with-SteepDescent/Higher-Symm/SD-CG/HFTN-CG
REM
REM
REM
REM
REM
REM ./C.cell (b20cbc046b6831c77cfcea5457e17084)
REM
REM compiler GCC version 9.2.1 20190827 (Red Hat 9.2.1-1)
REM options -cpp -mtune=generic -march=x86-64 -g -O0 -fpre-include=/usr/include/finclude/math-vector-fortran.h
REM seed 1602293875 -1672301259 -1590255141 -859248010 -483841967 1974905332 479902309 254782426 -168680642 -1692526373 -461028329 -911844499 -1619497503 -483630949 688883659 -1063089097 1897456239 -1472078209 -1899205341 633773653 -1910066714 589841553 -1922865251 482236386 -904762005 -1785765445 1188196774 -14898492 -1404067236 -1780246088 401817148 -405301148 262049051
REM
CELL 1.54180   50.00000   50.00000   50.00000   90.00000   90.00000   90.00000
LATT -1
SFAC C  
C      1  0.5295690000000  0.4710960000000  0.5711620000000 1.0
C      1  0.4835350000000  0.5766470000000  0.5170030000000 1.0
C      1  0.5733680000000  0.5205950000000  0.4679650000000 1.0
C      1  0.4660760000000  0.5180010000000  0.5846640000000 1.0
C      1  0.5294790000000  0.5291530000000  0.4180420000000 1.0
C      1  0.4736170000000  0.4750650000000  0.4224030000000 1.0
C      1  0.5303310000000  0.4315180000000  0.5286280000000 1.0
C      1  0.4626940000000  0.4233330000000  0.4767420000000 1.0
C      1  0.5268510000000  0.5705480000000  0.4759170000000 1.0
C      1  0.4282210000000  0.4823670000000  0.4669110000000 1.0
C      1  0.5706990000000  0.4767460000000  0.5303120000000 1.0
C      1  0.4236650000000  0.5207570000000  0.5188540000000 1.0
C      1  0.5290260000000  0.4658880000000  0.4052480000000 1.0
C      1  0.4973980000000  0.5616320000000  0.4904120000000 1.0
C      1  0.5860620000000  0.5288930000000  0.5289680000000 1.0
C      1  0.4797740000000  0.5086660000000  0.4255830000000 1.0
C      1  0.5215450000000  0.5251720000000  0.5799850000000 1.0
C      1  0.4729530000000  0.4852530000000  0.5770460000000 1.0
C      1  0.5264330000000  0.4335580000000  0.4679630000000 1.0
C      1  0.4686090000000  0.4216190000000  0.5266620000000 1.0
C      1  0.5363840000000  0.5644480000000  0.5236530000000 1.0
C      1  0.4315750000000  0.4690480000000  0.5337020000000 1.0
C      1  0.5663230000000  0.4875480000000  0.4723080000000 1.0
C      1  0.4249160000000  0.5098660000000  0.4866420000000 1.0
C      1  0.4621600000000  0.5593870000000  0.4226470000000 1.0
C      1  0.5633060000000  0.4486510000000  0.4658190000000 1.0
C      1  0.4359040000000  0.4714230000000  0.5731070000000 1.0
C      1  0.5312390000000  0.4301570000000  0.4353840000000 1.0
C      1  0.4668110000000  0.4370040000000  0.5631220000000 1.0
C      1  0.5246430000000  0.5687220000000  0.5616270000000 1.0
C      1  0.4604610000000  0.5633420000000  0.4695910000000 1.0
C      1  0.5720190000000  0.5725870000000  0.5380980000000 1.0
C      1  0.4256640000000  0.4367050000000  0.5403100000000 1.0
C      1  0.5561230000000  0.5337590000000  0.5625940000000 1.0
C      1  0.4350840000000  0.5312750000000  0.4468150000000 1.0
C      1  0.5470490000000  0.4751870000000  0.4276200000000 1.0
C      1  0.4706750000000  0.5523590000000  0.5513340000000 1.0
C      1  0.5711360000000  0.4463760000000  0.5348200000000 1.0
C      1  0.4415720000000  0.4675330000000  0.4250940000000 1.0
C      1  0.5330810000000  0.4331110000000  0.5592110000000 1.0
C      1  0.4707290000000  0.4400800000000  0.4413870000000 1.0
C      1  0.5238240000000  0.5693610000000  0.4429310000000 1.0
C      1  0.4337420000000  0.5713680000000  0.5272840000000 1.0
C      1  0.5648470000000  0.5662210000000  0.4644170000000 1.0
C      1  0.4299610000000  0.4424810000000  0.4677500000000 1.0
C      1  0.5567500000000  0.5406470000000  0.4243820000000 1.0
C      1  0.4386530000000  0.5270300000000  0.5710480000000 1.0
C      1  0.5605460000000  0.4715440000000  0.5740750000000 1.0
C      1  0.4843230000000  0.4830130000000  0.3914190000000 1.0
C      1  0.4828260000000  0.4059340000000  0.4826020000000 1.0
C      1  0.4027400000000  0.4768730000000  0.4842450000000 1.0
C      1  0.5202120000000  0.5153570000000  0.3934820000000 1.0
C      1  0.4851650000000  0.5072980000000  0.6078450000000 1.0
C      1  0.5117070000000  0.4802120000000  0.5955710000000 1.0
C      1  0.5132020000000  0.5982390000000  0.4901650000000 1.0
C      1  0.4989040000000  0.5986880000000  0.5363220000000 1.0
C      1  0.5149200000000  0.4106670000000  0.5153080000000 1.0
C      1  0.5981360000000  0.5092090000000  0.4828060000000 1.0
C      1  0.3972350000000  0.5025210000000  0.5141250000000 1.0
C      1  0.5939470000000  0.4838740000000  0.5130590000000 1.0
C      1  0.4817630000000  0.4760540000000  0.6085850000000 1.0
C      1  0.4857050000000  0.4040620000000  0.5133970000000 1.0
C      1  0.4071800000000  0.4737940000000  0.5135900000000 1.0
C      1  0.5147580000000  0.5094030000000  0.6010990000000 1.0
C      1  0.4891220000000  0.5150610000000  0.3935250000000 1.0
C      1  0.5151480000000  0.4851200000000  0.3910750000000 1.0
C      1  0.5199880000000  0.5929510000000  0.5173790000000 1.0
C      1  0.4863370000000  0.6030280000000  0.4823660000000 1.0
C      1  0.5122600000000  0.4126110000000  0.4850060000000 1.0
C      1  0.6017710000000  0.5130790000000  0.5131680000000 1.0
C      1  0.3902590000000  0.5071400000000  0.4829030000000 1.0
C      1  0.5945440000000  0.4765720000000  0.4839010000000 1.0
C      1  0.5544150000000  0.4292090000000  0.4871700000000 1.0
C      1  0.4135860000000  0.4873590000000  0.5572120000000 1.0
C      1  0.4840950000000  0.5422520000000  0.4223260000000 1.0
C      1  0.4626890000000  0.5871070000000  0.4845750000000 1.0
C      1  0.5589820000000  0.5870600000000  0.5120680000000 1.0
C      1  0.4404390000000  0.4217230000000  0.5212620000000 1.0
C      1  0.5783840000000  0.5189870000000  0.5544530000000 1.0
C      1  0.4197640000000  0.5136450000000  0.4309770000000 1.0
C      1  0.5686690000000  0.4931060000000  0.4398960000000 1.0
C      1  0.5157060000000  0.4422550000000  0.4145630000000 1.0
C      1  0.4854880000000  0.4536460000000  0.5765920000000 1.0
C      1  0.5079240000000  0.5495410000000  0.5782770000000 1.0
C      1  0.5584500000000  0.4306090000000  0.5141050000000 1.0
C      1  0.4250360000000  0.4865290000000  0.4369700000000 1.0
C      1  0.4802390000000  0.5451410000000  0.5759090000000 1.0
C      1  0.4526430000000  0.5830110000000  0.5121510000000 1.0
C      1  0.5554510000000  0.5879540000000  0.4846100000000 1.0
C      1  0.4348420000000  0.4211590000000  0.4929890000000 1.0
C      1  0.5742640000000  0.5225330000000  0.4351850000000 1.0
C      1  0.4187250000000  0.5145240000000  0.5519350000000 1.0
C      1  0.5743960000000  0.4912290000000  0.5580600000000 1.0
C      1  0.5114470000000  0.4454450000000  0.5758030000000 1.0
C      1  0.4881490000000  0.4440800000000  0.4165200000000 1.0
C      1  0.5095000000000  0.5513440000000  0.4269400000000 1.0
C      1  0.5340580000000  0.4621420000000  0.5142760000000 1.0
C      1  0.4532800000000  0.5169190000000  0.5320600000000 1.0
C      1  0.5155040000000  0.5169440000000  0.4462800000000 1.0
C      1  0.4765390000000  0.5249820000000  0.5113220000000 1.0
C      1  0.5479890000000  0.5457570000000  0.4856840000000 1.0
C      1  0.4548060000000  0.4551620000000  0.4872060000000 1.0
C      1  0.5390320000000  0.4879340000000  0.5362250000000 1.0
C      1  0.4619350000000  0.4820650000000  0.4713860000000 1.0
C      1  0.5398770000000  0.5174420000000  0.4698360000000 1.0
C      1  0.4846120000000  0.4684830000000  0.4539070000000 1.0
C      1  0.5139050000000  0.4656150000000  0.5414410000000 1.0
C      1  0.4896560000000  0.5471240000000  0.5283860000000 1.0
C      1  0.5419860000000  0.4672570000000  0.4846930000000 1.0
C      1  0.4517610000000  0.5141920000000  0.4662050000000 1.0
C      1  0.5176190000000  0.5447970000000  0.5385070000000 1.0
C      1  0.4783520000000  0.5390490000000  0.4815600000000 1.0
C      1  0.5648390000000  0.5478840000000  0.5151490000000 1.0
C      1  0.4586550000000  0.4590120000000  0.5165720000000 1.0
C      1  0.5312100000000  0.4889150000000  0.4531010000000 1.0
C      1  0.4526700000000  0.4900810000000  0.5501390000000 1.0
C      1  0.5311340000000  0.5157120000000  0.5498350000000 1.0
C      1  0.4837640000000  0.4503350000000  0.5368070000000 1.0
C      1  0.5133900000000  0.4649370000000  0.4663930000000 1.0
C      1  0.4845940000000  0.5177610000000  0.4579900000000 1.0
C      1  0.5529700000000  0.5649550000000  0.4388590000000 1.0
C      1  0.4412740000000  0.5464880000000  0.5438150000000 1.0
C      1  0.5598060000000  0.4440730000000  0.5616360000000 1.0
C      1  0.4397740000000  0.4439090000000  0.5654590000000 1.0
C      1  0.4465570000000  0.5566550000000  0.4458050000000 1.0
C      1  0.5551970000000  0.4471560000000  0.4395530000000 1.0
C      1  0.4413600000000  0.4421580000000  0.4408710000000 1.0
C      1  0.5538320000000  0.5618700000000  0.5595530000000 1.0
C      1  0.4928600000000  0.5002140000000  0.5035340000000 1.0
END
