TITL C-3289323-3850-521 -0.00189146895369528 125000 -183.148515818333 0 0 33 (C1) n - 1
REM
REM in /nfs/bkarasulu/CARBON/AIRSS/Generating-Clusters/AIREBO/with-SteepDescent/Higher-Symm/SD-CG/HFTN-CG
REM
REM
REM
REM
REM
REM ./C.cell (b20cbc046b6831c77cfcea5457e17084)
REM
REM compiler GCC version 9.2.1 20190827 (Red Hat 9.2.1-1)
REM options -cpp -mtune=generic -march=x86-64 -g -O0 -fpre-include=/usr/include/finclude/math-vector-fortran.h
REM seed 787002553 2140473367 -397115832 -838374363 52136479 1403268798 -313419668 -668509506 -711762645 1182998669 357368760 -978641946 977201925 -1928606406 1055703720 1812400073 1609421105 147967924 -815222866 -1375614374 566536716 -173390920 1455122909 -1933779450 535224676 1327734993 -1865205111 -2063617496 -108618161 -1951663026 2122528648 -196245561 1489963329
REM
CELL 1.54180   50.00000   50.00000   50.00000   90.00000   90.00000   90.00000
LATT -1
SFAC C  
C      1  0.5304710000000  0.5024970000000  0.5470090000000 1.0
C      1  0.4811060000000  0.5256520000000  0.5531380000000 1.0
C      1  0.4897730000000  0.4719950000000  0.5461740000000 1.0
C      1  0.5215800000000  0.4819380000000  0.4901690000000 1.0
C      1  0.4948270000000  0.5237530000000  0.5060060000000 1.0
C      1  0.4906990000000  0.4929230000000  0.4992570000000 1.0
C      1  0.4571390000000  0.4914050000000  0.5045770000000 1.0
C      1  0.5365360000000  0.4583990000000  0.5057850000000 1.0
C      1  0.5069430000000  0.5439080000000  0.4900200000000 1.0
C      1  0.5122590000000  0.4649440000000  0.4471020000000 1.0
C      1  0.5239220000000  0.5298210000000  0.4470580000000 1.0
C      1  0.4657600000000  0.5086880000000  0.4561130000000 1.0
C      1  0.5273590000000  0.4939250000000  0.5214630000000 1.0
C      1  0.4768570000000  0.5353780000000  0.5273860000000 1.0
C      1  0.4869440000000  0.4661620000000  0.5199000000000 1.0
C      1  0.4789660000000  0.4397670000000  0.4763560000000 1.0
C      1  0.5578630000000  0.5143720000000  0.4787880000000 1.0
C      1  0.4596560000000  0.5507000000000  0.4808900000000 1.0
C      1  0.4781450000000  0.4967580000000  0.5626740000000 1.0
C      1  0.5105870000000  0.4863370000000  0.5689150000000 1.0
C      1  0.5098730000000  0.5207990000000  0.5632220000000 1.0
C      1  0.5505910000000  0.4409750000000  0.5180500000000 1.0
C      1  0.4998060000000  0.5717690000000  0.5010960000000 1.0
C      1  0.4488200000000  0.4650420000000  0.5078640000000 1.0
C      1  0.5276790000000  0.4839860000000  0.4611900000000 1.0
C      1  0.5020560000000  0.5397580000000  0.4617910000000 1.0
C      1  0.4773740000000  0.4866040000000  0.4686180000000 1.0
C      1  0.4734380000000  0.5355030000000  0.4604960000000 1.0
C      1  0.4865780000000  0.4613400000000  0.4590990000000 1.0
C      1  0.5402910000000  0.5087460000000  0.4568370000000 1.0
C      1  0.4727530000000  0.5571030000000  0.5058940000000 1.0
C      1  0.4712850000000  0.4454610000000  0.5033300000000 1.0
C      1  0.5520620000000  0.5035910000000  0.5037300000000 1.0
END
