TITL C-3289324-3781-531 -0.000261291341325604 125000 -276.549064720448 0 0 53 (C1) n - 1
REM
REM in /nfs/bkarasulu/CARBON/AIRSS/Generating-Clusters/AIREBO/with-SteepDescent/Higher-Symm/SD-CG/HFTN-CG
REM
REM
REM
REM
REM
REM ./C.cell (b20cbc046b6831c77cfcea5457e17084)
REM
REM compiler GCC version 9.2.1 20190827 (Red Hat 9.2.1-1)
REM options -cpp -mtune=generic -march=x86-64 -g -O0 -fpre-include=/usr/include/finclude/math-vector-fortran.h
REM seed -1819680325 293896281 -927013983 338752375 720109375 845638471 -896850057 -793508463 -1301775989 -1979421413 -2125261070 -1803901045 -92771460 -1976018204 1774738970 -596049696 -58948951 -252169005 -9558445 -276188375 -477581759 363899044 1234139923 -1996712103 -843142596 -334186999 1471417504 -503581171 -1933237412 397056272 -834188066 -989012515 -2134446425
REM
CELL 1.54180   50.00000   50.00000   50.00000   90.00000   90.00000   90.00000
LATT -1
SFAC C  
C      1  0.4964420000000  0.4692460000000  0.5037150000000 1.0
C      1  0.5573210000000  0.4696260000000  0.5487460000000 1.0
C      1  0.4988070000000  0.5420350000000  0.5333030000000 1.0
C      1  0.5246270000000  0.5590990000000  0.5080400000000 1.0
C      1  0.4876400000000  0.5549870000000  0.4699380000000 1.0
C      1  0.5612330000000  0.5022570000000  0.4367870000000 1.0
C      1  0.5129910000000  0.4422240000000  0.4915910000000 1.0
C      1  0.5692960000000  0.5069410000000  0.4686820000000 1.0
C      1  0.4771430000000  0.4439980000000  0.4554520000000 1.0
C      1  0.5035860000000  0.5131330000000  0.5259710000000 1.0
C      1  0.4231590000000  0.4888580000000  0.4241080000000 1.0
C      1  0.4904320000000  0.4553950000000  0.4332860000000 1.0
C      1  0.5362490000000  0.4657740000000  0.4595870000000 1.0
C      1  0.4983950000000  0.5600780000000  0.4956680000000 1.0
C      1  0.5155950000000  0.4956240000000  0.4994010000000 1.0
C      1  0.5158390000000  0.4662160000000  0.4343500000000 1.0
C      1  0.3986950000000  0.5723330000000  0.5261000000000 1.0
C      1  0.5348410000000  0.4682770000000  0.4917170000000 1.0
C      1  0.4578750000000  0.4555590000000  0.4731150000000 1.0
C      1  0.5450230000000  0.4800870000000  0.4326540000000 1.0
C      1  0.4778380000000  0.5568980000000  0.5162930000000 1.0
C      1  0.5376970000000  0.5738640000000  0.5597840000000 1.0
C      1  0.4112230000000  0.4625530000000  0.4791570000000 1.0
C      1  0.5788970000000  0.4632640000000  0.5648710000000 1.0
C      1  0.4257530000000  0.5679540000000  0.5217700000000 1.0
C      1  0.4406170000000  0.5185230000000  0.4571290000000 1.0
C      1  0.4328440000000  0.4927940000000  0.4490860000000 1.0
C      1  0.3810770000000  0.5673210000000  0.5062140000000 1.0
C      1  0.5204520000000  0.4668590000000  0.5911910000000 1.0
C      1  0.5498160000000  0.5431920000000  0.5158100000000 1.0
C      1  0.5436520000000  0.4555730000000  0.5220080000000 1.0
C      1  0.5878910000000  0.4759200000000  0.4861800000000 1.0
C      1  0.4881140000000  0.4428660000000  0.5226260000000 1.0
C      1  0.5286000000000  0.4592500000000  0.5588540000000 1.0
C      1  0.5650430000000  0.4812620000000  0.5000820000000 1.0
C      1  0.4895380000000  0.5257830000000  0.4584620000000 1.0
C      1  0.4513270000000  0.5612910000000  0.5185000000000 1.0
C      1  0.4980020000000  0.4975270000000  0.5473260000000 1.0
C      1  0.5243240000000  0.5626950000000  0.5395090000000 1.0
C      1  0.5627110000000  0.4925410000000  0.5261840000000 1.0
C      1  0.4903370000000  0.4177590000000  0.5002750000000 1.0
C      1  0.4628770000000  0.4482710000000  0.5004790000000 1.0
C      1  0.5610440000000  0.5207220000000  0.5272770000000 1.0
C      1  0.5039370000000  0.5066380000000  0.4694150000000 1.0
C      1  0.5514710000000  0.5298250000000  0.4522070000000 1.0
C      1  0.5361720000000  0.5108800000000  0.4759380000000 1.0
C      1  0.5095570000000  0.4841380000000  0.5676190000000 1.0
C      1  0.4605500000000  0.5375000000000  0.4589960000000 1.0
C      1  0.5092220000000  0.4389080000000  0.5450500000000 1.0
C      1  0.4957710000000  0.5469160000000  0.5625890000000 1.0
C      1  0.4937330000000  0.4265100000000  0.4698120000000 1.0
C      1  0.3904190000000  0.5819220000000  0.5499830000000 1.0
C      1  0.4343050000000  0.4703350000000  0.4671140000000 1.0
END
