TITL C-3289326-3776-392 -0.00100395979378089 125000 -391.33025380144 0 0 68 (C1) n - 1
REM
REM in /nfs/bkarasulu/CARBON/AIRSS/Generating-Clusters/AIREBO/with-SteepDescent/Higher-Symm/SD-CG/HFTN-CG
REM
REM
REM
REM
REM
REM ./C.cell (b20cbc046b6831c77cfcea5457e17084)
REM
REM compiler GCC version 9.2.1 20190827 (Red Hat 9.2.1-1)
REM options -cpp -mtune=generic -march=x86-64 -g -O0 -fpre-include=/usr/include/finclude/math-vector-fortran.h
REM seed 1769736955 -353579141 163211420 89121480 45391476 -1205948195 -1207262079 2081184245 863872720 95708644 -828258824 1310789579 -533504328 -1626644627 -1748907066 -1118637153 459668009 837451489 -993166953 185715307 -958909061 646943878 -1034996274 -1476296609 1338342844 -363471746 1659412506 -1241622463 -337646040 1647301899 -660818656 1376631002 -730472624
REM
CELL 1.54180   50.00000   50.00000   50.00000   90.00000   90.00000   90.00000
LATT -1
SFAC C  
C      1  0.4804220000000  0.4490390000000  0.4612870000000 1.0
C      1  0.5237660000000  0.4339090000000  0.4485980000000 1.0
C      1  0.5424450000000  0.4287730000000  0.5239830000000 1.0
C      1  0.4896640000000  0.4373270000000  0.5463810000000 1.0
C      1  0.4552810000000  0.4477160000000  0.5131880000000 1.0
C      1  0.5614510000000  0.4670160000000  0.4518210000000 1.0
C      1  0.5742020000000  0.4751960000000  0.5399110000000 1.0
C      1  0.4701530000000  0.4676680000000  0.5796640000000 1.0
C      1  0.4226890000000  0.4796410000000  0.5028740000000 1.0
C      1  0.4960670000000  0.4698240000000  0.4226200000000 1.0
C      1  0.4996010000000  0.4477010000000  0.4403770000000 1.0
C      1  0.5484450000000  0.4454150000000  0.4413520000000 1.0
C      1  0.5586180000000  0.4544390000000  0.5317870000000 1.0
C      1  0.4791880000000  0.4424220000000  0.5721520000000 1.0
C      1  0.4290320000000  0.4559950000000  0.5148440000000 1.0
C      1  0.5367300000000  0.5449650000000  0.5560250000000 1.0
C      1  0.4527550000000  0.5413460000000  0.5486810000000 1.0
C      1  0.4366620000000  0.5443460000000  0.4730110000000 1.0
C      1  0.5029980000000  0.5406150000000  0.4370110000000 1.0
C      1  0.5587190000000  0.5367280000000  0.4859370000000 1.0
C      1  0.4760370000000  0.4700810000000  0.5111070000000 1.0
C      1  0.4841510000000  0.4743810000000  0.4783550000000 1.0
C      1  0.5130230000000  0.4715490000000  0.4960960000000 1.0
C      1  0.5275640000000  0.4595940000000  0.5244110000000 1.0
C      1  0.4980570000000  0.4637880000000  0.5339690000000 1.0
C      1  0.4378650000000  0.5028850000000  0.5015720000000 1.0
C      1  0.4847200000000  0.4941190000000  0.4316490000000 1.0
C      1  0.5547300000000  0.4915100000000  0.4626660000000 1.0
C      1  0.5624760000000  0.4999440000000  0.5415700000000 1.0
C      1  0.4742920000000  0.4925040000000  0.5708310000000 1.0
C      1  0.5214290000000  0.5234960000000  0.4807230000000 1.0
C      1  0.5237710000000  0.5373800000000  0.5190780000000 1.0
C      1  0.4869740000000  0.5279220000000  0.5330450000000 1.0
C      1  0.4620030000000  0.5347210000000  0.5025800000000 1.0
C      1  0.4834500000000  0.5282780000000  0.4696140000000 1.0
C      1  0.4718150000000  0.5022100000000  0.5042780000000 1.0
C      1  0.4838650000000  0.4986470000000  0.4611260000000 1.0
C      1  0.5307220000000  0.4933040000000  0.4789200000000 1.0
C      1  0.5352720000000  0.5077280000000  0.5227040000000 1.0
C      1  0.4857750000000  0.4947490000000  0.5409680000000 1.0
C      1  0.5133620000000  0.5828190000000  0.5182310000000 1.0
C      1  0.4842630000000  0.5816720000000  0.5216050000000 1.0
C      1  0.4725320000000  0.5827630000000  0.4945680000000 1.0
C      1  0.4941190000000  0.5798870000000  0.4752850000000 1.0
C      1  0.5189360000000  0.5778890000000  0.4898420000000 1.0
C      1  0.4902050000000  0.4181860000000  0.5246880000000 1.0
C      1  0.4683280000000  0.4234080000000  0.5067430000000 1.0
C      1  0.4756650000000  0.4249070000000  0.4777850000000 1.0
C      1  0.5218040000000  0.4212720000000  0.4741030000000 1.0
C      1  0.5197810000000  0.4161190000000  0.5080000000000 1.0
C      1  0.5554640000000  0.5215090000000  0.4601140000000 1.0
C      1  0.5591970000000  0.5307620000000  0.5449130000000 1.0
C      1  0.4774340000000  0.5251610000000  0.5655700000000 1.0
C      1  0.4234500000000  0.5285570000000  0.4953560000000 1.0
C      1  0.4783520000000  0.5238490000000  0.4303960000000 1.0
C      1  0.4391350000000  0.5353010000000  0.5247670000000 1.0
C      1  0.4555230000000  0.5348100000000  0.4530840000000 1.0
C      1  0.5275590000000  0.5317440000000  0.4483050000000 1.0
C      1  0.5615100000000  0.5264880000000  0.5119450000000 1.0
C      1  0.5094920000000  0.5347460000000  0.5594810000000 1.0
C      1  0.4901340000000  0.5592440000000  0.4571590000000 1.0
C      1  0.5339760000000  0.5548940000000  0.4845100000000 1.0
C      1  0.5262620000000  0.5631420000000  0.5334030000000 1.0
C      1  0.4756050000000  0.5603610000000  0.5379880000000 1.0
C      1  0.4532930000000  0.5634490000000  0.4902630000000 1.0
C      1  0.5048640000000  0.4975590000000  0.5142450000000 1.0
C      1  0.4959490000000  0.5338070000000  0.5007570000000 1.0
C      1  0.5023250000000  0.4394100000000  0.4931160000000 1.0
END
