TITL C-3289320-4661-325 -0.000845843777885191 125000 -828.318736484914 0 0 151 (C1) n - 1
REM
REM in /nfs/bkarasulu/CARBON/AIRSS/Generating-Clusters/AIREBO/with-SteepDescent/Higher-Symm/SD-CG/HFTN-CG
REM
REM
REM
REM
REM
REM ./C.cell (b20cbc046b6831c77cfcea5457e17084)
REM
REM compiler GCC version 9.2.1 20190827 (Red Hat 9.2.1-1)
REM options -cpp -mtune=generic -march=x86-64 -g -O0 -fpre-include=/usr/include/finclude/math-vector-fortran.h
REM seed -1292385890 730150160 1203051019 -1226554793 649146201 812119781 1487808093 -909903191 -1938497569 -2032234795 1373493926 -74771422 1474466196 488607336 -754473163 1862120117 1230754837 -328322267 -313162968 2078191565 187032149 1626874572 1419747321 121189439 1679809300 -156535514 539206970 -374739430 926082290 1959116111 1613590094 -1244798042 -824225542
REM
CELL 1.54180   50.00000   50.00000   50.00000   90.00000   90.00000   90.00000
LATT -1
SFAC C  
C      1  0.4285780000000  0.5445820000000  0.5321980000000 1.0
C      1  0.5588590000000  0.5295920000000  0.4218640000000 1.0
C      1  0.5285960000000  0.4300800000000  0.5559120000000 1.0
C      1  0.5672970000000  0.4560310000000  0.5362710000000 1.0
C      1  0.4216880000000  0.4433520000000  0.4537670000000 1.0
C      1  0.5739680000000  0.5556220000000  0.4670050000000 1.0
C      1  0.4507930000000  0.4743930000000  0.4276980000000 1.0
C      1  0.5468150000000  0.4701330000000  0.5827180000000 1.0
C      1  0.4434090000000  0.5369820000000  0.5807770000000 1.0
C      1  0.4646260000000  0.5670870000000  0.5510810000000 1.0
C      1  0.5290800000000  0.5745970000000  0.4438030000000 1.0
C      1  0.4671070000000  0.4192100000000  0.4401840000000 1.0
C      1  0.5553320000000  0.4262180000000  0.5435980000000 1.0
C      1  0.5347850000000  0.5486580000000  0.4228290000000 1.0
C      1  0.4236350000000  0.5303850000000  0.5559680000000 1.0
C      1  0.4426330000000  0.5696430000000  0.5336350000000 1.0
C      1  0.4481430000000  0.4241300000000  0.4631100000000 1.0
C      1  0.5431110000000  0.5685000000000  0.4701610000000 1.0
C      1  0.4680780000000  0.4459920000000  0.4205610000000 1.0
C      1  0.4636760000000  0.5559940000000  0.5767690000000 1.0
C      1  0.5302310000000  0.4451650000000  0.5850720000000 1.0
C      1  0.5716940000000  0.4738910000000  0.5598350000000 1.0
C      1  0.5726540000000  0.5294960000000  0.4518780000000 1.0
C      1  0.4226910000000  0.4679560000000  0.4424490000000 1.0
C      1  0.5581340000000  0.5277610000000  0.5730300000000 1.0
C      1  0.5243500000000  0.5638390000000  0.5487530000000 1.0
C      1  0.5751460000000  0.5477620000000  0.5229960000000 1.0
C      1  0.4641410000000  0.4902540000000  0.5761010000000 1.0
C      1  0.5441520000000  0.4731680000000  0.4201570000000 1.0
C      1  0.4582120000000  0.5315680000000  0.4245210000000 1.0
C      1  0.4699760000000  0.4378920000000  0.5583470000000 1.0
C      1  0.5279650000000  0.4246110000000  0.4468320000000 1.0
C      1  0.4686540000000  0.5775580000000  0.4479610000000 1.0
C      1  0.4299260000000  0.4510700000000  0.5343770000000 1.0
C      1  0.5668480000000  0.4557330000000  0.4609400000000 1.0
C      1  0.4369700000000  0.5438900000000  0.4743960000000 1.0
C      1  0.5356540000000  0.5440260000000  0.5725280000000 1.0
C      1  0.5821440000000  0.5310310000000  0.5517570000000 1.0
C      1  0.5480000000000  0.5657370000000  0.5276420000000 1.0
C      1  0.4748710000000  0.4588950000000  0.5837830000000 1.0
C      1  0.4748730000000  0.5574560000000  0.4239650000000 1.0
C      1  0.5226960000000  0.4516380000000  0.4266460000000 1.0
C      1  0.4184360000000  0.4752860000000  0.5513640000000 1.0
C      1  0.4330900000000  0.5250080000000  0.4463230000000 1.0
C      1  0.5685330000000  0.4730860000000  0.4399460000000 1.0
C      1  0.4536450000000  0.4367490000000  0.5367930000000 1.0
C      1  0.4412330000000  0.5735080000000  0.4582480000000 1.0
C      1  0.5539940000000  0.4318140000000  0.4643150000000 1.0
C      1  0.4740870000000  0.4873440000000  0.4493990000000 1.0
C      1  0.4912660000000  0.4475340000000  0.4708200000000 1.0
C      1  0.4501880000000  0.4642710000000  0.4910630000000 1.0
C      1  0.5228520000000  0.5102550000000  0.4505580000000 1.0
C      1  0.4677080000000  0.4967330000000  0.5462630000000 1.0
C      1  0.5350020000000  0.4896370000000  0.5592350000000 1.0
C      1  0.4981720000000  0.5505710000000  0.4688890000000 1.0
C      1  0.4929680000000  0.5584540000000  0.5367500000000 1.0
C      1  0.5114890000000  0.4495970000000  0.5363790000000 1.0
C      1  0.5435900000000  0.5225600000000  0.4953840000000 1.0
C      1  0.4447590000000  0.5314910000000  0.5053130000000 1.0
C      1  0.5526060000000  0.4674000000000  0.5091110000000 1.0
C      1  0.4924200000000  0.4605340000000  0.4393340000000 1.0
C      1  0.4534840000000  0.4898120000000  0.4724940000000 1.0
C      1  0.4643450000000  0.4397670000000  0.4843390000000 1.0
C      1  0.5111430000000  0.5392280000000  0.4453770000000 1.0
C      1  0.5083510000000  0.4765090000000  0.5479880000000 1.0
C      1  0.5005150000000  0.5280240000000  0.5498570000000 1.0
C      1  0.5485760000000  0.5120360000000  0.4654510000000 1.0
C      1  0.5502970000000  0.4973290000000  0.5353870000000 1.0
C      1  0.4496920000000  0.5025920000000  0.5225470000000 1.0
C      1  0.5283560000000  0.5499650000000  0.4946190000000 1.0
C      1  0.5249550000000  0.4516870000000  0.5075920000000 1.0
C      1  0.4768310000000  0.5409190000000  0.5124510000000 1.0
C      1  0.5079630000000  0.5295970000000  0.5830020000000 1.0
C      1  0.5226030000000  0.5768010000000  0.5109880000000 1.0
C      1  0.5771710000000  0.5083200000000  0.5293150000000 1.0
C      1  0.5019200000000  0.4775050000000  0.5781190000000 1.0
C      1  0.4868640000000  0.4802850000000  0.4121720000000 1.0
C      1  0.5048220000000  0.5231880000000  0.4173050000000 1.0
C      1  0.4675390000000  0.4248340000000  0.5112740000000 1.0
C      1  0.5230360000000  0.4182440000000  0.5005190000000 1.0
C      1  0.4715390000000  0.5917050000000  0.5008240000000 1.0
C      1  0.4195180000000  0.4874300000000  0.5208330000000 1.0
C      1  0.5763720000000  0.4982610000000  0.4764610000000 1.0
C      1  0.4288730000000  0.5050830000000  0.4705740000000 1.0
C      1  0.5216440000000  0.5006040000000  0.5884650000000 1.0
C      1  0.5776160000000  0.5236940000000  0.4989910000000 1.0
C      1  0.4945020000000  0.5890410000000  0.5229630000000 1.0
C      1  0.4841280000000  0.4924430000000  0.6029460000000 1.0
C      1  0.4793080000000  0.5091170000000  0.4245760000000 1.0
C      1  0.5268160000000  0.4991510000000  0.4211480000000 1.0
C      1  0.4210520000000  0.4586770000000  0.5024770000000 1.0
C      1  0.4157410000000  0.5133670000000  0.4991750000000 1.0
C      1  0.5730750000000  0.4689110000000  0.4870720000000 1.0
C      1  0.4980860000000  0.4228630000000  0.5231570000000 1.0
C      1  0.4866260000000  0.5788990000000  0.4735870000000 1.0
C      1  0.5073100000000  0.4214630000000  0.4705450000000 1.0
C      1  0.4974670000000  0.4215640000000  0.4319450000000 1.0
C      1  0.4146040000000  0.4343620000000  0.4820570000000 1.0
C      1  0.4416160000000  0.5040490000000  0.4135000000000 1.0
C      1  0.4997580000000  0.5854580000000  0.4366010000000 1.0
C      1  0.5078500000000  0.5748340000000  0.5760460000000 1.0
C      1  0.4974620000000  0.4300530000000  0.5684020000000 1.0
C      1  0.5884530000000  0.5617640000000  0.4949380000000 1.0
C      1  0.4292340000000  0.5742000000000  0.4877400000000 1.0
C      1  0.5680470000000  0.4305980000000  0.5135850000000 1.0
C      1  0.5643940000000  0.4986170000000  0.4098700000000 1.0
C      1  0.4399860000000  0.5068710000000  0.5834640000000 1.0
C      1  0.5615760000000  0.5004610000000  0.5870430000000 1.0
C      1  0.4184650000000  0.4971180000000  0.4331760000000 1.0
C      1  0.4253410000000  0.4064770000000  0.4816030000000 1.0
C      1  0.4985300000000  0.4399730000000  0.4057520000000 1.0
C      1  0.5817520000000  0.5009990000000  0.4370200000000 1.0
C      1  0.5869150000000  0.5009790000000  0.5670460000000 1.0
C      1  0.4163420000000  0.4992920000000  0.5664750000000 1.0
C      1  0.5602220000000  0.5751140000000  0.4982460000000 1.0
C      1  0.5535240000000  0.4232150000000  0.4911550000000 1.0
C      1  0.4444850000000  0.5832710000000  0.5089920000000 1.0
C      1  0.5052120000000  0.5630530000000  0.4141440000000 1.0
C      1  0.5015940000000  0.4427400000000  0.5973540000000 1.0
C      1  0.4894900000000  0.5562670000000  0.5873050000000 1.0
C      1  0.5350200000000  0.5026280000000  0.6180130000000 1.0
C      1  0.5064100000000  0.6210670000000  0.5272570000000 1.0
C      1  0.6124970000000  0.5267810000000  0.4989950000000 1.0
C      1  0.4958910000000  0.5049930000000  0.6243250000000 1.0
C      1  0.5206860000000  0.5002550000000  0.3889920000000 1.0
C      1  0.4879520000000  0.5082300000000  0.3682250000000 1.0
C      1  0.5041100000000  0.3900450000000  0.5219960000000 1.0
C      1  0.4979520000000  0.3927530000000  0.4828850000000 1.0
C      1  0.5001020000000  0.6080500000000  0.4785300000000 1.0
C      1  0.3928470000000  0.4752850000000  0.4936990000000 1.0
C      1  0.6034140000000  0.4769130000000  0.4962210000000 1.0
C      1  0.3826720000000  0.5136650000000  0.4915250000000 1.0
C      1  0.5143060000000  0.5298230000000  0.6164050000000 1.0
C      1  0.6048250000000  0.4999400000000  0.5159060000000 1.0
C      1  0.5214760000000  0.6073550000000  0.5003910000000 1.0
C      1  0.5175620000000  0.4899230000000  0.6418840000000 1.0
C      1  0.5060420000000  0.5291460000000  0.3844140000000 1.0
C      1  0.4956860000000  0.4821680000000  0.3851720000000 1.0
C      1  0.3841650000000  0.4934760000000  0.5176960000000 1.0
C      1  0.3985180000000  0.4928260000000  0.4698700000000 1.0
C      1  0.6088530000000  0.5041000000000  0.4766950000000 1.0
C      1  0.4765190000000  0.3947790000000  0.5050730000000 1.0
C      1  0.4849130000000  0.6224420000000  0.5033830000000 1.0
C      1  0.5250270000000  0.3835810000000  0.4994650000000 1.0
C      1  0.4960860000000  0.5013370000000  0.5340230000000 1.0
C      1  0.4998370000000  0.5314300000000  0.4944240000000 1.0
C      1  0.5331360000000  0.4953340000000  0.5089370000000 1.0
C      1  0.5007860000000  0.4977130000000  0.4664320000000 1.0
C      1  0.5056690000000  0.4659900000000  0.4901490000000 1.0
C      1  0.4674520000000  0.4896780000000  0.5013180000000 1.0
C      1  0.5003070000000  0.4979570000000  0.5004380000000 1.0
END
