TITL C-3289321-8710-351 0.000599268737277896 125000 -459.428450154822 0 0 84 (C1) n - 1
REM
REM in /nfs/bkarasulu/CARBON/AIRSS/Generating-Clusters/AIREBO/with-SteepDescent/Higher-Symm/SD-CG/HFTN-CG
REM
REM
REM
REM
REM
REM ./C.cell (b20cbc046b6831c77cfcea5457e17084)
REM
REM compiler GCC version 9.2.1 20190827 (Red Hat 9.2.1-1)
REM options -cpp -mtune=generic -march=x86-64 -g -O0 -fpre-include=/usr/include/finclude/math-vector-fortran.h
REM seed 1359996084 1315729653 441589745 1911819182 550989026 -1234922438 1106111450 1385527403 36305461 183157794 -2116796883 1401771563 -73155162 -244116224 404902200 1734708048 1736231792 -2096514969 1171968319 -1924568689 2028890631 -115859884 -1467544977 1958425252 -311738052 85888778 1585794423 141264438 1718784035 -396063121 -1601999539 -285769962 1190043962
REM
CELL 1.54180   50.00000   50.00000   50.00000   90.00000   90.00000   90.00000
LATT -1
SFAC C  
C      1  0.4456660000000  0.5132690000000  0.5317140000000 1.0
C      1  0.5194860000000  0.4323240000000  0.5040760000000 1.0
C      1  0.5120780000000  0.5249910000000  0.4557470000000 1.0
C      1  0.4539260000000  0.5000470000000  0.4690160000000 1.0
C      1  0.5519830000000  0.5015080000000  0.5305510000000 1.0
C      1  0.5637730000000  0.5068940000000  0.4565280000000 1.0
C      1  0.5279750000000  0.5612240000000  0.4924930000000 1.0
C      1  0.4824720000000  0.5564600000000  0.5204000000000 1.0
C      1  0.4712240000000  0.4521950000000  0.4944130000000 1.0
C      1  0.5012020000000  0.4688620000000  0.5419310000000 1.0
C      1  0.5022100000000  0.4770520000000  0.4464970000000 1.0
C      1  0.4846080000000  0.5279140000000  0.5597180000000 1.0
C      1  0.4349930000000  0.5361290000000  0.5091950000000 1.0
C      1  0.5381540000000  0.5125620000000  0.4424550000000 1.0
C      1  0.5025750000000  0.4393810000000  0.5286970000000 1.0
C      1  0.4476130000000  0.4761160000000  0.4916220000000 1.0
C      1  0.5604590000000  0.5150020000000  0.4846200000000 1.0
C      1  0.5563550000000  0.4810010000000  0.5047460000000 1.0
C      1  0.5209740000000  0.4962020000000  0.5376590000000 1.0
C      1  0.4620190000000  0.5083230000000  0.5576140000000 1.0
C      1  0.4734840000000  0.4946500000000  0.4417240000000 1.0
C      1  0.5058530000000  0.5525180000000  0.4710020000000 1.0
C      1  0.5045620000000  0.4441070000000  0.4514450000000 1.0
C      1  0.4871550000000  0.5569480000000  0.5509560000000 1.0
C      1  0.5386640000000  0.5353510000000  0.5646780000000 1.0
C      1  0.5796100000000  0.5521330000000  0.5171130000000 1.0
C      1  0.5204410000000  0.5907040000000  0.5461620000000 1.0
C      1  0.5696290000000  0.4687790000000  0.4265510000000 1.0
C      1  0.4605420000000  0.4683140000000  0.5877990000000 1.0
C      1  0.4603160000000  0.5262710000000  0.4211360000000 1.0
C      1  0.5628930000000  0.4460850000000  0.4831090000000 1.0
C      1  0.4240980000000  0.4614110000000  0.5394640000000 1.0
C      1  0.4222480000000  0.5340990000000  0.4690700000000 1.0
C      1  0.5370790000000  0.4083350000000  0.4431800000000 1.0
C      1  0.4679920000000  0.4097010000000  0.5469140000000 1.0
C      1  0.4680550000000  0.5865750000000  0.4630860000000 1.0
C      1  0.5365540000000  0.5786640000000  0.5272750000000 1.0
C      1  0.5827990000000  0.5398830000000  0.5440930000000 1.0
C      1  0.5265450000000  0.5570800000000  0.5791960000000 1.0
C      1  0.5452710000000  0.4042120000000  0.4694140000000 1.0
C      1  0.4488640000000  0.5734450000000  0.4811760000000 1.0
C      1  0.4428850000000  0.4187040000000  0.5309420000000 1.0
C      1  0.5838490000000  0.4648450000000  0.4723870000000 1.0
C      1  0.4170270000000  0.5171720000000  0.4490280000000 1.0
C      1  0.4205870000000  0.4778550000000  0.5626740000000 1.0
C      1  0.5431190000000  0.4546960000000  0.4261560000000 1.0
C      1  0.4778980000000  0.5525740000000  0.4300460000000 1.0
C      1  0.4758310000000  0.4529860000000  0.5682690000000 1.0
C      1  0.5196100000000  0.4551440000000  0.4789850000000 1.0
C      1  0.5563400000000  0.5297050000000  0.5138970000000 1.0
C      1  0.5303200000000  0.5455460000000  0.5227430000000 1.0
C      1  0.5359600000000  0.4806920000000  0.4444570000000 1.0
C      1  0.4694560000000  0.4774980000000  0.5455760000000 1.0
C      1  0.4906100000000  0.5231420000000  0.4345890000000 1.0
C      1  0.5445610000000  0.4717350000000  0.4747200000000 1.0
C      1  0.4470330000000  0.4702500000000  0.5251200000000 1.0
C      1  0.4538060000000  0.5308760000000  0.4815650000000 1.0
C      1  0.4702250000000  0.4337170000000  0.5197670000000 1.0
C      1  0.4762880000000  0.5550090000000  0.4869500000000 1.0
C      1  0.5143750000000  0.5271630000000  0.5465400000000 1.0
C      1  0.5469850000000  0.4243760000000  0.4891830000000 1.0
C      1  0.5768470000000  0.4823590000000  0.4506460000000 1.0
C      1  0.4260780000000  0.5588580000000  0.4874210000000 1.0
C      1  0.4866860000000  0.4309830000000  0.5559350000000 1.0
C      1  0.4442920000000  0.4879350000000  0.5753770000000 1.0
C      1  0.4199510000000  0.4337180000000  0.5358370000000 1.0
C      1  0.5271740000000  0.4331510000000  0.4342030000000 1.0
C      1  0.4862400000000  0.5690380000000  0.4508370000000 1.0
C      1  0.4419320000000  0.5056060000000  0.4351810000000 1.0
C      1  0.5613800000000  0.5235490000000  0.5530820000000 1.0
C      1  0.5579390000000  0.5692770000000  0.5064000000000 1.0
C      1  0.5076250000000  0.5722080000000  0.5633850000000 1.0
C      1  0.5079680000000  0.4974450000000  0.4730940000000 1.0
C      1  0.4629900000000  0.5019460000000  0.5075080000000 1.0
C      1  0.4867700000000  0.4813930000000  0.4932680000000 1.0
C      1  0.5026000000000  0.5035170000000  0.5118750000000 1.0
C      1  0.5313890000000  0.5024890000000  0.4963090000000 1.0
C      1  0.4817810000000  0.5265480000000  0.5139380000000 1.0
C      1  0.5830850000000  0.4999450000000  0.5054680000000 1.0
C      1  0.4152090000000  0.5244520000000  0.5338860000000 1.0
C      1  0.4873620000000  0.4758710000000  0.4159180000000 1.0
C      1  0.5210350000000  0.4792240000000  0.5675320000000 1.0
C      1  0.5028480000000  0.5775500000000  0.5058760000000 1.0
C      1  0.4934660000000  0.4346960000000  0.4816420000000 1.0
END
