TITL C-3289326-3776-558 -0.000506342265717154 125000 -492.630661963357 0 0 94 (C1) n - 1
REM
REM in /nfs/bkarasulu/CARBON/AIRSS/Generating-Clusters/AIREBO/with-SteepDescent/Higher-Symm/SD-CG/HFTN-CG
REM
REM
REM
REM
REM
REM ./C.cell (b20cbc046b6831c77cfcea5457e17084)
REM
REM compiler GCC version 9.2.1 20190827 (Red Hat 9.2.1-1)
REM options -cpp -mtune=generic -march=x86-64 -g -O0 -fpre-include=/usr/include/finclude/math-vector-fortran.h
REM seed 2064280887 -1796244847 -779616513 1693417148 127351952 -919918267 -276561294 1195888882 1676260209 -1846198655 -1719429455 755195770 1887548747 -965528718 -1114228812 2095809279 2145779505 -192637406 -886815504 284805082 1058323868 1010634940 2000413324 18620090 1311036854 868705904 88741630 -655809215 -503809812 1267959056 764172835 -1993228691 -875011780
REM
CELL 1.54180   50.00000   50.00000   50.00000   90.00000   90.00000   90.00000
LATT -1
SFAC C  
C      1  0.4969250000000  0.5867420000000  0.4771940000000 1.0
C      1  0.5082980000000  0.4133770000000  0.5218720000000 1.0
C      1  0.5172990000000  0.5922750000000  0.5247400000000 1.0
C      1  0.4822770000000  0.4016980000000  0.4826490000000 1.0
C      1  0.4945530000000  0.5337090000000  0.5718030000000 1.0
C      1  0.5051950000000  0.4640270000000  0.4276370000000 1.0
C      1  0.4440850000000  0.4940260000000  0.5390200000000 1.0
C      1  0.5544500000000  0.5126750000000  0.4528220000000 1.0
C      1  0.5455370000000  0.5628920000000  0.5692970000000 1.0
C      1  0.4579010000000  0.4344740000000  0.4398180000000 1.0
C      1  0.4967800000000  0.5367430000000  0.5011170000000 1.0
C      1  0.4922630000000  0.4794470000000  0.4920740000000 1.0
C      1  0.4171550000000  0.5200560000000  0.4971790000000 1.0
C      1  0.5905450000000  0.4978350000000  0.4938200000000 1.0
C      1  0.5224270000000  0.5840340000000  0.4939370000000 1.0
C      1  0.4819690000000  0.4047460000000  0.5112670000000 1.0
C      1  0.4910620000000  0.4334540000000  0.4323500000000 1.0
C      1  0.5149190000000  0.5598160000000  0.5640750000000 1.0
C      1  0.5432420000000  0.5004310000000  0.5097120000000 1.0
C      1  0.4632580000000  0.4950930000000  0.4882030000000 1.0
C      1  0.4334400000000  0.5453680000000  0.5457130000000 1.0
C      1  0.5624780000000  0.4596430000000  0.4595430000000 1.0
C      1  0.4365270000000  0.5515440000000  0.5120640000000 1.0
C      1  0.5572460000000  0.4547560000000  0.4939160000000 1.0
C      1  0.4766310000000  0.5698440000000  0.4879700000000 1.0
C      1  0.5123820000000  0.4405010000000  0.5107190000000 1.0
C      1  0.5406820000000  0.4816890000000  0.4842660000000 1.0
C      1  0.4501220000000  0.5213000000000  0.5196040000000 1.0
C      1  0.4812760000000  0.4850040000000  0.4407350000000 1.0
C      1  0.5174130000000  0.5117260000000  0.5573680000000 1.0
C      1  0.4499260000000  0.4770980000000  0.5133410000000 1.0
C      1  0.5436730000000  0.5212060000000  0.4835310000000 1.0
C      1  0.4484830000000  0.4824450000000  0.4428730000000 1.0
C      1  0.5497380000000  0.5144280000000  0.5615230000000 1.0
C      1  0.5364820000000  0.5342050000000  0.4353510000000 1.0
C      1  0.4674220000000  0.4716930000000  0.5497680000000 1.0
C      1  0.5223560000000  0.4903680000000  0.5312620000000 1.0
C      1  0.4818850000000  0.5078550000000  0.4662540000000 1.0
C      1  0.5702270000000  0.4909780000000  0.4702250000000 1.0
C      1  0.4171990000000  0.5212180000000  0.5281240000000 1.0
C      1  0.4784480000000  0.5664290000000  0.5320080000000 1.0
C      1  0.5148730000000  0.4385960000000  0.4677980000000 1.0
C      1  0.4552430000000  0.5752110000000  0.5212820000000 1.0
C      1  0.5394480000000  0.4281150000000  0.4840030000000 1.0
C      1  0.5753040000000  0.5283240000000  0.4937770000000 1.0
C      1  0.4294600000000  0.4499600000000  0.5161090000000 1.0
C      1  0.4633660000000  0.5282230000000  0.4252090000000 1.0
C      1  0.5287530000000  0.4657120000000  0.5783770000000 1.0
C      1  0.4958120000000  0.4749260000000  0.5220590000000 1.0
C      1  0.5113360000000  0.5236580000000  0.4733120000000 1.0
C      1  0.4628390000000  0.5354120000000  0.5596020000000 1.0
C      1  0.5357520000000  0.4667600000000  0.4408230000000 1.0
C      1  0.5419240000000  0.4960350000000  0.4260840000000 1.0
C      1  0.4559250000000  0.5055910000000  0.5670870000000 1.0
C      1  0.4748750000000  0.5394610000000  0.4766520000000 1.0
C      1  0.5349940000000  0.4613170000000  0.5188000000000 1.0
C      1  0.4907580000000  0.4165680000000  0.4618740000000 1.0
C      1  0.5020370000000  0.5773610000000  0.5414720000000 1.0
C      1  0.5296100000000  0.4393420000000  0.5613620000000 1.0
C      1  0.4692570000000  0.5627230000000  0.4446420000000 1.0
C      1  0.5231090000000  0.5554770000000  0.5103070000000 1.0
C      1  0.4884650000000  0.4471040000000  0.4874580000000 1.0
C      1  0.5143230000000  0.4725880000000  0.4667420000000 1.0
C      1  0.4803050000000  0.5325030000000  0.5305600000000 1.0
C      1  0.5194220000000  0.5513170000000  0.4552650000000 1.0
C      1  0.4839210000000  0.4471870000000  0.5379880000000 1.0
C      1  0.4656940000000  0.4223610000000  0.5285210000000 1.0
C      1  0.5396030000000  0.5655930000000  0.4746700000000 1.0
C      1  0.5727860000000  0.5010520000000  0.5226350000000 1.0
C      1  0.4293990000000  0.4956490000000  0.4846010000000 1.0
C      1  0.5645350000000  0.5548760000000  0.4783350000000 1.0
C      1  0.4382380000000  0.4279530000000  0.5283640000000 1.0
C      1  0.5473410000000  0.4657330000000  0.5501580000000 1.0
C      1  0.4493440000000  0.5371150000000  0.4548990000000 1.0
C      1  0.4281150000000  0.5450970000000  0.4804980000000 1.0
C      1  0.5855800000000  0.4681580000000  0.5038190000000 1.0
C      1  0.5147290000000  0.5154310000000  0.4176510000000 1.0
C      1  0.4846750000000  0.4909610000000  0.5718390000000 1.0
C      1  0.4374190000000  0.5052780000000  0.4555720000000 1.0
C      1  0.5639130000000  0.4909400000000  0.5504290000000 1.0
C      1  0.4838820000000  0.5000440000000  0.5390850000000 1.0
C      1  0.5168170000000  0.5011360000000  0.4484370000000 1.0
C      1  0.5131490000000  0.4882330000000  0.5815760000000 1.0
C      1  0.4841840000000  0.5101430000000  0.4208780000000 1.0
C      1  0.4948710000000  0.5698740000000  0.4524320000000 1.0
C      1  0.5082450000000  0.4286070000000  0.5486450000000 1.0
C      1  0.5593760000000  0.5414160000000  0.5515220000000 1.0
C      1  0.4404930000000  0.4563560000000  0.4574970000000 1.0
C      1  0.4556830000000  0.4561540000000  0.4871840000000 1.0
C      1  0.5501120000000  0.5456530000000  0.5190540000000 1.0
C      1  0.5132780000000  0.5389670000000  0.5374260000000 1.0
C      1  0.4801850000000  0.4546510000000  0.4560250000000 1.0
C      1  0.4222840000000  0.4624200000000  0.4859800000000 1.0
C      1  0.5807810000000  0.5338280000000  0.5268790000000 1.0
END
