TITL C-3289321-8710-294 6.06116190976017 125000 -290.287815593926 0 0 56 (C1) n - 1
REM
REM in /nfs/bkarasulu/CARBON/AIRSS/Generating-Clusters/AIREBO/with-SteepDescent/Higher-Symm/SD-CG/HFTN-CG
REM
REM
REM
REM
REM
REM ./C.cell (b20cbc046b6831c77cfcea5457e17084)
REM
REM compiler GCC version 9.2.1 20190827 (Red Hat 9.2.1-1)
REM options -cpp -mtune=generic -march=x86-64 -g -O0 -fpre-include=/usr/include/finclude/math-vector-fortran.h
REM seed -71849333 -504543063 465937632 -94972014 -41478755 1218431668 -1658265347 808370216 1974399666 694960366 -412325752 -1410614507 1664211882 1034245403 -766000517 687507218 971479157 1188195191 1053684062 704615380 -1036918240 2071670732 1733911188 1700566255 -1446254404 2117845785 -102484585 2005311265 -114308888 -1106757233 1072385345 -682805742 -312149552
REM
CELL 1.54180   50.00000   50.00000   50.00000   90.00000   90.00000   90.00000
LATT -1
SFAC C  
C      1  0.5022040000000  0.5429890000000  0.5360490000000 1.0
C      1  0.5247600000000  0.5234560000000  0.4730060000000 1.0
C      1  0.4737460000000  0.5076850000000  0.4366160000000 1.0
C      1  0.4998030000000  0.5718020000000  0.4950570000000 1.0
C      1  0.4529340000000  0.4766740000000  0.4695060000000 1.0
C      1  0.4981600000000  0.5032080000000  0.4185260000000 1.0
C      1  0.5169410000000  0.4371790000000  0.5481920000000 1.0
C      1  0.5011680000000  0.4787050000000  0.4686280000000 1.0
C      1  0.5242530000000  0.4969550000000  0.4281440000000 1.0
C      1  0.5303680000000  0.5515140000000  0.5267970000000 1.0
C      1  0.5269400000000  0.5659190000000  0.4995170000000 1.0
C      1  0.4991830000000  0.4647200000000  0.5736770000000 1.0
C      1  0.4762450000000  0.5407000000000  0.5188010000000 1.0
C      1  0.5087600000000  0.4859970000000  0.5201330000000 1.0
C      1  0.4432430000000  0.4645720000000  0.5437320000000 1.0
C      1  0.4579290000000  0.5406530000000  0.4690880000000 1.0
C      1  0.4379150000000  0.4915240000000  0.5402040000000 1.0
C      1  0.4310750000000  0.5036610000000  0.5117240000000 1.0
C      1  0.4594320000000  0.5138060000000  0.5275740000000 1.0
C      1  0.5171620000000  0.4688450000000  0.5482760000000 1.0
C      1  0.4298100000000  0.5405430000000  0.4972680000000 1.0
C      1  0.4950120000000  0.4514700000000  0.4880350000000 1.0
C      1  0.5626720000000  0.5348990000000  0.4891110000000 1.0
C      1  0.5070660000000  0.4212260000000  0.4782170000000 1.0
C      1  0.5645750000000  0.4359980000000  0.4940960000000 1.0
C      1  0.4673010000000  0.4535600000000  0.4656590000000 1.0
C      1  0.5430380000000  0.4402770000000  0.5095290000000 1.0
C      1  0.5606230000000  0.5388970000000  0.5177510000000 1.0
C      1  0.4863040000000  0.4440600000000  0.5535830000000 1.0
C      1  0.4898520000000  0.5077360000000  0.4829630000000 1.0
C      1  0.4681460000000  0.4550270000000  0.5353260000000 1.0
C      1  0.4908400000000  0.5089060000000  0.5379750000000 1.0
C      1  0.5542320000000  0.4960440000000  0.4312900000000 1.0
C      1  0.4857720000000  0.5420630000000  0.4863980000000 1.0
C      1  0.5232480000000  0.4593590000000  0.5047330000000 1.0
C      1  0.5392070000000  0.5504470000000  0.4790250000000 1.0
C      1  0.5593530000000  0.5060840000000  0.4822570000000 1.0
C      1  0.5646690000000  0.4954090000000  0.4570560000000 1.0
C      1  0.5438640000000  0.5140910000000  0.5277100000000 1.0
C      1  0.5430270000000  0.5332740000000  0.5528210000000 1.0
C      1  0.5301550000000  0.5029840000000  0.4997330000000 1.0
C      1  0.4912880000000  0.4879110000000  0.5865950000000 1.0
C      1  0.4850090000000  0.5942260000000  0.4993120000000 1.0
C      1  0.5247110000000  0.4944040000000  0.4580770000000 1.0
C      1  0.4460700000000  0.5524000000000  0.5128800000000 1.0
C      1  0.5367250000000  0.4252630000000  0.5326760000000 1.0
C      1  0.4797390000000  0.4698810000000  0.5117710000000 1.0
C      1  0.4501640000000  0.5000960000000  0.4502050000000 1.0
C      1  0.4651240000000  0.4926180000000  0.4943120000000 1.0
C      1  0.4416420000000  0.5132040000000  0.4808360000000 1.0
C      1  0.4967920000000  0.5221620000000  0.4536800000000 1.0
C      1  0.4921540000000  0.5108740000000  0.5716470000000 1.0
C      1  0.5027520000000  0.5539280000000  0.4594200000000 1.0
C      1  0.4926340000000  0.4529120000000  0.4481820000000 1.0
C      1  0.4971810000000  0.5384760000000  0.5662230000000 1.0
C      1  0.5070290000000  0.4287290000000  0.4503990000000 1.0
END
