TITL C-3289334-2237-322 -0.000474941201793457 125000 -640.943508543698 0 0 115 (C1) n - 1
REM
REM in /nfs/bkarasulu/CARBON/AIRSS/Generating-Clusters/AIREBO/with-SteepDescent/Higher-Symm/SD-CG/HFTN-CG
REM
REM
REM
REM
REM
REM ./C.cell (b20cbc046b6831c77cfcea5457e17084)
REM
REM compiler GCC version 9.2.1 20190827 (Red Hat 9.2.1-1)
REM options -cpp -mtune=generic -march=x86-64 -g -O0 -fpre-include=/usr/include/finclude/math-vector-fortran.h
REM seed -14297854 1890939961 659487910 507120495 100684633 -1483521238 1477996571 -1832932270 -102254363 1285619169 1073443373 147065101 -1155607095 510649579 -1101983638 1915942118 -591090542 -617103907 1583551506 -1503570527 -158703909 1964835197 659089335 1930106034 -838523682 -852555134 -659549056 1745389097 1489387329 1405180805 464051825 -1006836865 -10962046
REM
CELL 1.54180   50.00000   50.00000   50.00000   90.00000   90.00000   90.00000
LATT -1
SFAC C  
C      1  0.5206610000000  0.5466440000000  0.4777530000000 1.0
C      1  0.5256260000000  0.4935280000000  0.5397620000000 1.0
C      1  0.5232060000000  0.4622300000000  0.4690840000000 1.0
C      1  0.5676130000000  0.4426420000000  0.4908350000000 1.0
C      1  0.5655030000000  0.5403530000000  0.4576380000000 1.0
C      1  0.5708450000000  0.5227050000000  0.5568000000000 1.0
C      1  0.4671740000000  0.4894420000000  0.4140580000000 1.0
C      1  0.4705550000000  0.5765210000000  0.5326440000000 1.0
C      1  0.4710200000000  0.4342170000000  0.5532800000000 1.0
C      1  0.4358610000000  0.5100000000000  0.4797700000000 1.0
C      1  0.4365290000000  0.5101000000000  0.5138600000000 1.0
C      1  0.4317840000000  0.4816870000000  0.4970120000000 1.0
C      1  0.4768790000000  0.5809150000000  0.4811410000000 1.0
C      1  0.4815770000000  0.4792760000000  0.5722690000000 1.0
C      1  0.4791580000000  0.4469420000000  0.4397890000000 1.0
C      1  0.5402500000000  0.5723980000000  0.4732700000000 1.0
C      1  0.5470510000000  0.4820070000000  0.5845010000000 1.0
C      1  0.5383130000000  0.4425940000000  0.4474380000000 1.0
C      1  0.4517010000000  0.5223890000000  0.5676090000000 1.0
C      1  0.4492050000000  0.4218660000000  0.4891000000000 1.0
C      1  0.4479070000000  0.5509030000000  0.4391470000000 1.0
C      1  0.5674310000000  0.5254530000000  0.5230760000000 1.0
C      1  0.5599440000000  0.4739200000000  0.5151320000000 1.0
C      1  0.5600590000000  0.5038460000000  0.4726200000000 1.0
C      1  0.5149440000000  0.4478110000000  0.5651210000000 1.0
C      1  0.5141300000000  0.4718200000000  0.4180460000000 1.0
C      1  0.5059020000000  0.6028970000000  0.5104010000000 1.0
C      1  0.5531900000000  0.5531470000000  0.5345170000000 1.0
C      1  0.5519090000000  0.4486020000000  0.5328880000000 1.0
C      1  0.5544010000000  0.4975500000000  0.4404290000000 1.0
C      1  0.4758070000000  0.4749890000000  0.5207450000000 1.0
C      1  0.4785410000000  0.4947900000000  0.4654230000000 1.0
C      1  0.4782450000000  0.5290190000000  0.5080770000000 1.0
C      1  0.5661550000000  0.4758530000000  0.4836700000000 1.0
C      1  0.5715880000000  0.5305370000000  0.4896620000000 1.0
C      1  0.5705860000000  0.4943030000000  0.5363620000000 1.0
C      1  0.5365860000000  0.5156590000000  0.5224130000000 1.0
C      1  0.5329290000000  0.4601510000000  0.4997390000000 1.0
C      1  0.5323370000000  0.5194680000000  0.4652890000000 1.0
C      1  0.4614220000000  0.4825660000000  0.4435920000000 1.0
C      1  0.4641090000000  0.5558170000000  0.5097130000000 1.0
C      1  0.4557680000000  0.4568750000000  0.5362270000000 1.0
C      1  0.5676270000000  0.4490430000000  0.5565200000000 1.0
C      1  0.5699800000000  0.4747350000000  0.4325230000000 1.0
C      1  0.5617010000000  0.5751900000000  0.5159750000000 1.0
C      1  0.5344320000000  0.4528830000000  0.4185930000000 1.0
C      1  0.5295070000000  0.5935950000000  0.4918540000000 1.0
C      1  0.5366800000000  0.4523300000000  0.5816110000000 1.0
C      1  0.4397850000000  0.5605180000000  0.4895820000000 1.0
C      1  0.4336840000000  0.4741620000000  0.5554650000000 1.0
C      1  0.4423160000000  0.4583070000000  0.4537690000000 1.0
C      1  0.5348140000000  0.5501200000000  0.5843860000000 1.0
C      1  0.5282560000000  0.4058900000000  0.5004320000000 1.0
C      1  0.5280180000000  0.5472970000000  0.4194980000000 1.0
C      1  0.5116290000000  0.5306760000000  0.5582850000000 1.0
C      1  0.5031360000000  0.4354890000000  0.5097350000000 1.0
C      1  0.5034610000000  0.5206890000000  0.4361570000000 1.0
C      1  0.4959820000000  0.4026170000000  0.5068260000000 1.0
C      1  0.4946730000000  0.5464860000000  0.4160610000000 1.0
C      1  0.5017770000000  0.5558070000000  0.5789620000000 1.0
C      1  0.4165490000000  0.5520330000000  0.5081150000000 1.0
C      1  0.4101540000000  0.4667750000000  0.5366760000000 1.0
C      1  0.4215280000000  0.4815180000000  0.4450390000000 1.0
C      1  0.5430740000000  0.4281120000000  0.5000620000000 1.0
C      1  0.5430070000000  0.5357700000000  0.4387090000000 1.0
C      1  0.5485280000000  0.5286770000000  0.5735550000000 1.0
C      1  0.4371400000000  0.5424050000000  0.5498610000000 1.0
C      1  0.4394230000000  0.4341550000000  0.5147130000000 1.0
C      1  0.4356780000000  0.5247040000000  0.4315700000000 1.0
C      1  0.5593270000000  0.4321010000000  0.5800430000000 1.0
C      1  0.5605090000000  0.4612700000000  0.4085180000000 1.0
C      1  0.5294100000000  0.5829860000000  0.5232320000000 1.0
C      1  0.4891040000000  0.4182220000000  0.5354440000000 1.0
C      1  0.4830740000000  0.5159750000000  0.4103510000000 1.0
C      1  0.4944810000000  0.5691400000000  0.5493890000000 1.0
C      1  0.4711930000000  0.4560180000000  0.4715780000000 1.0
C      1  0.4659010000000  0.5506620000000  0.4701460000000 1.0
C      1  0.4612650000000  0.4923340000000  0.5542450000000 1.0
C      1  0.5228340000000  0.4960310000000  0.4343590000000 1.0
C      1  0.5187800000000  0.5521270000000  0.5327840000000 1.0
C      1  0.5213890000000  0.4469390000000  0.5358040000000 1.0
C      1  0.4656460000000  0.5056740000000  0.5250180000000 1.0
C      1  0.4636380000000  0.4792790000000  0.4918020000000 1.0
C      1  0.4659030000000  0.5195570000000  0.4800070000000 1.0
C      1  0.4872810000000  0.4222240000000  0.4587350000000 1.0
C      1  0.4875280000000  0.5788270000000  0.4520460000000 1.0
C      1  0.4969560000000  0.5003990000000  0.5829420000000 1.0
C      1  0.4752700000000  0.4132740000000  0.4846900000000 1.0
C      1  0.4745160000000  0.5642350000000  0.4291940000000 1.0
C      1  0.4821720000000  0.5282560000000  0.5751000000000 1.0
C      1  0.4205260000000  0.4591640000000  0.5120030000000 1.0
C      1  0.4264480000000  0.5076600000000  0.4516910000000 1.0
C      1  0.4243720000000  0.5335120000000  0.5267550000000 1.0
C      1  0.5647850000000  0.5633640000000  0.4898500000000 1.0
C      1  0.5703710000000  0.4769430000000  0.5634010000000 1.0
C      1  0.5662190000000  0.4565190000000  0.4568240000000 1.0
C      1  0.5326410000000  0.4151870000000  0.4490670000000 1.0
C      1  0.5470280000000  0.5853360000000  0.4488920000000 1.0
C      1  0.5544410000000  0.4889780000000  0.6106630000000 1.0
C      1  0.4360750000000  0.4298440000000  0.4663160000000 1.0
C      1  0.4323030000000  0.5695430000000  0.4596970000000 1.0
C      1  0.4319650000000  0.4976320000000  0.5800050000000 1.0
C      1  0.5104860000000  0.4934190000000  0.4659320000000 1.0
C      1  0.5112010000000  0.5318120000000  0.5065770000000 1.0
C      1  0.5087390000000  0.4738680000000  0.5193290000000 1.0
C      1  0.4997470000000  0.4462190000000  0.4822830000000 1.0
C      1  0.4972840000000  0.5466050000000  0.4568300000000 1.0
C      1  0.5273950000000  0.5028770000000  0.5707410000000 1.0
C      1  0.4810250000000  0.5916840000000  0.5059400000000 1.0
C      1  0.4883220000000  0.4527840000000  0.5700150000000 1.0
C      1  0.4871240000000  0.4644820000000  0.4191810000000 1.0
C      1  0.4450730000000  0.5686080000000  0.5497410000000 1.0
C      1  0.4410030000000  0.4214020000000  0.5458330000000 1.0
C      1  0.4437790000000  0.5115930000000  0.4084360000000 1.0
C      1  0.5108310000000  0.4991240000000  0.4971980000000 1.0
END
