TITL C-3289325-7307-221 -0.000854295130156632 125000 -963.959275358487 0 0 173 (C1) n - 1
REM
REM in /nfs/bkarasulu/CARBON/AIRSS/Generating-Clusters/AIREBO/with-SteepDescent/Higher-Symm/SD-CG/HFTN-CG
REM
REM
REM
REM
REM
REM ./C.cell (b20cbc046b6831c77cfcea5457e17084)
REM
REM compiler GCC version 9.2.1 20190827 (Red Hat 9.2.1-1)
REM options -cpp -mtune=generic -march=x86-64 -g -O0 -fpre-include=/usr/include/finclude/math-vector-fortran.h
REM seed -529478156 109480773 1466838406 -709055965 1761909030 -1977600179 -783267053 1116362788 1351433556 1746299015 1664009581 1948300610 678408864 1707813398 -848478062 -920317016 -538421855 -480475576 729540129 1714215993 -1362798028 590945156 -1083055041 -658521236 -677980230 -623239982 -81096529 -1319663446 -80041623 -157479521 648033845 1373076952 -334367759
REM
CELL 1.54180   50.00000   50.00000   50.00000   90.00000   90.00000   90.00000
LATT -1
SFAC C  
C      1  0.4856170000000  0.5041830000000  0.6009840000000 1.0
C      1  0.4798550000000  0.4124790000000  0.5356060000000 1.0
C      1  0.4799800000000  0.4005620000000  0.4597110000000 1.0
C      1  0.4736990000000  0.4614970000000  0.4180020000000 1.0
C      1  0.4672770000000  0.5562390000000  0.4138720000000 1.0
C      1  0.4703700000000  0.5995490000000  0.4905150000000 1.0
C      1  0.4741550000000  0.5677970000000  0.5681560000000 1.0
C      1  0.5307100000000  0.4257530000000  0.5664750000000 1.0
C      1  0.5274090000000  0.3970280000000  0.4682580000000 1.0
C      1  0.5339640000000  0.4536550000000  0.4099440000000 1.0
C      1  0.5286240000000  0.5317890000000  0.4266230000000 1.0
C      1  0.5437910000000  0.5940080000000  0.4922220000000 1.0
C      1  0.5396480000000  0.5710930000000  0.5726160000000 1.0
C      1  0.5399080000000  0.5015440000000  0.5891150000000 1.0
C      1  0.3895420000000  0.4699810000000  0.4959530000000 1.0
C      1  0.4028780000000  0.4864960000000  0.4749510000000 1.0
C      1  0.4083170000000  0.5134310000000  0.4724890000000 1.0
C      1  0.4007290000000  0.5333590000000  0.4905380000000 1.0
C      1  0.3840560000000  0.5267820000000  0.5121430000000 1.0
C      1  0.3921690000000  0.5047500000000  0.5278570000000 1.0
C      1  0.3806710000000  0.4802670000000  0.5201520000000 1.0
C      1  0.4264910000000  0.4691030000000  0.4621970000000 1.0
C      1  0.4309810000000  0.5189760000000  0.4556900000000 1.0
C      1  0.4239260000000  0.5507280000000  0.4981080000000 1.0
C      1  0.4347540000000  0.5356970000000  0.5266190000000 1.0
C      1  0.4237660000000  0.5037400000000  0.5325990000000 1.0
C      1  0.4230730000000  0.4715050000000  0.5203180000000 1.0
C      1  0.4183950000000  0.4539120000000  0.4915590000000 1.0
C      1  0.4430790000000  0.4488610000000  0.4198330000000 1.0
C      1  0.4398350000000  0.5409160000000  0.4076430000000 1.0
C      1  0.4432070000000  0.5925350000000  0.4785470000000 1.0
C      1  0.4470990000000  0.5738630000000  0.5573810000000 1.0
C      1  0.4584250000000  0.5071890000000  0.6073010000000 1.0
C      1  0.4530120000000  0.4182260000000  0.5481620000000 1.0
C      1  0.4489010000000  0.4012180000000  0.4694150000000 1.0
C      1  0.4666140000000  0.5147500000000  0.5246770000000 1.0
C      1  0.4532540000000  0.4750640000000  0.5232130000000 1.0
C      1  0.4708250000000  0.4544060000000  0.5065630000000 1.0
C      1  0.4529640000000  0.4721050000000  0.4833380000000 1.0
C      1  0.4571290000000  0.4979910000000  0.4616370000000 1.0
C      1  0.4507870000000  0.5366930000000  0.4860380000000 1.0
C      1  0.4650270000000  0.5436800000000  0.5130750000000 1.0
C      1  0.5030920000000  0.5278040000000  0.6037260000000 1.0
C      1  0.4935020000000  0.4443020000000  0.5857610000000 1.0
C      1  0.4938200000000  0.4026080000000  0.4887820000000 1.0
C      1  0.4931210000000  0.4338100000000  0.4138110000000 1.0
C      1  0.4898800000000  0.5323700000000  0.4109430000000 1.0
C      1  0.4951940000000  0.5906190000000  0.4708990000000 1.0
C      1  0.5038380000000  0.5810680000000  0.5581440000000 1.0
C      1  0.5576400000000  0.5153620000000  0.4674440000000 1.0
C      1  0.5442510000000  0.5354000000000  0.4915780000000 1.0
C      1  0.5451700000000  0.5394200000000  0.5253270000000 1.0
C      1  0.5454230000000  0.4813190000000  0.5305280000000 1.0
C      1  0.5466070000000  0.4577750000000  0.5060220000000 1.0
C      1  0.5446040000000  0.4669850000000  0.4733350000000 1.0
C      1  0.5416460000000  0.4914810000000  0.4499350000000 1.0
C      1  0.5493930000000  0.4144510000000  0.4816760000000 1.0
C      1  0.5589630000000  0.4623610000000  0.4287200000000 1.0
C      1  0.5629130000000  0.5324210000000  0.4318030000000 1.0
C      1  0.5748360000000  0.5819380000000  0.4842580000000 1.0
C      1  0.5610700000000  0.5680700000000  0.5482020000000 1.0
C      1  0.5649160000000  0.5121020000000  0.5709930000000 1.0
C      1  0.5574360000000  0.4366140000000  0.5576610000000 1.0
C      1  0.5427870000000  0.5302560000000  0.5579850000000 1.0
C      1  0.5372960000000  0.4640060000000  0.5573510000000 1.0
C      1  0.5382180000000  0.4273980000000  0.5061670000000 1.0
C      1  0.5372890000000  0.4453730000000  0.4487310000000 1.0
C      1  0.5476950000000  0.5041170000000  0.4214630000000 1.0
C      1  0.5323200000000  0.5808270000000  0.4456550000000 1.0
C      1  0.5315820000000  0.5701110000000  0.5293340000000 1.0
C      1  0.5408270000000  0.4673210000000  0.5910140000000 1.0
C      1  0.5434650000000  0.4020870000000  0.5259930000000 1.0
C      1  0.5464960000000  0.4140350000000  0.4419200000000 1.0
C      1  0.5347870000000  0.4855220000000  0.3973390000000 1.0
C      1  0.5582570000000  0.5797560000000  0.4355550000000 1.0
C      1  0.5529580000000  0.6029030000000  0.5238150000000 1.0
C      1  0.5495860000000  0.5485020000000  0.5960510000000 1.0
C      1  0.5963700000000  0.4753180000000  0.4813290000000 1.0
C      1  0.5968300000000  0.5079370000000  0.4701760000000 1.0
C      1  0.5982820000000  0.5371480000000  0.4845990000000 1.0
C      1  0.5972380000000  0.5362260000000  0.5134360000000 1.0
C      1  0.6020470000000  0.5168050000000  0.5349430000000 1.0
C      1  0.5965040000000  0.4880880000000  0.5317580000000 1.0
C      1  0.5974580000000  0.4670290000000  0.5120280000000 1.0
C      1  0.5772160000000  0.4468620000000  0.5160350000000 1.0
C      1  0.5759050000000  0.4539950000000  0.4705850000000 1.0
C      1  0.5805740000000  0.5071380000000  0.4437050000000 1.0
C      1  0.5860570000000  0.5601860000000  0.4695120000000 1.0
C      1  0.5759940000000  0.5537220000000  0.5241750000000 1.0
C      1  0.5920150000000  0.5264480000000  0.5615220000000 1.0
C      1  0.5736390000000  0.4815430000000  0.5469740000000 1.0
C      1  0.5253610000000  0.4236210000000  0.4173940000000 1.0
C      1  0.5122140000000  0.5106940000000  0.4055000000000 1.0
C      1  0.5232520000000  0.5955750000000  0.4674140000000 1.0
C      1  0.5332830000000  0.5964120000000  0.5508160000000 1.0
C      1  0.5316600000000  0.5266660000000  0.6027060000000 1.0
C      1  0.5203550000000  0.4422300000000  0.5861850000000 1.0
C      1  0.5223280000000  0.3911710000000  0.5016650000000 1.0
C      1  0.4429290000000  0.5814800000000  0.4530600000000 1.0
C      1  0.4462310000000  0.5931610000000  0.5372100000000 1.0
C      1  0.4162250000000  0.5319030000000  0.5933960000000 1.0
C      1  0.4321110000000  0.4558230000000  0.5850230000000 1.0
C      1  0.4461930000000  0.4003540000000  0.5005400000000 1.0
C      1  0.4321580000000  0.4183350000000  0.4257440000000 1.0
C      1  0.4297860000000  0.5091230000000  0.4118530000000 1.0
C      1  0.4955360000000  0.5097650000000  0.5521620000000 1.0
C      1  0.4794560000000  0.4615510000000  0.5600400000000 1.0
C      1  0.5002930000000  0.4346490000000  0.4883780000000 1.0
C      1  0.4813560000000  0.4400640000000  0.4514960000000 1.0
C      1  0.4889710000000  0.5130740000000  0.4386110000000 1.0
C      1  0.4893680000000  0.5576850000000  0.4651290000000 1.0
C      1  0.4886750000000  0.5701650000000  0.5311240000000 1.0
C      1  0.5186080000000  0.4903740000000  0.5674520000000 1.0
C      1  0.5205400000000  0.4274480000000  0.5352200000000 1.0
C      1  0.5114640000000  0.4251530000000  0.4577010000000 1.0
C      1  0.5115050000000  0.4734370000000  0.4189710000000 1.0
C      1  0.5134180000000  0.5558960000000  0.4408290000000 1.0
C      1  0.5153040000000  0.5832630000000  0.5046030000000 1.0
C      1  0.5192210000000  0.5464480000000  0.5703420000000 1.0
C      1  0.4289390000000  0.4136340000000  0.5167770000000 1.0
C      1  0.4237220000000  0.4119960000000  0.4525570000000 1.0
C      1  0.4163400000000  0.4870820000000  0.4155970000000 1.0
C      1  0.4203060000000  0.5665470000000  0.4448180000000 1.0
C      1  0.4226480000000  0.5948620000000  0.5215940000000 1.0
C      1  0.4099180000000  0.5473100000000  0.5715180000000 1.0
C      1  0.4218890000000  0.4785700000000  0.5819180000000 1.0
C      1  0.4375080000000  0.5141740000000  0.5904900000000 1.0
C      1  0.4501080000000  0.4463820000000  0.5629480000000 1.0
C      1  0.4723090000000  0.3978300000000  0.5093550000000 1.0
C      1  0.4643240000000  0.4242460000000  0.4278860000000 1.0
C      1  0.4615710000000  0.5170380000000  0.4186820000000 1.0
C      1  0.4664950000000  0.5703110000000  0.4433650000000 1.0
C      1  0.4686200000000  0.5910030000000  0.5213220000000 1.0
C      1  0.5668440000000  0.4257260000000  0.5338560000000 1.0
C      1  0.5693160000000  0.4268480000000  0.4637000000000 1.0
C      1  0.5792870000000  0.4804990000000  0.4275610000000 1.0
C      1  0.5740070000000  0.5577340000000  0.4433820000000 1.0
C      1  0.5751610000000  0.5831880000000  0.5140000000000 1.0
C      1  0.5736730000000  0.5506870000000  0.5730280000000 1.0
C      1  0.5692690000000  0.4787850000000  0.5762370000000 1.0
C      1  0.5107230000000  0.4718960000000  0.4781920000000 1.0
C      1  0.5081390000000  0.4862410000000  0.4474740000000 1.0
C      1  0.5008930000000  0.5172610000000  0.4806820000000 1.0
C      1  0.5128700000000  0.5366660000000  0.5020820000000 1.0
C      1  0.5166220000000  0.5211370000000  0.5292410000000 1.0
C      1  0.5134010000000  0.4896470000000  0.5226910000000 1.0
C      1  0.5125760000000  0.4583370000000  0.5094510000000 1.0
C      1  0.4671900000000  0.4912610000000  0.5489030000000 1.0
C      1  0.4911920000000  0.4443240000000  0.5318980000000 1.0
C      1  0.4672990000000  0.4349970000000  0.4801600000000 1.0
C      1  0.4768780000000  0.4730440000000  0.4496500000000 1.0
C      1  0.4735740000000  0.5275520000000  0.4652450000000 1.0
C      1  0.4918100000000  0.5592930000000  0.4990490000000 1.0
C      1  0.4921500000000  0.5433450000000  0.5517460000000 1.0
C      1  0.4876470000000  0.4875640000000  0.4011140000000 1.0
C      1  0.4965230000000  0.5710780000000  0.4172950000000 1.0
C      1  0.4992200000000  0.6097070000000  0.5053760000000 1.0
C      1  0.4923280000000  0.5517710000000  0.5903420000000 1.0
C      1  0.4918090000000  0.4840430000000  0.5823750000000 1.0
C      1  0.5054450000000  0.3908460000000  0.5296790000000 1.0
C      1  0.4994130000000  0.4059900000000  0.4323250000000 1.0
C      1  0.4371400000000  0.4993940000000  0.5625760000000 1.0
C      1  0.4325690000000  0.4419270000000  0.5341640000000 1.0
C      1  0.4354190000000  0.4314070000000  0.4779090000000 1.0
C      1  0.4245450000000  0.4675700000000  0.4322320000000 1.0
C      1  0.4264220000000  0.5398480000000  0.4370150000000 1.0
C      1  0.4251910000000  0.5811250000000  0.4970020000000 1.0
C      1  0.4295740000000  0.5525650000000  0.5524340000000 1.0
C      1  0.5310960000000  0.5054860000000  0.4854080000000 1.0
C      1  0.5541290000000  0.4993550000000  0.5055430000000 1.0
C      1  0.5805390000000  0.5000270000000  0.4971720000000 1.0
C      1  0.4675150000000  0.4938980000000  0.5015910000000 1.0
C      1  0.4954280000000  0.4918070000000  0.4963220000000 1.0
END
