TITL C-3289334-2237-37 -0.000620103883679754 125000 -232.884076118932 0 0 43 (C1) n - 1
REM
REM in /nfs/bkarasulu/CARBON/AIRSS/Generating-Clusters/AIREBO/with-SteepDescent/Higher-Symm/SD-CG/HFTN-CG
REM
REM
REM
REM
REM
REM ./C.cell (b20cbc046b6831c77cfcea5457e17084)
REM
REM compiler GCC version 9.2.1 20190827 (Red Hat 9.2.1-1)
REM options -cpp -mtune=generic -march=x86-64 -g -O0 -fpre-include=/usr/include/finclude/math-vector-fortran.h
REM seed -1919066491 1121143802 563470441 -1195616189 -825787211 -1496869419 1951397623 73300796 -589391187 1280050882 -932437709 775532758 882145954 -1976375330 -1984020047 -1136512136 1597976460 18158253 -510761989 263013587 565593221 -94746481 -824397946 -405185398 -1447618597 1743584508 1611007920 -88120638 -367500148 -2066441120 2083804982 -190531586 -1864798349
REM
CELL 1.54180   50.00000   50.00000   50.00000   90.00000   90.00000   90.00000
LATT -1
SFAC C  
C      1  0.4634470000000  0.5124420000000  0.4755940000000 1.0
C      1  0.4970470000000  0.5127890000000  0.5445860000000 1.0
C      1  0.5393390000000  0.5122450000000  0.4809000000000 1.0
C      1  0.4688460000000  0.4592900000000  0.4844820000000 1.0
C      1  0.5037110000000  0.4590320000000  0.5394170000000 1.0
C      1  0.5293420000000  0.4597370000000  0.4793230000000 1.0
C      1  0.4445880000000  0.5007530000000  0.5191390000000 1.0
C      1  0.5447760000000  0.5016400000000  0.5395650000000 1.0
C      1  0.5111780000000  0.5022380000000  0.4413460000000 1.0
C      1  0.4689000000000  0.5223320000000  0.5611290000000 1.0
C      1  0.5680770000000  0.5220280000000  0.4962410000000 1.0
C      1  0.4620330000000  0.5227880000000  0.4432240000000 1.0
C      1  0.4926070000000  0.4452420000000  0.4782560000000 1.0
C      1  0.4854890000000  0.4422040000000  0.5232500000000 1.0
C      1  0.5145210000000  0.4433480000000  0.5043540000000 1.0
C      1  0.5195810000000  0.5670580000000  0.4749990000000 1.0
C      1  0.4680480000000  0.5669860000000  0.4961300000000 1.0
C      1  0.5123070000000  0.5670500000000  0.5298650000000 1.0
C      1  0.4996130000000  0.4765500000000  0.4385000000000 1.0
C      1  0.4496750000000  0.4748770000000  0.5296360000000 1.0
C      1  0.5521060000000  0.4756400000000  0.5307370000000 1.0
C      1  0.4586730000000  0.5010500000000  0.4259140000000 1.0
C      1  0.4551790000000  0.5004780000000  0.5720700000000 1.0
C      1  0.5844670000000  0.5001510000000  0.5023200000000 1.0
C      1  0.4706680000000  0.4781170000000  0.4390680000000 1.0
C      1  0.4622510000000  0.4773700000000  0.5558740000000 1.0
C      1  0.5668530000000  0.4773720000000  0.5059010000000 1.0
C      1  0.4906060000000  0.4802240000000  0.5508880000000 1.0
C      1  0.5466680000000  0.4795100000000  0.4854830000000 1.0
C      1  0.4630750000000  0.4797840000000  0.4669600000000 1.0
C      1  0.5105010000000  0.4562480000000  0.4553000000000 1.0
C      1  0.4630180000000  0.4561660000000  0.5121170000000 1.0
C      1  0.5318180000000  0.4563930000000  0.5305690000000 1.0
C      1  0.4721610000000  0.5334940000000  0.5003210000000 1.0
C      1  0.5139690000000  0.5335330000000  0.5243830000000 1.0
C      1  0.5137860000000  0.5335740000000  0.4761920000000 1.0
C      1  0.5403720000000  0.5210650000000  0.5157250000000 1.0
C      1  0.4929570000000  0.5216370000000  0.4573110000000 1.0
C      1  0.4664780000000  0.5211100000000  0.5276180000000 1.0
C      1  0.4356800000000  0.5070150000000  0.4933400000000 1.0
C      1  0.5265920000000  0.5081240000000  0.5600480000000 1.0
C      1  0.5379380000000  0.5072380000000  0.4478360000000 1.0
C      1  0.4999510000000  0.5530910000000  0.5003570000000 1.0
END
