TITL C-3289324-3781-242 0.00157239538063134 125000 -469.791639569921 0 0 83 (C1) n - 1
REM
REM in /nfs/bkarasulu/CARBON/AIRSS/Generating-Clusters/AIREBO/with-SteepDescent/Higher-Symm/SD-CG/HFTN-CG
REM
REM
REM
REM
REM
REM ./C.cell (b20cbc046b6831c77cfcea5457e17084)
REM
REM compiler GCC version 9.2.1 20190827 (Red Hat 9.2.1-1)
REM options -cpp -mtune=generic -march=x86-64 -g -O0 -fpre-include=/usr/include/finclude/math-vector-fortran.h
REM seed -172079314 -1993675532 526365887 -440662401 1306862846 -1676674392 2029572933 -1794063724 690335368 248513699 -1847772858 636725202 1643300869 1126602168 -132823879 662850804 -2003961154 -1347864868 -1833926214 1766436869 1897116961 -1853107656 -642413467 -1799128068 836238797 480273184 495051868 -2049264895 -834756816 -1325738274 864077836 1061342858 -389501994
REM
CELL 1.54180   50.00000   50.00000   50.00000   90.00000   90.00000   90.00000
LATT -1
SFAC C  
C      1  0.4757930000000  0.4422550000000  0.5391110000000 1.0
C      1  0.4936620000000  0.5843320000000  0.5118890000000 1.0
C      1  0.4655550000000  0.5534320000000  0.5029290000000 1.0
C      1  0.4875760000000  0.4966780000000  0.5641710000000 1.0
C      1  0.4435270000000  0.5347930000000  0.5421670000000 1.0
C      1  0.5870530000000  0.4476870000000  0.4934770000000 1.0
C      1  0.4885060000000  0.5874010000000  0.4837510000000 1.0
C      1  0.4737430000000  0.5485750000000  0.4376090000000 1.0
C      1  0.5879010000000  0.4806920000000  0.4521820000000 1.0
C      1  0.4715110000000  0.4499830000000  0.5666690000000 1.0
C      1  0.5463720000000  0.5065610000000  0.5478030000000 1.0
C      1  0.4448440000000  0.5034150000000  0.5505320000000 1.0
C      1  0.4461310000000  0.4819420000000  0.5303380000000 1.0
C      1  0.5372240000000  0.5448190000000  0.4551680000000 1.0
C      1  0.4206590000000  0.4795350000000  0.4765100000000 1.0
C      1  0.5193620000000  0.4749970000000  0.5746450000000 1.0
C      1  0.4338680000000  0.4277000000000  0.5270870000000 1.0
C      1  0.5616810000000  0.5232040000000  0.4970730000000 1.0
C      1  0.5236970000000  0.3941940000000  0.5452370000000 1.0
C      1  0.4292710000000  0.5351050000000  0.5125140000000 1.0
C      1  0.5154160000000  0.5686030000000  0.5191000000000 1.0
C      1  0.5566960000000  0.4610430000000  0.4877810000000 1.0
C      1  0.5362780000000  0.5190310000000  0.5946790000000 1.0
C      1  0.4269800000000  0.4581950000000  0.4944020000000 1.0
C      1  0.4680270000000  0.5757920000000  0.5284230000000 1.0
C      1  0.5486450000000  0.4734110000000  0.5472320000000 1.0
C      1  0.4434520000000  0.5051480000000  0.5106820000000 1.0
C      1  0.5312250000000  0.4915690000000  0.4563740000000 1.0
C      1  0.4497490000000  0.4210440000000  0.4586760000000 1.0
C      1  0.5207960000000  0.4600770000000  0.4522750000000 1.0
C      1  0.5925430000000  0.4769340000000  0.4804450000000 1.0
C      1  0.5350570000000  0.5019080000000  0.4181210000000 1.0
C      1  0.5344530000000  0.4186480000000  0.5042450000000 1.0
C      1  0.4807880000000  0.4525220000000  0.4411600000000 1.0
C      1  0.4667430000000  0.4417190000000  0.4629390000000 1.0
C      1  0.5369660000000  0.5666870000000  0.5011090000000 1.0
C      1  0.4875360000000  0.4705240000000  0.5785760000000 1.0
C      1  0.5602240000000  0.5527060000000  0.5093280000000 1.0
C      1  0.5076160000000  0.4487570000000  0.4755590000000 1.0
C      1  0.4514000000000  0.4517740000000  0.5171930000000 1.0
C      1  0.4669130000000  0.5259260000000  0.5026890000000 1.0
C      1  0.5594860000000  0.4890480000000  0.4360760000000 1.0
C      1  0.5866790000000  0.4986750000000  0.4968980000000 1.0
C      1  0.4704630000000  0.4511850000000  0.4891680000000 1.0
C      1  0.4797060000000  0.5014960000000  0.4944810000000 1.0
C      1  0.5261430000000  0.5272400000000  0.4280900000000 1.0
C      1  0.5651130000000  0.5330510000000  0.4659760000000 1.0
C      1  0.4933640000000  0.4725570000000  0.4923450000000 1.0
C      1  0.5104840000000  0.4533800000000  0.4244110000000 1.0
C      1  0.4468400000000  0.4978160000000  0.4395270000000 1.0
C      1  0.5235530000000  0.5429690000000  0.5882600000000 1.0
C      1  0.4282660000000  0.5495130000000  0.4624280000000 1.0
C      1  0.4166630000000  0.5346190000000  0.4836190000000 1.0
C      1  0.5149870000000  0.4868990000000  0.5092750000000 1.0
C      1  0.5077400000000  0.5459010000000  0.5384260000000 1.0
C      1  0.4972060000000  0.5269010000000  0.4448080000000 1.0
C      1  0.5641050000000  0.5004900000000  0.5222650000000 1.0
C      1  0.4738360000000  0.5466110000000  0.5411710000000 1.0
C      1  0.5218680000000  0.5200750000000  0.5300080000000 1.0
C      1  0.5217230000000  0.5173490000000  0.4663610000000 1.0
C      1  0.4835090000000  0.5222810000000  0.5742110000000 1.0
C      1  0.4847190000000  0.4724950000000  0.4148130000000 1.0
C      1  0.5157680000000  0.4836960000000  0.4097350000000 1.0
C      1  0.4549570000000  0.5575230000000  0.4566990000000 1.0
C      1  0.4710080000000  0.5089690000000  0.4382410000000 1.0
C      1  0.5358930000000  0.4975880000000  0.5763680000000 1.0
C      1  0.4274850000000  0.4811090000000  0.4491750000000 1.0
C      1  0.4278990000000  0.5494620000000  0.5609890000000 1.0
C      1  0.5113970000000  0.5882860000000  0.4672130000000 1.0
C      1  0.5024160000000  0.5426320000000  0.5695810000000 1.0
C      1  0.5156840000000  0.4244390000000  0.4837930000000 1.0
C      1  0.5585910000000  0.4314760000000  0.4995510000000 1.0
C      1  0.5205100000000  0.4155120000000  0.5291510000000 1.0
C      1  0.4528720000000  0.5942590000000  0.5417560000000 1.0
C      1  0.4208070000000  0.5043850000000  0.4888890000000 1.0
C      1  0.5453490000000  0.4805690000000  0.5062810000000 1.0
C      1  0.5057050000000  0.4923040000000  0.5404100000000 1.0
C      1  0.5312020000000  0.5691660000000  0.4728680000000 1.0
C      1  0.5037150000000  0.4376170000000  0.5354820000000 1.0
C      1  0.5285300000000  0.5156170000000  0.4969280000000 1.0
C      1  0.5187540000000  0.4612380000000  0.5438650000000 1.0
C      1  0.5516310000000  0.4658190000000  0.4596280000000 1.0
C      1  0.4679370000000  0.5684640000000  0.4789230000000 1.0
END
