TITL C-3289325-7307-19 0.00376878330011898 125000 -741.63508647729 0 0 140 (C1) n - 1
REM
REM in /nfs/bkarasulu/CARBON/AIRSS/Generating-Clusters/AIREBO/with-SteepDescent/Higher-Symm/SD-CG/HFTN-CG
REM
REM
REM
REM
REM
REM ./C.cell (b20cbc046b6831c77cfcea5457e17084)
REM
REM compiler GCC version 9.2.1 20190827 (Red Hat 9.2.1-1)
REM options -cpp -mtune=generic -march=x86-64 -g -O0 -fpre-include=/usr/include/finclude/math-vector-fortran.h
REM seed -1311635105 101812453 22853919 -873788241 1654591050 2051608785 -386840284 1131050726 1212836150 353816934 -413276079 1879948 -443614705 188238579 664607337 -915153765 -1471717795 -1960723707 -21247151 -791978808 -76721961 -1163168693 -1585238105 1369078004 -67632653 -1652943156 2094447388 -892838912 1954441041 1549208744 8240635 -189027262 576156562
REM
CELL 1.54180   50.00000   50.00000   50.00000   90.00000   90.00000   90.00000
LATT -1
SFAC C  
C      1  0.4633260000000  0.4178480000000  0.4574070000000 1.0
C      1  0.5800150000000  0.5106450000000  0.5384040000000 1.0
C      1  0.5182070000000  0.5340730000000  0.4325090000000 1.0
C      1  0.5565780000000  0.5805500000000  0.5068340000000 1.0
C      1  0.5264820000000  0.5830660000000  0.4626250000000 1.0
C      1  0.4809280000000  0.4058690000000  0.5082110000000 1.0
C      1  0.4989630000000  0.5732670000000  0.5464790000000 1.0
C      1  0.5258280000000  0.4930540000000  0.6011080000000 1.0
C      1  0.4597810000000  0.4546830000000  0.4721100000000 1.0
C      1  0.5159170000000  0.4206280000000  0.4708740000000 1.0
C      1  0.6017120000000  0.5355490000000  0.4947180000000 1.0
C      1  0.5668990000000  0.5423130000000  0.5120090000000 1.0
C      1  0.4916190000000  0.5237370000000  0.5397830000000 1.0
C      1  0.4751420000000  0.5601070000000  0.4887320000000 1.0
C      1  0.5105360000000  0.4561890000000  0.4979650000000 1.0
C      1  0.5174180000000  0.4386630000000  0.5460020000000 1.0
C      1  0.5829990000000  0.4419170000000  0.4611800000000 1.0
C      1  0.5723860000000  0.5496980000000  0.5395390000000 1.0
C      1  0.5967370000000  0.4785480000000  0.5216800000000 1.0
C      1  0.5727390000000  0.4914390000000  0.4797410000000 1.0
C      1  0.4856660000000  0.4355220000000  0.4752410000000 1.0
C      1  0.5175860000000  0.5056610000000  0.5270370000000 1.0
C      1  0.5384060000000  0.5093760000000  0.4442770000000 1.0
C      1  0.5630650000000  0.5228200000000  0.4246070000000 1.0
C      1  0.5432880000000  0.4563530000000  0.5374110000000 1.0
C      1  0.5126810000000  0.4523230000000  0.4068680000000 1.0
C      1  0.4623510000000  0.4893290000000  0.4021440000000 1.0
C      1  0.4417400000000  0.5391270000000  0.4253620000000 1.0
C      1  0.5303220000000  0.4545580000000  0.4291550000000 1.0
C      1  0.5142250000000  0.4654960000000  0.5751070000000 1.0
C      1  0.4797250000000  0.4485870000000  0.5059670000000 1.0
C      1  0.4156700000000  0.4877710000000  0.5550820000000 1.0
C      1  0.4871950000000  0.4690810000000  0.3895630000000 1.0
C      1  0.4878790000000  0.5020370000000  0.5150790000000 1.0
C      1  0.4968320000000  0.4844470000000  0.4898260000000 1.0
C      1  0.4819450000000  0.5994320000000  0.5082420000000 1.0
C      1  0.5782990000000  0.4638590000000  0.4988380000000 1.0
C      1  0.4180390000000  0.4597650000000  0.4982190000000 1.0
C      1  0.4259980000000  0.5456360000000  0.5496510000000 1.0
C      1  0.5895860000000  0.4704180000000  0.5488280000000 1.0
C      1  0.4868680000000  0.5267450000000  0.5709230000000 1.0
C      1  0.5734420000000  0.5042880000000  0.5685560000000 1.0
C      1  0.4512480000000  0.5015180000000  0.5393940000000 1.0
C      1  0.5552160000000  0.4558110000000  0.4750220000000 1.0
C      1  0.4386530000000  0.4892490000000  0.5752230000000 1.0
C      1  0.5458480000000  0.4796410000000  0.5160090000000 1.0
C      1  0.5597700000000  0.5009280000000  0.5190970000000 1.0
C      1  0.4207310000000  0.5561630000000  0.5230030000000 1.0
C      1  0.4970130000000  0.4718590000000  0.6025880000000 1.0
C      1  0.5009390000000  0.5112020000000  0.6048310000000 1.0
C      1  0.4416790000000  0.4967040000000  0.5071250000000 1.0
C      1  0.5826840000000  0.4204550000000  0.5023720000000 1.0
C      1  0.5346790000000  0.4394560000000  0.4533430000000 1.0
C      1  0.4233160000000  0.5253530000000  0.5121810000000 1.0
C      1  0.4884350000000  0.4192210000000  0.5652600000000 1.0
C      1  0.4376900000000  0.5645460000000  0.5011510000000 1.0
C      1  0.5568440000000  0.5304680000000  0.4629820000000 1.0
C      1  0.5571870000000  0.5696540000000  0.4684730000000 1.0
C      1  0.4432920000000  0.5144670000000  0.5887450000000 1.0
C      1  0.5077430000000  0.5475320000000  0.4606000000000 1.0
C      1  0.4763840000000  0.5663450000000  0.4208790000000 1.0
C      1  0.4526680000000  0.4676080000000  0.4264490000000 1.0
C      1  0.5348640000000  0.5632370000000  0.4363010000000 1.0
C      1  0.4795530000000  0.5232610000000  0.4464170000000 1.0
C      1  0.5556700000000  0.5175900000000  0.4932400000000 1.0
C      1  0.5064610000000  0.5814880000000  0.5142410000000 1.0
C      1  0.3985750000000  0.5149790000000  0.4959910000000 1.0
C      1  0.4845430000000  0.4954500000000  0.5815140000000 1.0
C      1  0.4462020000000  0.5168670000000  0.4481530000000 1.0
C      1  0.4757620000000  0.4924050000000  0.4473100000000 1.0
C      1  0.4807930000000  0.4286430000000  0.5334880000000 1.0
C      1  0.5960290000000  0.5134460000000  0.4769320000000 1.0
C      1  0.4321310000000  0.5537530000000  0.4523910000000 1.0
C      1  0.4596010000000  0.5366780000000  0.5799540000000 1.0
C      1  0.4801000000000  0.5493860000000  0.5206500000000 1.0
C      1  0.4359100000000  0.4567540000000  0.5405300000000 1.0
C      1  0.4486950000000  0.5557570000000  0.5625970000000 1.0
C      1  0.4544760000000  0.4485550000000  0.5686390000000 1.0
C      1  0.4676410000000  0.5193730000000  0.4147920000000 1.0
C      1  0.5723600000000  0.4730880000000  0.4512760000000 1.0
C      1  0.4668560000000  0.4788220000000  0.5593280000000 1.0
C      1  0.4492970000000  0.5383770000000  0.4847030000000 1.0
C      1  0.5084320000000  0.5490580000000  0.5657400000000 1.0
C      1  0.4797640000000  0.5480760000000  0.4011650000000 1.0
C      1  0.5811930000000  0.5625220000000  0.4911420000000 1.0
C      1  0.5501560000000  0.4800120000000  0.4317970000000 1.0
C      1  0.4704200000000  0.4823390000000  0.4736560000000 1.0
C      1  0.5653620000000  0.4628470000000  0.5594020000000 1.0
C      1  0.5773960000000  0.5363860000000  0.5648780000000 1.0
C      1  0.4904100000000  0.4596760000000  0.5435960000000 1.0
C      1  0.5011460000000  0.5226830000000  0.4100060000000 1.0
C      1  0.5185950000000  0.4784870000000  0.5449940000000 1.0
C      1  0.4937270000000  0.5244220000000  0.4773840000000 1.0
C      1  0.6031760000000  0.5111760000000  0.5162010000000 1.0
C      1  0.5138740000000  0.5483990000000  0.5167890000000 1.0
C      1  0.4534890000000  0.5731590000000  0.4654960000000 1.0
C      1  0.5282220000000  0.4296110000000  0.5012820000000 1.0
C      1  0.4806860000000  0.4437870000000  0.4113400000000 1.0
C      1  0.4489370000000  0.4267960000000  0.5434020000000 1.0
C      1  0.4933230000000  0.5755110000000  0.4644670000000 1.0
C      1  0.4670610000000  0.5108990000000  0.4918660000000 1.0
C      1  0.5316280000000  0.5853080000000  0.4949550000000 1.0
C      1  0.5327320000000  0.5526430000000  0.5430230000000 1.0
C      1  0.4522960000000  0.5924970000000  0.4931120000000 1.0
C      1  0.5050930000000  0.3932420000000  0.4878920000000 1.0
C      1  0.4861510000000  0.4473020000000  0.5812160000000 1.0
C      1  0.4539190000000  0.4658390000000  0.5144770000000 1.0
C      1  0.5053090000000  0.4915680000000  0.4075180000000 1.0
C      1  0.5943600000000  0.4238510000000  0.4773720000000 1.0
C      1  0.5233880000000  0.4981210000000  0.4727310000000 1.0
C      1  0.4282270000000  0.4712780000000  0.4457810000000 1.0
C      1  0.4211120000000  0.5010740000000  0.4562130000000 1.0
C      1  0.5578830000000  0.4397650000000  0.5115570000000 1.0
C      1  0.5422730000000  0.5102560000000  0.5768180000000 1.0
C      1  0.5215580000000  0.5216340000000  0.4972520000000 1.0
C      1  0.5387330000000  0.5399870000000  0.5743250000000 1.0
C      1  0.4566080000000  0.4342090000000  0.4314830000000 1.0
C      1  0.4305230000000  0.4514010000000  0.4676830000000 1.0
C      1  0.5137460000000  0.4093620000000  0.5503910000000 1.0
C      1  0.4672220000000  0.5707910000000  0.5437220000000 1.0
C      1  0.4934950000000  0.4048290000000  0.4506130000000 1.0
C      1  0.5659700000000  0.5532660000000  0.4394640000000 1.0
C      1  0.4534570000000  0.5309680000000  0.5236740000000 1.0
C      1  0.5634620000000  0.5525870000000  0.5886770000000 1.0
C      1  0.4238060000000  0.4869690000000  0.4833120000000 1.0
C      1  0.5349870000000  0.4735880000000  0.4894130000000 1.0
C      1  0.4732300000000  0.5833450000000  0.4411940000000 1.0
C      1  0.4183310000000  0.5304990000000  0.4730360000000 1.0
C      1  0.4066920000000  0.4695950000000  0.5287290000000 1.0
C      1  0.3909370000000  0.4900100000000  0.5065510000000 1.0
C      1  0.5126330000000  0.4085050000000  0.5202210000000 1.0
C      1  0.5334900000000  0.4863530000000  0.4051100000000 1.0
C      1  0.4558950000000  0.4140970000000  0.4904350000000 1.0
C      1  0.4564210000000  0.5937550000000  0.5269250000000 1.0
C      1  0.4242150000000  0.5178590000000  0.5514610000000 1.0
C      1  0.4863320000000  0.4724670000000  0.4287150000000 1.0
C      1  0.4416290000000  0.4364080000000  0.5026700000000 1.0
C      1  0.5552520000000  0.5736690000000  0.5339380000000 1.0
C      1  0.5455630000000  0.4772370000000  0.5780200000000 1.0
C      1  0.5335210000000  0.5474620000000  0.4786500000000 1.0
END
