TITL C-3289321-8710-504 0.000935983408730909 125000 -837.079650826416 0 0 158 (C1) n - 1
REM
REM in /nfs/bkarasulu/CARBON/AIRSS/Generating-Clusters/AIREBO/with-SteepDescent/Higher-Symm/SD-CG/HFTN-CG
REM
REM
REM
REM
REM
REM ./C.cell (b20cbc046b6831c77cfcea5457e17084)
REM
REM compiler GCC version 9.2.1 20190827 (Red Hat 9.2.1-1)
REM options -cpp -mtune=generic -march=x86-64 -g -O0 -fpre-include=/usr/include/finclude/math-vector-fortran.h
REM seed 191221796 1223116279 -2013555021 -1269836904 -1665415075 -262261794 1587617687 1410137950 -1139680135 505609193 -305068442 1212692950 -995200767 922229358 1694708307 1828305529 1529439751 1585180097 1092785553 357566204 -1731324252 1771186559 -83903079 806893659 -1510198396 -530331844 -321316255 -514819463 883964153 -1464074148 1092792822 -1349896344 -1573883245
REM
CELL 1.54180   50.00000   50.00000   50.00000   90.00000   90.00000   90.00000
LATT -1
SFAC C  
C      1  0.5347430000000  0.4359920000000  0.4430380000000 1.0
C      1  0.5215620000000  0.5247890000000  0.4085720000000 1.0
C      1  0.5288020000000  0.5783870000000  0.4757410000000 1.0
C      1  0.5180550000000  0.5706990000000  0.5661550000000 1.0
C      1  0.5219880000000  0.4761760000000  0.5944980000000 1.0
C      1  0.5259710000000  0.4148480000000  0.5217190000000 1.0
C      1  0.4651120000000  0.5632840000000  0.4371990000000 1.0
C      1  0.4766220000000  0.4828200000000  0.4068630000000 1.0
C      1  0.4675080000000  0.4179550000000  0.4826900000000 1.0
C      1  0.4800580000000  0.4334510000000  0.5687580000000 1.0
C      1  0.4783210000000  0.5268050000000  0.5943110000000 1.0
C      1  0.4747850000000  0.5879490000000  0.5260580000000 1.0
C      1  0.4269890000000  0.4846530000000  0.4282690000000 1.0
C      1  0.4342050000000  0.5518130000000  0.4463640000000 1.0
C      1  0.4406870000000  0.5871440000000  0.5241970000000 1.0
C      1  0.4268380000000  0.5331750000000  0.5664670000000 1.0
C      1  0.4292950000000  0.4542480000000  0.5586760000000 1.0
C      1  0.4380890000000  0.4243480000000  0.4911070000000 1.0
C      1  0.5748200000000  0.5162390000000  0.4260030000000 1.0
C      1  0.5659820000000  0.4456140000000  0.4489410000000 1.0
C      1  0.5598950000000  0.4128460000000  0.5203940000000 1.0
C      1  0.5729700000000  0.4693940000000  0.5678230000000 1.0
C      1  0.5689440000000  0.5490910000000  0.5546990000000 1.0
C      1  0.5611410000000  0.5756640000000  0.4861020000000 1.0
C      1  0.3987720000000  0.4662730000000  0.4949850000000 1.0
C      1  0.3977160000000  0.4911650000000  0.4716140000000 1.0
C      1  0.3991780000000  0.5247320000000  0.4768730000000 1.0
C      1  0.3970280000000  0.5387140000000  0.5079130000000 1.0
C      1  0.3899570000000  0.5142380000000  0.5305760000000 1.0
C      1  0.3990780000000  0.4817280000000  0.5250650000000 1.0
C      1  0.6030790000000  0.5351910000000  0.4951120000000 1.0
C      1  0.6056400000000  0.5100190000000  0.4720220000000 1.0
C      1  0.6046020000000  0.4763150000000  0.4770880000000 1.0
C      1  0.6018060000000  0.4629900000000  0.5082480000000 1.0
C      1  0.6025680000000  0.4888730000000  0.5307510000000 1.0
C      1  0.6032380000000  0.5225600000000  0.5258480000000 1.0
C      1  0.4823120000000  0.5928280000000  0.4931490000000 1.0
C      1  0.4834010000000  0.5568920000000  0.5792570000000 1.0
C      1  0.4862050000000  0.4602290000000  0.5886540000000 1.0
C      1  0.4847300000000  0.4022550000000  0.4992670000000 1.0
C      1  0.4922640000000  0.4542570000000  0.4167000000000 1.0
C      1  0.4831880000000  0.5444220000000  0.4153670000000 1.0
C      1  0.5150120000000  0.4045450000000  0.4911020000000 1.0
C      1  0.5159090000000  0.4456320000000  0.5807490000000 1.0
C      1  0.5137040000000  0.5424650000000  0.5847280000000 1.0
C      1  0.5119300000000  0.5903380000000  0.5027720000000 1.0
C      1  0.5138590000000  0.5514300000000  0.4282860000000 1.0
C      1  0.5156590000000  0.4689320000000  0.3983920000000 1.0
C      1  0.5091540000000  0.4424030000000  0.5276220000000 1.0
C      1  0.5119400000000  0.4480290000000  0.4636870000000 1.0
C      1  0.5208980000000  0.5060620000000  0.4363570000000 1.0
C      1  0.5034160000000  0.5565740000000  0.4801950000000 1.0
C      1  0.5134620000000  0.5483740000000  0.5424770000000 1.0
C      1  0.5142780000000  0.4812700000000  0.5628890000000 1.0
C      1  0.4860760000000  0.5564550000000  0.5286490000000 1.0
C      1  0.4833300000000  0.5451230000000  0.4552550000000 1.0
C      1  0.4893440000000  0.4979900000000  0.4332870000000 1.0
C      1  0.4808780000000  0.4353650000000  0.4673360000000 1.0
C      1  0.4829170000000  0.4518050000000  0.5426620000000 1.0
C      1  0.4870660000000  0.5189760000000  0.5634050000000 1.0
C      1  0.5945260000000  0.5457170000000  0.5466460000000 1.0
C      1  0.5972830000000  0.4791950000000  0.5608110000000 1.0
C      1  0.5852140000000  0.4332820000000  0.5075510000000 1.0
C      1  0.5951210000000  0.4578250000000  0.4539320000000 1.0
C      1  0.5979910000000  0.5124880000000  0.4399720000000 1.0
C      1  0.5863770000000  0.5635940000000  0.4865900000000 1.0
C      1  0.4048300000000  0.4598680000000  0.5484970000000 1.0
C      1  0.4022840000000  0.5240780000000  0.5598110000000 1.0
C      1  0.4145610000000  0.5674340000000  0.5128840000000 1.0
C      1  0.4041300000000  0.5436510000000  0.4537960000000 1.0
C      1  0.4028450000000  0.4871250000000  0.4400120000000 1.0
C      1  0.4137180000000  0.4362880000000  0.4889190000000 1.0
C      1  0.5222220000000  0.5403730000000  0.4581920000000 1.0
C      1  0.5453450000000  0.5598450000000  0.5393170000000 1.0
C      1  0.5472850000000  0.4882750000000  0.5671030000000 1.0
C      1  0.5534930000000  0.4424610000000  0.5298350000000 1.0
C      1  0.5579190000000  0.4297000000000  0.4749480000000 1.0
C      1  0.5524740000000  0.4957190000000  0.4271960000000 1.0
C      1  0.4880340000000  0.4608480000000  0.4473660000000 1.0
C      1  0.4505640000000  0.4413310000000  0.5430060000000 1.0
C      1  0.4534900000000  0.5143890000000  0.5662210000000 1.0
C      1  0.4520270000000  0.5553000000000  0.5277770000000 1.0
C      1  0.4435930000000  0.5701670000000  0.4701210000000 1.0
C      1  0.4557720000000  0.5018450000000  0.4371340000000 1.0
C      1  0.4879610000000  0.4065860000000  0.5531980000000 1.0
C      1  0.5058690000000  0.4251230000000  0.4289340000000 1.0
C      1  0.4841610000000  0.5149210000000  0.3984430000000 1.0
C      1  0.4794920000000  0.5843610000000  0.4597100000000 1.0
C      1  0.4864360000000  0.5831930000000  0.5577260000000 1.0
C      1  0.4865160000000  0.4938020000000  0.5944360000000 1.0
C      1  0.5131490000000  0.5879070000000  0.5372260000000 1.0
C      1  0.5092960000000  0.5790180000000  0.4476660000000 1.0
C      1  0.5122690000000  0.4970450000000  0.3961740000000 1.0
C      1  0.5186340000000  0.4095940000000  0.4571770000000 1.0
C      1  0.5159470000000  0.4248860000000  0.5536670000000 1.0
C      1  0.5137040000000  0.5090480000000  0.5916570000000 1.0
C      1  0.5486480000000  0.5810810000000  0.5152900000000 1.0
C      1  0.5572520000000  0.5272780000000  0.5679550000000 1.0
C      1  0.5628500000000  0.4439250000000  0.5608720000000 1.0
C      1  0.5739860000000  0.4056310000000  0.4912510000000 1.0
C      1  0.5550750000000  0.4636760000000  0.4225600000000 1.0
C      1  0.5634930000000  0.5431530000000  0.4283330000000 1.0
C      1  0.4531950000000  0.4192110000000  0.5199630000000 1.0
C      1  0.4428720000000  0.4749560000000  0.5720810000000 1.0
C      1  0.4381590000000  0.5583210000000  0.5586770000000 1.0
C      1  0.4289280000000  0.5901160000000  0.4928480000000 1.0
C      1  0.4457680000000  0.5304490000000  0.4252620000000 1.0
C      1  0.4434470000000  0.4587030000000  0.4292060000000 1.0
C      1  0.5729660000000  0.5183040000000  0.4762750000000 1.0
C      1  0.5706910000000  0.5317830000000  0.5049050000000 1.0
C      1  0.5707720000000  0.5131320000000  0.5307260000000 1.0
C      1  0.5708370000000  0.4827530000000  0.5239370000000 1.0
C      1  0.5710270000000  0.4691640000000  0.4971750000000 1.0
C      1  0.5727480000000  0.4875670000000  0.4729520000000 1.0
C      1  0.4303090000000  0.4814880000000  0.4767230000000 1.0
C      1  0.4310580000000  0.4679950000000  0.5056070000000 1.0
C      1  0.4320250000000  0.4847100000000  0.5329410000000 1.0
C      1  0.4221710000000  0.5140630000000  0.5266120000000 1.0
C      1  0.4295300000000  0.5322960000000  0.5015210000000 1.0
C      1  0.4303530000000  0.5129070000000  0.4777230000000 1.0
C      1  0.4936120000000  0.4837410000000  0.5359970000000 1.0
C      1  0.4800140000000  0.4707390000000  0.5076280000000 1.0
C      1  0.4801870000000  0.4769810000000  0.4742660000000 1.0
C      1  0.4917240000000  0.5071240000000  0.4719870000000 1.0
C      1  0.4779370000000  0.5343280000000  0.4870440000000 1.0
C      1  0.4790350000000  0.5261150000000  0.5198420000000 1.0
C      1  0.5068640000000  0.5151220000000  0.5360210000000 1.0
C      1  0.5194040000000  0.5295920000000  0.5078870000000 1.0
C      1  0.5333740000000  0.5166440000000  0.4795110000000 1.0
C      1  0.5196520000000  0.4887940000000  0.4656330000000 1.0
C      1  0.5225350000000  0.4626450000000  0.4871770000000 1.0
C      1  0.5202200000000  0.4702450000000  0.5196650000000 1.0
C      1  0.4559540000000  0.4692390000000  0.5953720000000 1.0
C      1  0.4770310000000  0.4010240000000  0.5277970000000 1.0
C      1  0.4603320000000  0.4435190000000  0.4150310000000 1.0
C      1  0.4534600000000  0.5411270000000  0.3991990000000 1.0
C      1  0.4550040000000  0.6017570000000  0.4754630000000 1.0
C      1  0.4541890000000  0.5703260000000  0.5771220000000 1.0
C      1  0.5442210000000  0.5329510000000  0.5911860000000 1.0
C      1  0.5337650000000  0.6090660000000  0.5209000000000 1.0
C      1  0.5451050000000  0.5605030000000  0.4184120000000 1.0
C      1  0.5408810000000  0.4567380000000  0.4005980000000 1.0
C      1  0.5446280000000  0.3984110000000  0.4755600000000 1.0
C      1  0.5458000000000  0.4324200000000  0.5788500000000 1.0
C      1  0.5463100000000  0.4724430000000  0.5383260000000 1.0
C      1  0.5489190000000  0.4488900000000  0.4965540000000 1.0
C      1  0.5499750000000  0.4840400000000  0.4556660000000 1.0
C      1  0.5549590000000  0.5325800000000  0.4565200000000 1.0
C      1  0.5454530000000  0.5474640000000  0.5096660000000 1.0
C      1  0.5396820000000  0.5113890000000  0.5445440000000 1.0
C      1  0.4499760000000  0.5240140000000  0.5353230000000 1.0
C      1  0.4513760000000  0.5524970000000  0.4938980000000 1.0
C      1  0.4586430000000  0.5136870000000  0.4676400000000 1.0
C      1  0.4521900000000  0.4748860000000  0.4575610000000 1.0
C      1  0.4564450000000  0.4525140000000  0.5127260000000 1.0
C      1  0.4619090000000  0.4880260000000  0.5476030000000 1.0
C      1  0.5265050000000  0.4974060000000  0.5063800000000 1.0
C      1  0.4728370000000  0.4995750000000  0.5061300000000 1.0
END
