TITL C-3289331-6719-94 7.31156532990739e-05 125000 -100.868710747943 0 0 20 (C1) n - 1
REM
REM in /nfs/bkarasulu/CARBON/AIRSS/Generating-Clusters/AIREBO/with-SteepDescent/Higher-Symm/SD-CG/HFTN-CG
REM
REM
REM
REM
REM
REM ./C.cell (b20cbc046b6831c77cfcea5457e17084)
REM
REM compiler GCC version 9.2.1 20190827 (Red Hat 9.2.1-1)
REM options -cpp -mtune=generic -march=x86-64 -g -O0 -fpre-include=/usr/include/finclude/math-vector-fortran.h
REM seed 796117125 1814135686 1494044870 -1270101552 -1861126707 -764541670 531711351 -463041307 -1368842731 1659978901 1735801880 2064630245 2026556827 1182806862 505435331 -1902828414 -437300180 -729039649 -1774959209 576023948 116124776 1472685959 -1128305605 1984980158 1845125574 -1465413683 1840068884 875909194 -199208708 -550185457 1393023410 -719023522 -1286967311
REM
CELL 1.54180   50.00000   50.00000   50.00000   90.00000   90.00000   90.00000
LATT -1
SFAC C  
C      1  0.4503980000000  0.5308420000000  0.4715170000000 1.0
C      1  0.5067000000000  0.4985660000000  0.5083210000000 1.0
C      1  0.5382060000000  0.5338800000000  0.5492860000000 1.0
C      1  0.5093850000000  0.4646280000000  0.4510900000000 1.0
C      1  0.5281590000000  0.5547230000000  0.5243560000000 1.0
C      1  0.4866810000000  0.5080960000000  0.5309230000000 1.0
C      1  0.5858000000000  0.5591350000000  0.5341310000000 1.0
C      1  0.4646840000000  0.4796810000000  0.4624550000000 1.0
C      1  0.4568300000000  0.5056380000000  0.4682920000000 1.0
C      1  0.4479990000000  0.4628480000000  0.4494460000000 1.0
C      1  0.5599130000000  0.5535120000000  0.5364980000000 1.0
C      1  0.4687590000000  0.4871290000000  0.5354200000000 1.0
C      1  0.4981230000000  0.4703810000000  0.4991340000000 1.0
C      1  0.5151610000000  0.5240050000000  0.5276150000000 1.0
C      1  0.5165940000000  0.5756640000000  0.5118280000000 1.0
C      1  0.5281960000000  0.4610960000000  0.4331790000000 1.0
C      1  0.4903220000000  0.4709620000000  0.4699280000000 1.0
C      1  0.5181150000000  0.4509060000000  0.5042830000000 1.0
C      1  0.4574740000000  0.4428040000000  0.5151610000000 1.0
C      1  0.4725010000000  0.4655030000000  0.5171390000000 1.0
END
