TITL C-3289335-9438-126 -2610.31071828208 125000 -887.360916320891 0 0 165 (C1) n - 1
REM
REM in /nfs/bkarasulu/CARBON/AIRSS/Generating-Clusters/AIREBO/with-SteepDescent/Higher-Symm/SD-CG/HFTN-CG
REM
REM
REM
REM
REM
REM ./C.cell (b20cbc046b6831c77cfcea5457e17084)
REM
REM compiler GCC version 9.2.1 20190827 (Red Hat 9.2.1-1)
REM options -cpp -mtune=generic -march=x86-64 -g -O0 -fpre-include=/usr/include/finclude/math-vector-fortran.h
REM seed -1837863530 25150921 130793826 245681101 756133954 -1023893660 -1000473550 1271126273 -808519339 698151844 -286158000 2114061119 1180532014 -903761910 -290630972 1397844137 -1468020936 528744338 -1391243598 1478718021 275957548 1824038902 -45377434 1405868030 -136872922 -1183216454 -1121064941 -1659373047 -1724044495 -829366208 -760409478 376255933 1858216334
REM
CELL 1.54180   50.00000   50.00000   50.00000   90.00000   90.00000   90.00000
LATT -1
SFAC C  
C      1  0.4342040000000  0.5116140000000  0.4516730000000 1.0
C      1  0.5777560000000  0.4495630000000  0.5346580000000 1.0
C      1  0.4906970000000  0.4602410000000  0.4264500000000 1.0
C      1  0.5419990000000  0.4468740000000  0.4724980000000 1.0
C      1  0.4640570000000  0.4644760000000  0.5564150000000 1.0
C      1  0.5428760000000  0.4025360000000  0.4748300000000 1.0
C      1  0.5262390000000  0.4957100000000  0.4424060000000 1.0
C      1  0.5325490000000  0.5598410000000  0.3945840000000 1.0
C      1  0.5408380000000  0.5796250000000  0.4379200000000 1.0
C      1  0.5242850000000  0.4389840000000  0.4296500000000 1.0
C      1  0.4715650000000  0.4620560000000  0.6014020000000 1.0
C      1  0.5206800000000  0.5968910000000  0.4676190000000 1.0
C      1  0.5031930000000  0.5829910000000  0.5198410000000 1.0
C      1  0.5967300000000  0.5276200000000  0.5211120000000 1.0
C      1  0.5300900000000  0.4764180000000  0.4687530000000 1.0
C      1  0.4825130000000  0.5301460000000  0.4281130000000 1.0
C      1  0.4343520000000  0.5687020000000  0.4883590000000 1.0
C      1  0.5409290000000  0.4052320000000  0.5086860000000 1.0
C      1  0.5730910000000  0.5850090000000  0.4955620000000 1.0
C      1  0.4814130000000  0.5062170000000  0.5372200000000 1.0
C      1  0.4866830000000  0.5122200000000  0.4045130000000 1.0
C      1  0.5538010000000  0.4520730000000  0.4184450000000 1.0
C      1  0.4438240000000  0.4935000000000  0.4159820000000 1.0
C      1  0.4308150000000  0.5566300000000  0.4618140000000 1.0
C      1  0.4279280000000  0.5235470000000  0.4144700000000 1.0
C      1  0.4700070000000  0.5439230000000  0.5211870000000 1.0
C      1  0.5739440000000  0.4108260000000  0.4648900000000 1.0
C      1  0.4224040000000  0.5319810000000  0.5712780000000 1.0
C      1  0.5190080000000  0.5173580000000  0.5954990000000 1.0
C      1  0.4135510000000  0.4837200000000  0.5596460000000 1.0
C      1  0.5037140000000  0.5436980000000  0.4457140000000 1.0
C      1  0.4638380000000  0.4386430000000  0.5864270000000 1.0
C      1  0.5989590000000  0.5374810000000  0.4661490000000 1.0
C      1  0.4848170000000  0.5504560000000  0.4732960000000 1.0
C      1  0.4919090000000  0.5832510000000  0.4675550000000 1.0
C      1  0.4981240000000  0.4611520000000  0.6082630000000 1.0
C      1  0.5760610000000  0.5438810000000  0.4518780000000 1.0
C      1  0.4445460000000  0.4893470000000  0.4751980000000 1.0
C      1  0.4919170000000  0.4296810000000  0.4221370000000 1.0
C      1  0.5414510000000  0.4778740000000  0.5742790000000 1.0
C      1  0.5514070000000  0.5687660000000  0.5758960000000 1.0
C      1  0.5101470000000  0.5720560000000  0.4338280000000 1.0
C      1  0.5201350000000  0.4724270000000  0.4249980000000 1.0
C      1  0.5802690000000  0.4862690000000  0.5696760000000 1.0
C      1  0.4220750000000  0.4638880000000  0.5175270000000 1.0
C      1  0.5033400000000  0.5138310000000  0.5565970000000 1.0
C      1  0.5513710000000  0.5734520000000  0.5422170000000 1.0
C      1  0.5240960000000  0.5821980000000  0.5607320000000 1.0
C      1  0.4638330000000  0.5793870000000  0.4190530000000 1.0
C      1  0.5252090000000  0.6015310000000  0.5327660000000 1.0
C      1  0.4764760000000  0.4152750000000  0.4410010000000 1.0
C      1  0.5275890000000  0.4958380000000  0.5500550000000 1.0
C      1  0.4596260000000  0.4850820000000  0.3936480000000 1.0
C      1  0.5063570000000  0.5627080000000  0.4030070000000 1.0
C      1  0.4892250000000  0.5577230000000  0.5948220000000 1.0
C      1  0.5014760000000  0.4171340000000  0.5341990000000 1.0
C      1  0.5290270000000  0.5248470000000  0.4470420000000 1.0
C      1  0.4524100000000  0.4273670000000  0.4515170000000 1.0
C      1  0.4705590000000  0.4057960000000  0.5318610000000 1.0
C      1  0.4924150000000  0.3904510000000  0.4839110000000 1.0
C      1  0.5032310000000  0.4437000000000  0.4813660000000 1.0
C      1  0.4544620000000  0.4715040000000  0.5245640000000 1.0
C      1  0.4686510000000  0.4021610000000  0.4997880000000 1.0
C      1  0.5554110000000  0.5234550000000  0.5422960000000 1.0
C      1  0.4326420000000  0.4507320000000  0.4450180000000 1.0
C      1  0.5315450000000  0.4227810000000  0.5360350000000 1.0
C      1  0.4514370000000  0.4767580000000  0.4443680000000 1.0
C      1  0.5732210000000  0.4864710000000  0.4419060000000 1.0
C      1  0.4636820000000  0.5195000000000  0.5025510000000 1.0
C      1  0.5493980000000  0.5537940000000  0.4669250000000 1.0
C      1  0.3939690000000  0.4758030000000  0.4714280000000 1.0
C      1  0.6080800000000  0.5433730000000  0.4972490000000 1.0
C      1  0.5805120000000  0.4443900000000  0.4634860000000 1.0
C      1  0.4273400000000  0.4934720000000  0.5894030000000 1.0
C      1  0.4165820000000  0.4550590000000  0.5499150000000 1.0
C      1  0.4911350000000  0.4809260000000  0.3993460000000 1.0
C      1  0.4952310000000  0.4038430000000  0.4594390000000 1.0
C      1  0.5657720000000  0.4307500000000  0.4906930000000 1.0
C      1  0.4467050000000  0.5715310000000  0.5381840000000 1.0
C      1  0.4486050000000  0.5048680000000  0.5287190000000 1.0
C      1  0.4609640000000  0.4917880000000  0.5941820000000 1.0
C      1  0.5606540000000  0.4687700000000  0.5148510000000 1.0
C      1  0.4830970000000  0.5893890000000  0.4370050000000 1.0
C      1  0.4606160000000  0.5658210000000  0.5014020000000 1.0
C      1  0.4551300000000  0.5409590000000  0.5504620000000 1.0
C      1  0.6005000000000  0.4680660000000  0.5172450000000 1.0
C      1  0.4248840000000  0.4409800000000  0.4932740000000 1.0
C      1  0.4538180000000  0.5222500000000  0.5799440000000 1.0
C      1  0.5069440000000  0.5328340000000  0.4916630000000 1.0
C      1  0.5182240000000  0.4571760000000  0.5837560000000 1.0
C      1  0.4492120000000  0.5498970000000  0.4184940000000 1.0
C      1  0.4418520000000  0.4410160000000  0.5605950000000 1.0
C      1  0.4454160000000  0.4172780000000  0.5428410000000 1.0
C      1  0.5749650000000  0.5510910000000  0.4972220000000 1.0
C      1  0.5772660000000  0.5078750000000  0.5132220000000 1.0
C      1  0.4929190000000  0.4756260000000  0.5705140000000 1.0
C      1  0.4863640000000  0.4808290000000  0.5173850000000 1.0
C      1  0.5342950000000  0.5463790000000  0.5462340000000 1.0
C      1  0.4155510000000  0.4717890000000  0.4255910000000 1.0
C      1  0.5521660000000  0.4788730000000  0.4024070000000 1.0
C      1  0.5234880000000  0.4794210000000  0.3918930000000 1.0
C      1  0.4230940000000  0.5221000000000  0.4820520000000 1.0
C      1  0.5455720000000  0.4985580000000  0.5213250000000 1.0
C      1  0.4884150000000  0.4545920000000  0.5371000000000 1.0
C      1  0.4229460000000  0.5492500000000  0.4361740000000 1.0
C      1  0.4839530000000  0.4301280000000  0.5602900000000 1.0
C      1  0.4700240000000  0.5846430000000  0.5591690000000 1.0
C      1  0.5669040000000  0.5418550000000  0.5686380000000 1.0
C      1  0.5670900000000  0.5209550000000  0.4835490000000 1.0
C      1  0.4107580000000  0.4540140000000  0.4690900000000 1.0
C      1  0.5412900000000  0.4962040000000  0.5974330000000 1.0
C      1  0.5391540000000  0.4390680000000  0.5649640000000 1.0
C      1  0.3987420000000  0.5034590000000  0.4663200000000 1.0
C      1  0.5668440000000  0.4586780000000  0.5623090000000 1.0
C      1  0.5152650000000  0.5513780000000  0.5184970000000 1.0
C      1  0.5738110000000  0.4583540000000  0.4378120000000 1.0
C      1  0.5160560000000  0.4674970000000  0.5453030000000 1.0
C      1  0.4088640000000  0.5421540000000  0.5039180000000 1.0
C      1  0.5282290000000  0.5439780000000  0.5779860000000 1.0
C      1  0.5177480000000  0.4604960000000  0.5032320000000 1.0
C      1  0.5350760000000  0.4523290000000  0.5275450000000 1.0
C      1  0.4820080000000  0.5863440000000  0.4961960000000 1.0
C      1  0.5606340000000  0.4908970000000  0.4690290000000 1.0
C      1  0.5212890000000  0.4240660000000  0.4602740000000 1.0
C      1  0.5822250000000  0.5126930000000  0.5602200000000 1.0
C      1  0.5504760000000  0.5596160000000  0.4170990000000 1.0
C      1  0.5141400000000  0.4194860000000  0.5717610000000 1.0
C      1  0.4900910000000  0.5033240000000  0.4927380000000 1.0
C      1  0.5215500000000  0.4915280000000  0.4979890000000 1.0
C      1  0.5900120000000  0.5451300000000  0.5449740000000 1.0
C      1  0.4769450000000  0.4887740000000  0.4648870000000 1.0
C      1  0.5155960000000  0.3851880000000  0.4980730000000 1.0
C      1  0.5678340000000  0.4226290000000  0.5202620000000 1.0
C      1  0.5626330000000  0.5013290000000  0.4199410000000 1.0
C      1  0.5986740000000  0.5089240000000  0.4795880000000 1.0
C      1  0.4656480000000  0.5167830000000  0.4490280000000 1.0
C      1  0.4665450000000  0.5436980000000  0.5997490000000 1.0
C      1  0.4383030000000  0.4144270000000  0.5099810000000 1.0
C      1  0.4089540000000  0.5004070000000  0.5303810000000 1.0
C      1  0.4239310000000  0.5654970000000  0.5172550000000 1.0
C      1  0.4259350000000  0.5277450000000  0.5396850000000 1.0
C      1  0.3918330000000  0.5263400000000  0.5192910000000 1.0
C      1  0.5425210000000  0.5925750000000  0.5083830000000 1.0
C      1  0.4891650000000  0.4287620000000  0.5051150000000 1.0
C      1  0.4230510000000  0.4931620000000  0.5002590000000 1.0
C      1  0.4948650000000  0.5676280000000  0.5658720000000 1.0
C      1  0.5549660000000  0.5313080000000  0.4296640000000 1.0
C      1  0.4549850000000  0.4333250000000  0.4793940000000 1.0
C      1  0.4945460000000  0.5432590000000  0.5442170000000 1.0
C      1  0.3924890000000  0.4483550000000  0.5277740000000 1.0
C      1  0.6018800000000  0.4839530000000  0.4918080000000 1.0
C      1  0.5760320000000  0.5685850000000  0.5263680000000 1.0
C      1  0.5507780000000  0.5858820000000  0.4698380000000 1.0
C      1  0.4715830000000  0.5930520000000  0.5278620000000 1.0
C      1  0.5341690000000  0.5276670000000  0.4782790000000 1.0
C      1  0.5133010000000  0.5475360000000  0.6070030000000 1.0
C      1  0.4427470000000  0.4975070000000  0.5594110000000 1.0
C      1  0.4095730000000  0.5026890000000  0.4340940000000 1.0
C      1  0.4988330000000  0.4677480000000  0.4584920000000 1.0
C      1  0.4774240000000  0.5505800000000  0.4014060000000 1.0
C      1  0.4536440000000  0.5359050000000  0.4761700000000 1.0
C      1  0.5750320000000  0.4688800000000  0.4865120000000 1.0
C      1  0.5418630000000  0.5605820000000  0.4994080000000 1.0
C      1  0.4598370000000  0.4406790000000  0.5119090000000 1.0
C      1  0.4912880000000  0.5048730000000  0.5860710000000 1.0
END
