TITL C-3289320-4661-431 -0.00113526655387969 125000 -1081.60879968614 0 0 189 (C1) n - 1
REM
REM in /nfs/bkarasulu/CARBON/AIRSS/Generating-Clusters/AIREBO/with-SteepDescent/Higher-Symm/SD-CG/HFTN-CG
REM
REM
REM
REM
REM
REM ./C.cell (b20cbc046b6831c77cfcea5457e17084)
REM
REM compiler GCC version 9.2.1 20190827 (Red Hat 9.2.1-1)
REM options -cpp -mtune=generic -march=x86-64 -g -O0 -fpre-include=/usr/include/finclude/math-vector-fortran.h
REM seed -1548978801 729189139 -533962493 487464483 -1825597934 -917903499 -308178956 -215447806 -346883210 1618830444 1391113869 530031544 -1861089206 1388499354 641034060 766780381 -63303776 1878969146 518828091 -1611491701 1194183448 -974066890 -676132023 853338507 1882443036 281850200 -130629790 -1060940552 -1280712603 680264731 1579227534 1497686740 -1889939858
REM
CELL 1.54180   50.00000   50.00000   50.00000   90.00000   90.00000   90.00000
LATT -1
SFAC C  
C      1  0.4539980000000  0.4698720000000  0.5075410000000 1.0
C      1  0.5049070000000  0.5585730000000  0.5108210000000 1.0
C      1  0.5603450000000  0.4642300000000  0.5056110000000 1.0
C      1  0.4532000000000  0.5252580000000  0.4945980000000 1.0
C      1  0.5054350000000  0.4460300000000  0.4911900000000 1.0
C      1  0.5446990000000  0.5221310000000  0.4880620000000 1.0
C      1  0.5826040000000  0.4177980000000  0.4927890000000 1.0
C      1  0.3877470000000  0.4683600000000  0.4965900000000 1.0
C      1  0.5256940000000  0.6036910000000  0.4973110000000 1.0
C      1  0.5767390000000  0.5791940000000  0.5060080000000 1.0
C      1  0.3898000000000  0.5273260000000  0.5075050000000 1.0
C      1  0.5286430000000  0.3889860000000  0.4995360000000 1.0
C      1  0.5231080000000  0.4843720000000  0.3943060000000 1.0
C      1  0.4735090000000  0.4838500000000  0.3953000000000 1.0
C      1  0.4997660000000  0.5260860000000  0.3858820000000 1.0
C      1  0.5093940000000  0.5266160000000  0.6136240000000 1.0
C      1  0.4692650000000  0.5009800000000  0.6108920000000 1.0
C      1  0.5107590000000  0.4811140000000  0.6182570000000 1.0
C      1  0.5379940000000  0.5946830000000  0.4672910000000 1.0
C      1  0.5665900000000  0.4178090000000  0.4634560000000 1.0
C      1  0.3930070000000  0.4845200000000  0.4698670000000 1.0
C      1  0.5412770000000  0.4007940000000  0.5288620000000 1.0
C      1  0.5668790000000  0.5866490000000  0.5341730000000 1.0
C      1  0.3889210000000  0.5083090000000  0.5288740000000 1.0
C      1  0.5074520000000  0.4456330000000  0.4211310000000 1.0
C      1  0.4526440000000  0.5209450000000  0.4185680000000 1.0
C      1  0.5348150000000  0.5421510000000  0.4201900000000 1.0
C      1  0.5166250000000  0.5517870000000  0.5794990000000 1.0
C      1  0.4460920000000  0.4940480000000  0.5831760000000 1.0
C      1  0.5348290000000  0.4590200000000  0.5829630000000 1.0
C      1  0.5502530000000  0.5566360000000  0.5781240000000 1.0
C      1  0.5249530000000  0.4325270000000  0.5743990000000 1.0
C      1  0.4254660000000  0.5150630000000  0.5785270000000 1.0
C      1  0.5414900000000  0.4445250000000  0.4190970000000 1.0
C      1  0.5262890000000  0.5723930000000  0.4191240000000 1.0
C      1  0.4277510000000  0.4987730000000  0.4170460000000 1.0
C      1  0.4654280000000  0.5777590000000  0.5746130000000 1.0
C      1  0.5777590000000  0.4898350000000  0.5699420000000 1.0
C      1  0.4540450000000  0.4265800000000  0.5805060000000 1.0
C      1  0.4745370000000  0.4368550000000  0.4180610000000 1.0
C      1  0.5819500000000  0.5086670000000  0.4229540000000 1.0
C      1  0.4562460000000  0.5542160000000  0.4122950000000 1.0
C      1  0.4290560000000  0.4307730000000  0.5412300000000 1.0
C      1  0.4623000000000  0.6110210000000  0.5394530000000 1.0
C      1  0.6129130000000  0.4715130000000  0.5418410000000 1.0
C      1  0.4141100000000  0.5721750000000  0.4530670000000 1.0
C      1  0.4837920000000  0.4037660000000  0.4510240000000 1.0
C      1  0.6135230000000  0.5241090000000  0.4568320000000 1.0
C      1  0.4631950000000  0.4187400000000  0.4376010000000 1.0
C      1  0.4418570000000  0.5727040000000  0.4363110000000 1.0
C      1  0.6061260000000  0.5031940000000  0.4383850000000 1.0
C      1  0.4486310000000  0.5931550000000  0.5568760000000 1.0
C      1  0.4449620000000  0.4138710000000  0.5568920000000 1.0
C      1  0.6017680000000  0.4943300000000  0.5548080000000 1.0
C      1  0.4194770000000  0.4631760000000  0.4706060000000 1.0
C      1  0.5046550000000  0.5899410000000  0.4670550000000 1.0
C      1  0.5825220000000  0.4464930000000  0.4654610000000 1.0
C      1  0.4225300000000  0.5344560000000  0.5289920000000 1.0
C      1  0.5076020000000  0.4058140000000  0.5284310000000 1.0
C      1  0.5721750000000  0.5430890000000  0.5230980000000 1.0
C      1  0.5119320000000  0.4841120000000  0.5848710000000 1.0
C      1  0.4798780000000  0.4940690000000  0.5793230000000 1.0
C      1  0.5139780000000  0.5180170000000  0.5829710000000 1.0
C      1  0.5074480000000  0.5220330000000  0.4176720000000 1.0
C      1  0.4805820000000  0.5019050000000  0.4232500000000 1.0
C      1  0.5062000000000  0.4795300000000  0.4227480000000 1.0
C      1  0.4531800000000  0.4746090000000  0.5561960000000 1.0
C      1  0.4964810000000  0.5759050000000  0.5661740000000 1.0
C      1  0.5631580000000  0.4622100000000  0.5673750000000 1.0
C      1  0.4344240000000  0.5398560000000  0.4411200000000 1.0
C      1  0.4940700000000  0.4423570000000  0.4522210000000 1.0
C      1  0.5642340000000  0.5321270000000  0.4341760000000 1.0
C      1  0.4820230000000  0.5272920000000  0.6190610000000 1.0
C      1  0.5231950000000  0.5054980000000  0.6285440000000 1.0
C      1  0.4837680000000  0.4781920000000  0.6256000000000 1.0
C      1  0.4996910000000  0.4697960000000  0.3845330000000 1.0
C      1  0.5256000000000  0.5105610000000  0.3839470000000 1.0
C      1  0.4767390000000  0.5122480000000  0.3791210000000 1.0
C      1  0.4638910000000  0.3933030000000  0.5157840000000 1.0
C      1  0.4224000000000  0.5819500000000  0.5162540000000 1.0
C      1  0.6064660000000  0.5208360000000  0.5117010000000 1.0
C      1  0.4617990000000  0.5981050000000  0.4797580000000 1.0
C      1  0.4283780000000  0.4181120000000  0.4807690000000 1.0
C      1  0.6115230000000  0.4746070000000  0.4786540000000 1.0
C      1  0.4810390000000  0.6000760000000  0.5232440000000 1.0
C      1  0.5953870000000  0.4596090000000  0.5239420000000 1.0
C      1  0.4148470000000  0.4713990000000  0.5139130000000 1.0
C      1  0.4807780000000  0.4008040000000  0.4805300000000 1.0
C      1  0.5947060000000  0.5338120000000  0.4741000000000 1.0
C      1  0.4183570000000  0.5577950000000  0.4767810000000 1.0
C      1  0.4703260000000  0.5010530000000  0.4556640000000 1.0
C      1  0.5163370000000  0.5157440000000  0.4514230000000 1.0
C      1  0.5176490000000  0.4819070000000  0.4546770000000 1.0
C      1  0.4769750000000  0.5054660000000  0.5474050000000 1.0
C      1  0.5128940000000  0.4729480000000  0.5527640000000 1.0
C      1  0.5066300000000  0.5219780000000  0.5500020000000 1.0
C      1  0.5351140000000  0.4491380000000  0.5076420000000 1.0
C      1  0.4262980000000  0.5033680000000  0.5156280000000 1.0
C      1  0.5434370000000  0.5571280000000  0.5212020000000 1.0
C      1  0.5297230000000  0.5498480000000  0.4925680000000 1.0
C      1  0.4282010000000  0.5104200000000  0.4835090000000 1.0
C      1  0.5327630000000  0.4338980000000  0.4773380000000 1.0
C      1  0.5722570000000  0.4306140000000  0.5633680000000 1.0
C      1  0.3986340000000  0.4861360000000  0.5728030000000 1.0
C      1  0.5206120000000  0.5982340000000  0.5661020000000 1.0
C      1  0.5657590000000  0.5645230000000  0.4319230000000 1.0
C      1  0.4091180000000  0.5256690000000  0.4399040000000 1.0
C      1  0.5118880000000  0.4143070000000  0.4455460000000 1.0
C      1  0.5431350000000  0.4233510000000  0.5504650000000 1.0
C      1  0.4098190000000  0.5043600000000  0.5518270000000 1.0
C      1  0.5427160000000  0.5781860000000  0.5550600000000 1.0
C      1  0.5385310000000  0.5704100000000  0.4482060000000 1.0
C      1  0.4107020000000  0.4926020000000  0.4451740000000 1.0
C      1  0.5419950000000  0.4202060000000  0.4411110000000 1.0
C      1  0.5399720000000  0.5903690000000  0.5170720000000 1.0
C      1  0.5700350000000  0.4016150000000  0.5116820000000 1.0
C      1  0.3767960000000  0.4844470000000  0.5204260000000 1.0
C      1  0.5394530000000  0.4035670000000  0.4772740000000 1.0
C      1  0.5655120000000  0.5940420000000  0.4857670000000 1.0
C      1  0.3972590000000  0.5135110000000  0.4833740000000 1.0
C      1  0.4500620000000  0.4519610000000  0.4804790000000 1.0
C      1  0.4941240000000  0.5649030000000  0.4826790000000 1.0
C      1  0.5701810000000  0.4713540000000  0.4811070000000 1.0
C      1  0.4516270000000  0.5348720000000  0.5209340000000 1.0
C      1  0.4970670000000  0.4327050000000  0.5204430000000 1.0
C      1  0.5576830000000  0.5167140000000  0.5141540000000 1.0
C      1  0.5265010000000  0.5494230000000  0.5469140000000 1.0
C      1  0.5295240000000  0.4486600000000  0.5374930000000 1.0
C      1  0.4430920000000  0.5038450000000  0.5445970000000 1.0
C      1  0.5327650000000  0.4516400000000  0.4511790000000 1.0
C      1  0.5268510000000  0.5461690000000  0.4618910000000 1.0
C      1  0.4398290000000  0.5032080000000  0.4560720000000 1.0
C      1  0.4891480000000  0.5940000000000  0.4416200000000 1.0
C      1  0.5917020000000  0.4544800000000  0.4368330000000 1.0
C      1  0.4249160000000  0.4505150000000  0.4427030000000 1.0
C      1  0.4925420000000  0.4011440000000  0.5543310000000 1.0
C      1  0.5864530000000  0.5405520000000  0.5505090000000 1.0
C      1  0.4184870000000  0.5537350000000  0.5532940000000 1.0
C      1  0.4783570000000  0.4328540000000  0.4778820000000 1.0
C      1  0.4460040000000  0.5438580000000  0.4706910000000 1.0
C      1  0.5673110000000  0.5246880000000  0.4657790000000 1.0
C      1  0.4904260000000  0.5734260000000  0.5340900000000 1.0
C      1  0.4377630000000  0.4592450000000  0.5331560000000 1.0
C      1  0.5665680000000  0.4702020000000  0.5358870000000 1.0
C      1  0.4917080000000  0.6058540000000  0.4941700000000 1.0
C      1  0.5989360000000  0.4476710000000  0.4952290000000 1.0
C      1  0.4145570000000  0.4425920000000  0.4957980000000 1.0
C      1  0.4951390000000  0.3860030000000  0.5045280000000 1.0
C      1  0.5945160000000  0.5507190000000  0.5006070000000 1.0
C      1  0.4084920000000  0.5546340000000  0.5061210000000 1.0
C      1  0.5024040000000  0.5270020000000  0.5168330000000 1.0
C      1  0.5164170000000  0.4821280000000  0.5201970000000 1.0
C      1  0.4770400000000  0.4937060000000  0.5151770000000 1.0
C      1  0.5081620000000  0.4797070000000  0.4872820000000 1.0
C      1  0.5147810000000  0.5128300000000  0.4912050000000 1.0
C      1  0.4812910000000  0.5116290000000  0.4863660000000 1.0
C      1  0.4841590000000  0.5544990000000  0.4191400000000 1.0
C      1  0.5631870000000  0.4869360000000  0.4215570000000 1.0
C      1  0.4631120000000  0.4661820000000  0.4192870000000 1.0
C      1  0.4789110000000  0.4391390000000  0.5769180000000 1.0
C      1  0.5586770000000  0.5107810000000  0.5707170000000 1.0
C      1  0.4563290000000  0.5512550000000  0.5789280000000 1.0
C      1  0.4891260000000  0.4629860000000  0.5233790000000 1.0
C      1  0.4767460000000  0.5428750000000  0.5335670000000 1.0
C      1  0.5453520000000  0.4930630000000  0.5283520000000 1.0
C      1  0.4796370000000  0.5423620000000  0.4704110000000 1.0
C      1  0.4764490000000  0.4723010000000  0.4817090000000 1.0
C      1  0.5625830000000  0.4935630000000  0.4671650000000 1.0
C      1  0.4621980000000  0.5927950000000  0.4513430000000 1.0
C      1  0.6087840000000  0.4761670000000  0.4495810000000 1.0
C      1  0.4360160000000  0.4241670000000  0.4502610000000 1.0
C      1  0.4648890000000  0.3980270000000  0.5440960000000 1.0
C      1  0.6036420000000  0.5190350000000  0.5403000000000 1.0
C      1  0.4260660000000  0.5799740000000  0.5446530000000 1.0
C      1  0.4291890000000  0.5431320000000  0.5772220000000 1.0
C      1  0.5686710000000  0.5369820000000  0.5718150000000 1.0
C      1  0.4996790000000  0.4209930000000  0.5738540000000 1.0
C      1  0.4339710000000  0.4686700000000  0.4232580000000 1.0
C      1  0.5703670000000  0.4596730000000  0.4182890000000 1.0
C      1  0.4986590000000  0.5780750000000  0.4202710000000 1.0
C      1  0.4768620000000  0.4695070000000  0.4478240000000 1.0
C      1  0.4904350000000  0.5361270000000  0.4435280000000 1.0
C      1  0.5474350000000  0.4885160000000  0.4446140000000 1.0
C      1  0.4707760000000  0.5346500000000  0.5630940000000 1.0
C      1  0.4808000000000  0.4616900000000  0.5563200000000 1.0
C      1  0.5372370000000  0.5074220000000  0.5528290000000 1.0
C      1  0.4420760000000  0.3989760000000  0.4980580000000 1.0
C      1  0.4399000000000  0.5949610000000  0.4977920000000 1.0
C      1  0.6148660000000  0.4991590000000  0.4946570000000 1.0
END
