TITL C-3289330-4660-357 0.00691012791395823 125000 -1057.88818301707 0 0 188 (C1) n - 1
REM
REM in /nfs/bkarasulu/CARBON/AIRSS/Generating-Clusters/AIREBO/with-SteepDescent/Higher-Symm/SD-CG/HFTN-CG
REM
REM
REM
REM
REM
REM ./C.cell (b20cbc046b6831c77cfcea5457e17084)
REM
REM compiler GCC version 9.2.1 20190827 (Red Hat 9.2.1-1)
REM options -cpp -mtune=generic -march=x86-64 -g -O0 -fpre-include=/usr/include/finclude/math-vector-fortran.h
REM seed -1427397051 1824629354 1705734649 -1740118104 -1268070311 1073461062 -1607255121 -1693512837 -920963825 1930100525 -1117100774 -1985275268 1301936650 -69102475 -1352793173 41809799 -1954931564 345825153 2095906036 1135279548 -546449158 -1160800601 2078813052 -58594495 -230008107 765475776 -1284244144 1767436499 1167123980 -1538392104 811632854 -1838018362 -1966840770
REM
CELL 1.54180   50.00000   50.00000   50.00000   90.00000   90.00000   90.00000
LATT -1
SFAC C  
C      1  0.5949420000000  0.5399890000000  0.4821870000000 1.0
C      1  0.6031510000000  0.5287590000000  0.5405680000000 1.0
C      1  0.5935310000000  0.4640050000000  0.5544260000000 1.0
C      1  0.5946520000000  0.4482860000000  0.4838260000000 1.0
C      1  0.6070740000000  0.4963060000000  0.4498560000000 1.0
C      1  0.4078800000000  0.4541180000000  0.4825240000000 1.0
C      1  0.4113570000000  0.4586400000000  0.5556340000000 1.0
C      1  0.4029920000000  0.5223630000000  0.5310800000000 1.0
C      1  0.4042520000000  0.5514450000000  0.4745620000000 1.0
C      1  0.4044840000000  0.4949820000000  0.4432440000000 1.0
C      1  0.5845100000000  0.4914520000000  0.5645310000000 1.0
C      1  0.5982180000000  0.4256380000000  0.5063110000000 1.0
C      1  0.5931590000000  0.4745510000000  0.4401700000000 1.0
C      1  0.6034460000000  0.5428970000000  0.4523220000000 1.0
C      1  0.5988690000000  0.5551330000000  0.5302950000000 1.0
C      1  0.4133080000000  0.5098830000000  0.5801980000000 1.0
C      1  0.3914130000000  0.5616450000000  0.5043550000000 1.0
C      1  0.4111270000000  0.5233550000000  0.4312960000000 1.0
C      1  0.4012940000000  0.4455070000000  0.4515020000000 1.0
C      1  0.3967530000000  0.4410740000000  0.5387090000000 1.0
C      1  0.5649750000000  0.5819760000000  0.5611220000000 1.0
C      1  0.5407640000000  0.4707320000000  0.6029700000000 1.0
C      1  0.5614750000000  0.3835410000000  0.5198780000000 1.0
C      1  0.5441960000000  0.4650890000000  0.3969900000000 1.0
C      1  0.5442160000000  0.5795700000000  0.4435090000000 1.0
C      1  0.4664330000000  0.4206700000000  0.5542390000000 1.0
C      1  0.4470630000000  0.5313500000000  0.6098300000000 1.0
C      1  0.4416300000000  0.6129180000000  0.4838020000000 1.0
C      1  0.4452580000000  0.5375430000000  0.3910640000000 1.0
C      1  0.4541420000000  0.4115740000000  0.4421430000000 1.0
C      1  0.5553730000000  0.5341090000000  0.5305970000000 1.0
C      1  0.5541200000000  0.5001280000000  0.5307190000000 1.0
C      1  0.5693920000000  0.4655970000000  0.4961880000000 1.0
C      1  0.5578370000000  0.4890220000000  0.4744570000000 1.0
C      1  0.5664940000000  0.5213520000000  0.4819140000000 1.0
C      1  0.4348600000000  0.4657070000000  0.5187570000000 1.0
C      1  0.4347490000000  0.5129070000000  0.5392770000000 1.0
C      1  0.4333230000000  0.5442460000000  0.4906690000000 1.0
C      1  0.4295020000000  0.4988640000000  0.4644730000000 1.0
C      1  0.4362830000000  0.4712590000000  0.4750720000000 1.0
C      1  0.5542780000000  0.4910580000000  0.5715130000000 1.0
C      1  0.5649960000000  0.4329040000000  0.5057980000000 1.0
C      1  0.5597850000000  0.4768460000000  0.4444100000000 1.0
C      1  0.5598790000000  0.5365530000000  0.4524290000000 1.0
C      1  0.5678220000000  0.5622210000000  0.5264660000000 1.0
C      1  0.4451870000000  0.5110060000000  0.5715840000000 1.0
C      1  0.4399900000000  0.5676280000000  0.5116610000000 1.0
C      1  0.4436040000000  0.5159420000000  0.4381330000000 1.0
C      1  0.4474810000000  0.4556020000000  0.4471560000000 1.0
C      1  0.4536080000000  0.4389120000000  0.5211720000000 1.0
C      1  0.5765040000000  0.4402790000000  0.5719200000000 1.0
C      1  0.5532120000000  0.4129860000000  0.4561070000000 1.0
C      1  0.5695710000000  0.5293390000000  0.3941260000000 1.0
C      1  0.5680400000000  0.5971220000000  0.4702210000000 1.0
C      1  0.5834530000000  0.5358930000000  0.5854730000000 1.0
C      1  0.4365680000000  0.5623740000000  0.5636920000000 1.0
C      1  0.4243720000000  0.5720510000000  0.4564640000000 1.0
C      1  0.4329640000000  0.4810240000000  0.3905750000000 1.0
C      1  0.4320470000000  0.3982010000000  0.4774360000000 1.0
C      1  0.4298010000000  0.4538650000000  0.5768520000000 1.0
C      1  0.4964540000000  0.4893580000000  0.4414830000000 1.0
C      1  0.5094520000000  0.5485320000000  0.4700390000000 1.0
C      1  0.5073200000000  0.5570160000000  0.5253380000000 1.0
C      1  0.5232680000000  0.4857560000000  0.5616730000000 1.0
C      1  0.5132510000000  0.4460510000000  0.5091530000000 1.0
C      1  0.4775200000000  0.5176200000000  0.4402420000000 1.0
C      1  0.4827220000000  0.4474690000000  0.4641660000000 1.0
C      1  0.4808310000000  0.4539460000000  0.5353720000000 1.0
C      1  0.4861240000000  0.5175190000000  0.5569120000000 1.0
C      1  0.4680880000000  0.5689290000000  0.5193410000000 1.0
C      1  0.5873680000000  0.4498710000000  0.4548350000000 1.0
C      1  0.5971730000000  0.5203990000000  0.4384190000000 1.0
C      1  0.6111420000000  0.5613440000000  0.5031350000000 1.0
C      1  0.5951480000000  0.5181110000000  0.5658680000000 1.0
C      1  0.5930470000000  0.4369450000000  0.5338440000000 1.0
C      1  0.3985810000000  0.5453550000000  0.4415900000000 1.0
C      1  0.4054310000000  0.4656600000000  0.4327730000000 1.0
C      1  0.4011590000000  0.4375660000000  0.5125800000000 1.0
C      1  0.4002490000000  0.5025550000000  0.5565320000000 1.0
C      1  0.4007240000000  0.5517530000000  0.5286450000000 1.0
C      1  0.5303440000000  0.5057570000000  0.4759860000000 1.0
C      1  0.5446040000000  0.5328060000000  0.5017140000000 1.0
C      1  0.5208800000000  0.5157390000000  0.5150240000000 1.0
C      1  0.5287640000000  0.4838650000000  0.5185070000000 1.0
C      1  0.5165190000000  0.4709740000000  0.4891380000000 1.0
C      1  0.4749300000000  0.4977100000000  0.4835360000000 1.0
C      1  0.4613770000000  0.4704710000000  0.4980030000000 1.0
C      1  0.4712670000000  0.4854980000000  0.5268620000000 1.0
C      1  0.4610380000000  0.5176430000000  0.5215950000000 1.0
C      1  0.4589140000000  0.5249400000000  0.4906590000000 1.0
C      1  0.4459500000000  0.5465360000000  0.4527940000000 1.0
C      1  0.4243380000000  0.5633970000000  0.5377440000000 1.0
C      1  0.4206870000000  0.4831240000000  0.5380130000000 1.0
C      1  0.4308200000000  0.4332690000000  0.4965210000000 1.0
C      1  0.4347480000000  0.4771410000000  0.4243060000000 1.0
C      1  0.5579120000000  0.4436420000000  0.4496990000000 1.0
C      1  0.5621050000000  0.4483160000000  0.5357960000000 1.0
C      1  0.5488510000000  0.5198410000000  0.5581190000000 1.0
C      1  0.5776810000000  0.5666910000000  0.4942670000000 1.0
C      1  0.5666660000000  0.5191990000000  0.4266740000000 1.0
C      1  0.5401160000000  0.4480910000000  0.5549500000000 1.0
C      1  0.5249710000000  0.4404070000000  0.4499290000000 1.0
C      1  0.5362160000000  0.5163980000000  0.4117820000000 1.0
C      1  0.5330940000000  0.5865280000000  0.5043110000000 1.0
C      1  0.5438620000000  0.5386960000000  0.5819660000000 1.0
C      1  0.4773820000000  0.5644170000000  0.5626270000000 1.0
C      1  0.4676910000000  0.5655880000000  0.4709250000000 1.0
C      1  0.4647990000000  0.4880610000000  0.4123420000000 1.0
C      1  0.4760760000000  0.4129650000000  0.4995570000000 1.0
C      1  0.4727230000000  0.4631900000000  0.5734350000000 1.0
C      1  0.5123420000000  0.5087620000000  0.5451060000000 1.0
C      1  0.5136160000000  0.4622680000000  0.5390420000000 1.0
C      1  0.5098370000000  0.4645510000000  0.4605620000000 1.0
C      1  0.5316250000000  0.5289680000000  0.4641120000000 1.0
C      1  0.5222890000000  0.5548580000000  0.4980700000000 1.0
C      1  0.4682360000000  0.4894500000000  0.5589160000000 1.0
C      1  0.4785960000000  0.5426610000000  0.5365170000000 1.0
C      1  0.4807910000000  0.5343610000000  0.4676910000000 1.0
C      1  0.4718950000000  0.4767210000000  0.4578920000000 1.0
C      1  0.4830630000000  0.4442020000000  0.4949610000000 1.0
C      1  0.4853890000000  0.5908540000000  0.5179860000000 1.0
C      1  0.4891790000000  0.5285130000000  0.5864390000000 1.0
C      1  0.4976790000000  0.4264030000000  0.5462170000000 1.0
C      1  0.4815180000000  0.4248050000000  0.4417270000000 1.0
C      1  0.4859260000000  0.5411190000000  0.4170620000000 1.0
C      1  0.5266430000000  0.4179460000000  0.5013370000000 1.0
C      1  0.5118990000000  0.4813250000000  0.5934660000000 1.0
C      1  0.5167160000000  0.5834860000000  0.5417160000000 1.0
C      1  0.5123380000000  0.5735220000000  0.4507950000000 1.0
C      1  0.5111830000000  0.4682230000000  0.4192630000000 1.0
C      1  0.4921100000000  0.5843900000000  0.4715860000000 1.0
C      1  0.5078080000000  0.5637300000000  0.5647580000000 1.0
C      1  0.4973620000000  0.4571200000000  0.5834690000000 1.0
C      1  0.5031030000000  0.4095430000000  0.4843290000000 1.0
C      1  0.4914160000000  0.4898900000000  0.4020530000000 1.0
C      1  0.5067980000000  0.4164420000000  0.4571940000000 1.0
C      1  0.5127060000000  0.4378380000000  0.5705880000000 1.0
C      1  0.5152900000000  0.5456690000000  0.5830170000000 1.0
C      1  0.5027650000000  0.5909530000000  0.4967070000000 1.0
C      1  0.5042260000000  0.5156760000000  0.4058630000000 1.0
C      1  0.4490540000000  0.3935680000000  0.4981840000000 1.0
C      1  0.4446240000000  0.4538850000000  0.3934370000000 1.0
C      1  0.4433330000000  0.5676950000000  0.4281630000000 1.0
C      1  0.4445700000000  0.5889680000000  0.5724360000000 1.0
C      1  0.4359090000000  0.4742960000000  0.5968400000000 1.0
C      1  0.5510230000000  0.6050620000000  0.4869870000000 1.0
C      1  0.5469710000000  0.5465590000000  0.4053260000000 1.0
C      1  0.5440590000000  0.4127400000000  0.4284280000000 1.0
C      1  0.5696370000000  0.4163780000000  0.5584850000000 1.0
C      1  0.5644810000000  0.5233990000000  0.6059810000000 1.0
C      1  0.6027070000000  0.5097580000000  0.5199120000000 1.0
C      1  0.6097730000000  0.4712100000000  0.5253790000000 1.0
C      1  0.6133810000000  0.4707780000000  0.4941240000000 1.0
C      1  0.6149990000000  0.4940940000000  0.4780720000000 1.0
C      1  0.6113290000000  0.5161880000000  0.4944240000000 1.0
C      1  0.3741020000000  0.4836000000000  0.5108260000000 1.0
C      1  0.3936940000000  0.5099390000000  0.5055100000000 1.0
C      1  0.3828070000000  0.5253200000000  0.4781860000000 1.0
C      1  0.3858100000000  0.4975540000000  0.4672410000000 1.0
C      1  0.3853630000000  0.4766220000000  0.4851290000000 1.0
C      1  0.5536240000000  0.4976740000000  0.6040220000000 1.0
C      1  0.5547110000000  0.4098730000000  0.5286330000000 1.0
C      1  0.5325730000000  0.4418450000000  0.4173830000000 1.0
C      1  0.5343180000000  0.5668920000000  0.4181760000000 1.0
C      1  0.5471000000000  0.5855230000000  0.5346200000000 1.0
C      1  0.4575450000000  0.5001350000000  0.6013420000000 1.0
C      1  0.4716770000000  0.5953440000000  0.5633360000000 1.0
C      1  0.4590850000000  0.5546650000000  0.4072650000000 1.0
C      1  0.4596780000000  0.4469030000000  0.4166240000000 1.0
C      1  0.4575870000000  0.4068920000000  0.5270690000000 1.0
C      1  0.5524120000000  0.4527430000000  0.5857250000000 1.0
C      1  0.5516210000000  0.4108520000000  0.4836410000000 1.0
C      1  0.5413450000000  0.4855170000000  0.4209030000000 1.0
C      1  0.5661430000000  0.5654950000000  0.4623040000000 1.0
C      1  0.5680940000000  0.5611860000000  0.5772480000000 1.0
C      1  0.4585730000000  0.5413820000000  0.5789600000000 1.0
C      1  0.4409390000000  0.5825580000000  0.4823650000000 1.0
C      1  0.4417880000000  0.5107370000000  0.4045660000000 1.0
C      1  0.4355290000000  0.4280760000000  0.4632390000000 1.0
C      1  0.4546490000000  0.4415700000000  0.5685010000000 1.0
C      1  0.5215890000000  0.4125630000000  0.5328750000000 1.0
C      1  0.4907100000000  0.6039750000000  0.5440350000000 1.0
C      1  0.4886350000000  0.4429160000000  0.4165270000000 1.0
C      1  0.5049250000000  0.5640590000000  0.4208720000000 1.0
C      1  0.4900780000000  0.5009890000000  0.6026610000000 1.0
C      1  0.4202470000000  0.5154150000000  0.4874250000000 1.0
C      1  0.5797920000000  0.4866030000000  0.5208300000000 1.0
C      1  0.5032560000000  0.4998570000000  0.4923770000000 1.0
END
