TITL C-3289324-3781-503 0.0167016920571021 125000 -119.906677823064 0 0 22 (Cs) n - 1
REM
REM in /nfs/bkarasulu/CARBON/AIRSS/Generating-Clusters/AIREBO/with-SteepDescent/Higher-Symm/SD-CG/HFTN-CG
REM
REM
REM
REM
REM
REM ./C.cell (b20cbc046b6831c77cfcea5457e17084)
REM
REM compiler GCC version 9.2.1 20190827 (Red Hat 9.2.1-1)
REM options -cpp -mtune=generic -march=x86-64 -g -O0 -fpre-include=/usr/include/finclude/math-vector-fortran.h
REM seed 952405804 1327978950 777572444 862636931 -1622758203 1258776766 1916118693 999010101 -552192088 719533562 -307649099 -2078642713 1977622349 1951208473 2025046701 982425126 -322431237 1117049083 1211427783 -1400391507 -1317785937 1675035256 132131666 -1221850386 -1614674485 -2076478692 1670974667 -449492958 814611399 355665185 1401744685 915762404 -1308882681
REM
CELL 1.54180   50.00000   50.00000   50.00000   90.00000   90.00000   90.00000
LATT -1
SFAC C  
C      1  0.4899980000000  0.4968900000000  0.4607510000000 1.0
C      1  0.5160200000000  0.5072920000000  0.4551440000000 1.0
C      1  0.5384230000000  0.4960180000000  0.4687460000000 1.0
C      1  0.5413760000000  0.5009250000000  0.4967400000000 1.0
C      1  0.5248950000000  0.4869210000000  0.5149570000000 1.0
C      1  0.5134240000000  0.5009590000000  0.5366590000000 1.0
C      1  0.4861050000000  0.4960820000000  0.5434640000000 1.0
C      1  0.4656700000000  0.5073540000000  0.5270520000000 1.0
C      1  0.4620310000000  0.4969240000000  0.5006940000000 1.0
C      1  0.4735470000000  0.5110430000000  0.4789830000000 1.0
C      1  0.5207190000000  0.4596790000000  0.5120570000000 1.0
C      1  0.5280630000000  0.5185750000000  0.5509980000000 1.0
C      1  0.4797570000000  0.4817400000000  0.5654650000000 1.0
C      1  0.4500210000000  0.5273450000000  0.5362770000000 1.0
C      1  0.4483230000000  0.4739990000000  0.4967120000000 1.0
C      1  0.4688610000000  0.5381440000000  0.4756780000000 1.0
C      1  0.4815500000000  0.4739580000000  0.4492590000000 1.0
C      1  0.5193530000000  0.5272590000000  0.4372600000000 1.0
C      1  0.5569140000000  0.4816450000000  0.4552730000000 1.0
C      1  0.5598710000000  0.5185360000000  0.5055710000000 1.0
C      1  0.5147060000000  0.4345150000000  0.5078680000000 1.0
C      1  0.4665170000000  0.5641990000000  0.4740150000000 1.0
END
