TITL C-3289334-2237-614 -0.000349305506106136 125000 -1012.06111193449 0 0 190 (C1) n - 1
REM
REM in /nfs/bkarasulu/CARBON/AIRSS/Generating-Clusters/AIREBO/with-SteepDescent/Higher-Symm/SD-CG/HFTN-CG
REM
REM
REM
REM
REM
REM ./C.cell (b20cbc046b6831c77cfcea5457e17084)
REM
REM compiler GCC version 9.2.1 20190827 (Red Hat 9.2.1-1)
REM options -cpp -mtune=generic -march=x86-64 -g -O0 -fpre-include=/usr/include/finclude/math-vector-fortran.h
REM seed -1018930719 -1742626291 -906755681 -773549837 -913071330 1240872142 -2050730315 -1951470689 -890334445 -1999289262 -1295865421 -245147094 -1134468316 -7243770 2043521608 98074450 -2095352143 -1542533950 1230278389 1697873479 5048021 -1414137199 -615359958 -434646174 -245420520 1237762372 1336670920 1699799028 -1074493618 543457129 -1058892228 1629297647 -372676505
REM
CELL 1.54180   50.00000   50.00000   50.00000   90.00000   90.00000   90.00000
LATT -1
SFAC C  
C      1  0.4290630000000  0.4092390000000  0.4773930000000 1.0
C      1  0.4610370000000  0.5908810000000  0.4422960000000 1.0
C      1  0.5029340000000  0.4154120000000  0.4174000000000 1.0
C      1  0.5485760000000  0.5935430000000  0.4406050000000 1.0
C      1  0.5560590000000  0.4143390000000  0.4841640000000 1.0
C      1  0.5694950000000  0.5825900000000  0.5259740000000 1.0
C      1  0.5472870000000  0.4134710000000  0.5637650000000 1.0
C      1  0.4950340000000  0.5875520000000  0.5717480000000 1.0
C      1  0.4538370000000  0.4065310000000  0.5628600000000 1.0
C      1  0.4362150000000  0.5964190000000  0.5196160000000 1.0
C      1  0.5117420000000  0.5488990000000  0.5240790000000 1.0
C      1  0.4787240000000  0.4515960000000  0.5290610000000 1.0
C      1  0.4825830000000  0.5543360000000  0.5200760000000 1.0
C      1  0.4729050000000  0.4386340000000  0.4991560000000 1.0
C      1  0.4784100000000  0.5527130000000  0.4899280000000 1.0
C      1  0.4954600000000  0.4517700000000  0.4810990000000 1.0
C      1  0.5050510000000  0.5492690000000  0.4740790000000 1.0
C      1  0.5231970000000  0.4399980000000  0.4922100000000 1.0
C      1  0.5276000000000  0.5521000000000  0.4963530000000 1.0
C      1  0.5077500000000  0.4479110000000  0.5187040000000 1.0
C      1  0.4880280000000  0.4179050000000  0.5701760000000 1.0
C      1  0.4449190000000  0.5760150000000  0.5459360000000 1.0
C      1  0.4334100000000  0.4238650000000  0.5078050000000 1.0
C      1  0.4347320000000  0.5815430000000  0.4610800000000 1.0
C      1  0.4695130000000  0.4186010000000  0.4321880000000 1.0
C      1  0.5197690000000  0.5801510000000  0.4310600000000 1.0
C      1  0.5539900000000  0.4241780000000  0.4562420000000 1.0
C      1  0.5721410000000  0.5818840000000  0.4901170000000 1.0
C      1  0.5643370000000  0.4252890000000  0.5384050000000 1.0
C      1  0.5281930000000  0.5801070000000  0.5701170000000 1.0
C      1  0.5264920000000  0.5088630000000  0.4348470000000 1.0
C      1  0.5588160000000  0.5016650000000  0.4654130000000 1.0
C      1  0.5666220000000  0.5044600000000  0.5065190000000 1.0
C      1  0.5596210000000  0.4919280000000  0.5503130000000 1.0
C      1  0.5188330000000  0.4963760000000  0.5713500000000 1.0
C      1  0.4745640000000  0.4996730000000  0.5664860000000 1.0
C      1  0.4416880000000  0.5039230000000  0.5312700000000 1.0
C      1  0.4218230000000  0.4947140000000  0.4912540000000 1.0
C      1  0.4427890000000  0.5068070000000  0.4527420000000 1.0
C      1  0.4897950000000  0.4915830000000  0.4371930000000 1.0
C      1  0.4143060000000  0.4578200000000  0.6005790000000 1.0
C      1  0.3682080000000  0.5515390000000  0.4855700000000 1.0
C      1  0.3899090000000  0.4863020000000  0.4349440000000 1.0
C      1  0.4469580000000  0.5173200000000  0.3688090000000 1.0
C      1  0.5496870000000  0.4762270000000  0.3749670000000 1.0
C      1  0.6111160000000  0.5147550000000  0.4189270000000 1.0
C      1  0.6121500000000  0.4958270000000  0.4987380000000 1.0
C      1  0.5983630000000  0.5307130000000  0.5405750000000 1.0
C      1  0.5347850000000  0.4768140000000  0.6370750000000 1.0
C      1  0.4752230000000  0.5150670000000  0.6194640000000 1.0
C      1  0.5612270000000  0.5212950000000  0.5913270000000 1.0
C      1  0.4913740000000  0.4746800000000  0.6094110000000 1.0
C      1  0.4233180000000  0.5120630000000  0.5805570000000 1.0
C      1  0.3930370000000  0.4834610000000  0.5164090000000 1.0
C      1  0.4047880000000  0.5269080000000  0.4551240000000 1.0
C      1  0.4347710000000  0.4738290000000  0.4185060000000 1.0
C      1  0.5089770000000  0.5340750000000  0.3987710000000 1.0
C      1  0.5663690000000  0.4698700000000  0.4212520000000 1.0
C      1  0.5984520000000  0.5310680000000  0.4653040000000 1.0
C      1  0.6078040000000  0.4784630000000  0.5434670000000 1.0
C      1  0.5037630000000  0.5536220000000  0.5535060000000 1.0
C      1  0.4736370000000  0.4214190000000  0.5395680000000 1.0
C      1  0.4495830000000  0.5596200000000  0.5165050000000 1.0
C      1  0.4468530000000  0.4437210000000  0.4834330000000 1.0
C      1  0.4669520000000  0.5597710000000  0.4527530000000 1.0
C      1  0.4972450000000  0.4325920000000  0.4461840000000 1.0
C      1  0.5310810000000  0.5620820000000  0.4577970000000 1.0
C      1  0.5494710000000  0.4528400000000  0.4921130000000 1.0
C      1  0.5507230000000  0.5557640000000  0.5190600000000 1.0
C      1  0.5311550000000  0.4474630000000  0.5509610000000 1.0
C      1  0.4899800000000  0.5211560000000  0.4687850000000 1.0
C      1  0.5059910000000  0.4923160000000  0.4759940000000 1.0
C      1  0.5256560000000  0.5178150000000  0.4869160000000 1.0
C      1  0.5158590000000  0.4774530000000  0.5039520000000 1.0
C      1  0.5214590000000  0.5194630000000  0.5179460000000 1.0
C      1  0.4912360000000  0.4832180000000  0.5266820000000 1.0
C      1  0.4901640000000  0.5152500000000  0.5237260000000 1.0
C      1  0.4648650000000  0.4816910000000  0.5068010000000 1.0
C      1  0.4722900000000  0.5225990000000  0.4980780000000 1.0
C      1  0.4761810000000  0.4764400000000  0.4799120000000 1.0
C      1  0.5501860000000  0.4901480000000  0.5829390000000 1.0
C      1  0.4940320000000  0.5041000000000  0.5933380000000 1.0
C      1  0.4453610000000  0.4948550000000  0.5622820000000 1.0
C      1  0.4007270000000  0.5151640000000  0.5080470000000 1.0
C      1  0.4120460000000  0.4939950000000  0.4596040000000 1.0
C      1  0.4638490000000  0.5047100000000  0.4282400000000 1.0
C      1  0.5081650000000  0.4880220000000  0.4107390000000 1.0
C      1  0.5597540000000  0.5106010000000  0.4337650000000 1.0
C      1  0.5857440000000  0.4960220000000  0.4796800000000 1.0
C      1  0.5869200000000  0.5020500000000  0.5343680000000 1.0
C      1  0.4488050000000  0.5350470000000  0.4228820000000 1.0
C      1  0.4825630000000  0.4666800000000  0.4038580000000 1.0
C      1  0.5586290000000  0.5391490000000  0.4172470000000 1.0
C      1  0.5930130000000  0.4638790000000  0.4713070000000 1.0
C      1  0.6078220000000  0.5431660000000  0.5168350000000 1.0
C      1  0.5759820000000  0.4693130000000  0.5816840000000 1.0
C      1  0.5025660000000  0.5368850000000  0.5962960000000 1.0
C      1  0.4355580000000  0.4689380000000  0.5819180000000 1.0
C      1  0.4061350000000  0.5265460000000  0.5368120000000 1.0
C      1  0.4083100000000  0.4607860000000  0.4658840000000 1.0
C      1  0.4569260000000  0.4768360000000  0.4557740000000 1.0
C      1  0.4856540000000  0.5399900000000  0.4404540000000 1.0
C      1  0.5194070000000  0.4786900000000  0.4478720000000 1.0
C      1  0.5484960000000  0.5339950000000  0.4676070000000 1.0
C      1  0.5465450000000  0.4799900000000  0.5073520000000 1.0
C      1  0.5477400000000  0.5160890000000  0.5323000000000 1.0
C      1  0.5114850000000  0.4733910000000  0.5514460000000 1.0
C      1  0.4805160000000  0.5288570000000  0.5518830000000 1.0
C      1  0.4411900000000  0.4729080000000  0.5269580000000 1.0
C      1  0.4421510000000  0.5190760000000  0.5022740000000 1.0
C      1  0.4899480000000  0.6120510000000  0.5250650000000 1.0
C      1  0.4813100000000  0.3574140000000  0.5124470000000 1.0
C      1  0.4778740000000  0.6165920000000  0.4979800000000 1.0
C      1  0.4754910000000  0.3764630000000  0.4902760000000 1.0
C      1  0.4970020000000  0.6175520000000  0.4774880000000 1.0
C      1  0.5023900000000  0.3865860000000  0.4781960000000 1.0
C      1  0.5264890000000  0.6113230000000  0.4894560000000 1.0
C      1  0.5213650000000  0.3822290000000  0.4997720000000 1.0
C      1  0.5226280000000  0.6075800000000  0.5230340000000 1.0
C      1  0.5052720000000  0.3713370000000  0.5235060000000 1.0
C      1  0.4400540000000  0.4268220000000  0.5386230000000 1.0
C      1  0.4298410000000  0.5749490000000  0.4934270000000 1.0
C      1  0.4457000000000  0.4264730000000  0.4541060000000 1.0
C      1  0.4883990000000  0.5861600000000  0.4314400000000 1.0
C      1  0.5290470000000  0.4312570000000  0.4341850000000 1.0
C      1  0.5624390000000  0.5748700000000  0.4609090000000 1.0
C      1  0.5715160000000  0.4343220000000  0.5069440000000 1.0
C      1  0.5534080000000  0.5667170000000  0.5514060000000 1.0
C      1  0.5196440000000  0.4288280000000  0.5764380000000 1.0
C      1  0.4679550000000  0.5722460000000  0.5706920000000 1.0
C      1  0.5346620000000  0.5208550000000  0.5615220000000 1.0
C      1  0.4870630000000  0.4697910000000  0.5718310000000 1.0
C      1  0.4496310000000  0.5337680000000  0.5387060000000 1.0
C      1  0.4288980000000  0.4659310000000  0.4996240000000 1.0
C      1  0.4425160000000  0.5379690000000  0.4620900000000 1.0
C      1  0.4841610000000  0.4606870000000  0.4441300000000 1.0
C      1  0.5172940000000  0.5384520000000  0.4375780000000 1.0
C      1  0.5462620000000  0.4741560000000  0.4668250000000 1.0
C      1  0.5639470000000  0.5358250000000  0.4969050000000 1.0
C      1  0.5531500000000  0.4660590000000  0.5336800000000 1.0
C      1  0.4791530000000  0.5344760000000  0.4075340000000 1.0
C      1  0.5362100000000  0.4625940000000  0.4230740000000 1.0
C      1  0.5732880000000  0.5455410000000  0.4475450000000 1.0
C      1  0.5974890000000  0.4514480000000  0.4998850000000 1.0
C      1  0.5622290000000  0.5396420000000  0.5631170000000 1.0
C      1  0.5145700000000  0.4600430000000  0.5892960000000 1.0
C      1  0.4717170000000  0.5415240000000  0.5821880000000 1.0
C      1  0.4295350000000  0.4569440000000  0.5505560000000 1.0
C      1  0.4257260000000  0.5429920000000  0.4883840000000 1.0
C      1  0.4343230000000  0.4561380000000  0.4475490000000 1.0
C      1  0.4215120000000  0.5514590000000  0.5436200000000 1.0
C      1  0.4082800000000  0.4398060000000  0.4926420000000 1.0
C      1  0.4301560000000  0.5589220000000  0.4383320000000 1.0
C      1  0.4828490000000  0.4403690000000  0.4097300000000 1.0
C      1  0.5298730000000  0.5563980000000  0.4115830000000 1.0
C      1  0.5666860000000  0.4508450000000  0.4562640000000 1.0
C      1  0.5866580000000  0.5566660000000  0.5012660000000 1.0
C      1  0.5635610000000  0.4499130000000  0.5617350000000 1.0
C      1  0.5250590000000  0.5473180000000  0.5759800000000 1.0
C      1  0.4796460000000  0.4418500000000  0.5850750000000 1.0
C      1  0.4147450000000  0.4949420000000  0.4197250000000 1.0
C      1  0.4600820000000  0.5093870000000  0.3947650000000 1.0
C      1  0.5380210000000  0.4860250000000  0.3983800000000 1.0
C      1  0.5931570000000  0.5105400000000  0.4401280000000 1.0
C      1  0.6106180000000  0.4723520000000  0.5147590000000 1.0
C      1  0.5881290000000  0.5184680000000  0.5707170000000 1.0
C      1  0.5282540000000  0.4846020000000  0.6083390000000 1.0
C      1  0.4520300000000  0.5169870000000  0.5950870000000 1.0
C      1  0.4050020000000  0.4792000000000  0.5427060000000 1.0
C      1  0.3939200000000  0.5364160000000  0.4839330000000 1.0
C      1  0.3894250000000  0.4666720000000  0.4941220000000 1.0
C      1  0.4174860000000  0.5232260000000  0.4267180000000 1.0
C      1  0.4566350000000  0.4778020000000  0.4001530000000 1.0
C      1  0.5378380000000  0.5196830000000  0.3985820000000 1.0
C      1  0.5841170000000  0.4803720000000  0.4429310000000 1.0
C      1  0.6097530000000  0.5256750000000  0.4910750000000 1.0
C      1  0.5964250000000  0.4872520000000  0.5701830000000 1.0
C      1  0.5301430000000  0.5181200000000  0.6029290000000 1.0
C      1  0.4600350000000  0.4841700000000  0.6001130000000 1.0
C      1  0.4074250000000  0.5052930000000  0.5556450000000 1.0
C      1  0.4656580000000  0.5873800000000  0.5051900000000 1.0
C      1  0.4792960000000  0.4084090000000  0.5018360000000 1.0
C      1  0.4808620000000  0.5810510000000  0.4753580000000 1.0
C      1  0.4970580000000  0.4184420000000  0.4745520000000 1.0
C      1  0.5127290000000  0.5881930000000  0.4695830000000 1.0
C      1  0.5380370000000  0.4040830000000  0.5048730000000 1.0
C      1  0.5465270000000  0.5934570000000  0.5064490000000 1.0
C      1  0.5258770000000  0.4228170000000  0.5280980000000 1.0
C      1  0.5035580000000  0.5847580000000  0.5396710000000 1.0
C      1  0.4990030000000  0.4030730000000  0.5265940000000 1.0
END
