TITL C-3289328-6581-330 -0.0016282628938859 125000 -453.723501076038 0 0 84 (C1) n - 1
REM
REM in /nfs/bkarasulu/CARBON/AIRSS/Generating-Clusters/AIREBO/with-SteepDescent/Higher-Symm/SD-CG/HFTN-CG
REM
REM
REM
REM
REM
REM ./C.cell (b20cbc046b6831c77cfcea5457e17084)
REM
REM compiler GCC version 9.2.1 20190827 (Red Hat 9.2.1-1)
REM options -cpp -mtune=generic -march=x86-64 -g -O0 -fpre-include=/usr/include/finclude/math-vector-fortran.h
REM seed -1929019727 -1204979411 -1917512724 1514797906 1287423596 -831501403 2101834587 573619978 -287034521 507070230 37045805 -1664116763 -1728610196 -2147464872 -114453115 -1183532808 2041603019 -508988444 686505879 -1346037286 1752408779 -1566922923 1449295355 -1345711722 1582171736 -998151264 409583639 -2006185260 -1742924809 339235187 -197156551 -112512167 -856314272
REM
CELL 1.54180   50.00000   50.00000   50.00000   90.00000   90.00000   90.00000
LATT -1
SFAC C  
C      1  0.5149630000000  0.5695600000000  0.5504340000000 1.0
C      1  0.4940690000000  0.4293040000000  0.4454650000000 1.0
C      1  0.5709290000000  0.4731670000000  0.4460480000000 1.0
C      1  0.4437020000000  0.5253850000000  0.5745210000000 1.0
C      1  0.5357180000000  0.5015570000000  0.4938910000000 1.0
C      1  0.4581930000000  0.4983170000000  0.5075760000000 1.0
C      1  0.5149990000000  0.5018950000000  0.4361470000000 1.0
C      1  0.4770250000000  0.5022360000000  0.5607380000000 1.0
C      1  0.4627480000000  0.4685660000000  0.5238980000000 1.0
C      1  0.5314900000000  0.5367950000000  0.4762870000000 1.0
C      1  0.5575140000000  0.5064070000000  0.5189410000000 1.0
C      1  0.4241890000000  0.4944300000000  0.4778170000000 1.0
C      1  0.4823400000000  0.5502570000000  0.5003680000000 1.0
C      1  0.5169040000000  0.4435550000000  0.4994050000000 1.0
C      1  0.4480920000000  0.4879300000000  0.4321000000000 1.0
C      1  0.5411380000000  0.5355300000000  0.5590480000000 1.0
C      1  0.5172230000000  0.4826780000000  0.5818060000000 1.0
C      1  0.5218470000000  0.5295770000000  0.4081820000000 1.0
C      1  0.5069620000000  0.5389470000000  0.4369310000000 1.0
C      1  0.4848830000000  0.4563720000000  0.5545990000000 1.0
C      1  0.5512290000000  0.5617290000000  0.4808090000000 1.0
C      1  0.4525990000000  0.4447720000000  0.5104860000000 1.0
C      1  0.4734760000000  0.5599440000000  0.4430230000000 1.0
C      1  0.5189570000000  0.4322270000000  0.5643620000000 1.0
C      1  0.5254050000000  0.4744310000000  0.5058340000000 1.0
C      1  0.4588610000000  0.5267070000000  0.4981600000000 1.0
C      1  0.4628350000000  0.5659690000000  0.5466280000000 1.0
C      1  0.5395170000000  0.4389160000000  0.4668280000000 1.0
C      1  0.5635740000000  0.5496280000000  0.5234200000000 1.0
C      1  0.4436920000000  0.4430090000000  0.4675560000000 1.0
C      1  0.5311530000000  0.5073750000000  0.4002810000000 1.0
C      1  0.5074380000000  0.5019380000000  0.5978060000000 1.0
C      1  0.4846190000000  0.4919820000000  0.4702880000000 1.0
C      1  0.5064170000000  0.5069800000000  0.5246810000000 1.0
C      1  0.5266570000000  0.4505940000000  0.4071080000000 1.0
C      1  0.4940550000000  0.5508830000000  0.5977820000000 1.0
C      1  0.4933300000000  0.4632740000000  0.4847900000000 1.0
C      1  0.5080660000000  0.5296890000000  0.5001900000000 1.0
C      1  0.5782040000000  0.5022480000000  0.4605910000000 1.0
C      1  0.4438830000000  0.5021310000000  0.5526110000000 1.0
C      1  0.4908950000000  0.5663480000000  0.5644960000000 1.0
C      1  0.5209650000000  0.4363950000000  0.4406610000000 1.0
C      1  0.5273670000000  0.5702730000000  0.4974200000000 1.0
C      1  0.4727530000000  0.4285980000000  0.5006000000000 1.0
C      1  0.4770920000000  0.4382430000000  0.4694460000000 1.0
C      1  0.5312650000000  0.5576250000000  0.5273080000000 1.0
C      1  0.4179480000000  0.5329760000000  0.4859930000000 1.0
C      1  0.5559880000000  0.4529840000000  0.5199590000000 1.0
C      1  0.4657510000000  0.5442710000000  0.5705830000000 1.0
C      1  0.5451540000000  0.4604030000000  0.4410870000000 1.0
C      1  0.4688670000000  0.5755290000000  0.5159060000000 1.0
C      1  0.5466820000000  0.4283540000000  0.4984380000000 1.0
C      1  0.4959820000000  0.4285750000000  0.5160690000000 1.0
C      1  0.5039100000000  0.5655930000000  0.4832390000000 1.0
C      1  0.5689310000000  0.5442310000000  0.4966230000000 1.0
C      1  0.4320960000000  0.4517360000000  0.4916620000000 1.0
C      1  0.4480820000000  0.5498670000000  0.5207300000000 1.0
C      1  0.5464850000000  0.4649250000000  0.4832390000000 1.0
C      1  0.4227330000000  0.5338190000000  0.5136360000000 1.0
C      1  0.5742000000000  0.4667990000000  0.4947640000000 1.0
C      1  0.4280430000000  0.4738790000000  0.5422580000000 1.0
C      1  0.5643230000000  0.5218910000000  0.4407370000000 1.0
C      1  0.4870600000000  0.4845130000000  0.5094610000000 1.0
C      1  0.5110440000000  0.5101410000000  0.4731660000000 1.0
C      1  0.5682060000000  0.4827720000000  0.5307620000000 1.0
C      1  0.4004210000000  0.5112360000000  0.4746000000000 1.0
C      1  0.5921880000000  0.4791880000000  0.4793380000000 1.0
C      1  0.4226930000000  0.5090110000000  0.5269190000000 1.0
C      1  0.5287130000000  0.4798790000000  0.4189850000000 1.0
C      1  0.4880140000000  0.5219940000000  0.5833950000000 1.0
C      1  0.5337850000000  0.5238190000000  0.5300940000000 1.0
C      1  0.4523390000000  0.4973370000000  0.4608870000000 1.0
C      1  0.4561990000000  0.4642330000000  0.5551090000000 1.0
C      1  0.5362620000000  0.5253170000000  0.4460870000000 1.0
C      1  0.5312030000000  0.4687010000000  0.5371500000000 1.0
C      1  0.4445130000000  0.5291910000000  0.4698430000000 1.0
C      1  0.5289970000000  0.4592560000000  0.5674630000000 1.0
C      1  0.4633080000000  0.5348480000000  0.4459670000000 1.0
C      1  0.5667920000000  0.5141040000000  0.4878010000000 1.0
C      1  0.4286400000000  0.4814830000000  0.5078540000000 1.0
C      1  0.5033310000000  0.4838540000000  0.5494220000000 1.0
C      1  0.4847050000000  0.5127080000000  0.4433170000000 1.0
C      1  0.4971950000000  0.4317560000000  0.5442570000000 1.0
C      1  0.4999870000000  0.5644550000000  0.4558350000000 1.0
END
