TITL C-3289329-2751-190 -0.00162673597923367 125000 -918.143252720105 0 0 170 (C1) n - 1
REM
REM in /nfs/bkarasulu/CARBON/AIRSS/Generating-Clusters/AIREBO/with-SteepDescent/Higher-Symm/SD-CG/HFTN-CG
REM
REM
REM
REM
REM
REM ./C.cell (b20cbc046b6831c77cfcea5457e17084)
REM
REM compiler GCC version 9.2.1 20190827 (Red Hat 9.2.1-1)
REM options -cpp -mtune=generic -march=x86-64 -g -O0 -fpre-include=/usr/include/finclude/math-vector-fortran.h
REM seed 649941253 601807453 888256916 1078780257 526635658 -132488612 -693623576 -1118021633 -2025497462 -16420700 -163619360 345500832 -596927305 433573468 610768606 554575525 -2080443465 1100137235 1314844127 -1860515763 1992771197 -1298348044 699056505 27375712 -2011859188 1041843740 1954244771 -668742653 -1508699764 -2100735036 177319005 409540769 -818193557
REM
CELL 1.54180   50.00000   50.00000   50.00000   90.00000   90.00000   90.00000
LATT -1
SFAC C  
C      1  0.4853230000000  0.5789590000000  0.5678310000000 1.0
C      1  0.4323180000000  0.5652120000000  0.5391570000000 1.0
C      1  0.4275830000000  0.5775190000000  0.4636870000000 1.0
C      1  0.4828000000000  0.5750450000000  0.4250980000000 1.0
C      1  0.5453040000000  0.5859880000000  0.4429940000000 1.0
C      1  0.5762000000000  0.5692810000000  0.4962170000000 1.0
C      1  0.5492650000000  0.5687470000000  0.5554640000000 1.0
C      1  0.5190270000000  0.5823160000000  0.5643700000000 1.0
C      1  0.4559370000000  0.5853650000000  0.5495420000000 1.0
C      1  0.4315720000000  0.5870910000000  0.4930500000000 1.0
C      1  0.4577990000000  0.5781450000000  0.4480420000000 1.0
C      1  0.5148600000000  0.5805710000000  0.4359030000000 1.0
C      1  0.5622550000000  0.5843000000000  0.4727370000000 1.0
C      1  0.5645390000000  0.5804340000000  0.5273900000000 1.0
C      1  0.6064470000000  0.5308980000000  0.5107420000000 1.0
C      1  0.5666190000000  0.5238600000000  0.5829170000000 1.0
C      1  0.4738420000000  0.5312190000000  0.5933170000000 1.0
C      1  0.4067740000000  0.5206810000000  0.5364360000000 1.0
C      1  0.4023060000000  0.5308480000000  0.4553700000000 1.0
C      1  0.4894470000000  0.5196230000000  0.4018330000000 1.0
C      1  0.5719290000000  0.5225290000000  0.4247870000000 1.0
C      1  0.5680790000000  0.4928680000000  0.4150650000000 1.0
C      1  0.6050520000000  0.5043330000000  0.4934380000000 1.0
C      1  0.5747300000000  0.4971740000000  0.5838290000000 1.0
C      1  0.4880910000000  0.5038930000000  0.6044210000000 1.0
C      1  0.4027660000000  0.4898280000000  0.5503550000000 1.0
C      1  0.3928160000000  0.5062420000000  0.4615400000000 1.0
C      1  0.4653380000000  0.5008310000000  0.4022450000000 1.0
C      1  0.5141140000000  0.5134700000000  0.5123610000000 1.0
C      1  0.5204170000000  0.5274540000000  0.5427070000000 1.0
C      1  0.4852800000000  0.5161380000000  0.5275520000000 1.0
C      1  0.4606140000000  0.5205610000000  0.5090970000000 1.0
C      1  0.4637860000000  0.5233230000000  0.4753510000000 1.0
C      1  0.4954090000000  0.5240230000000  0.4625510000000 1.0
C      1  0.5231190000000  0.5273030000000  0.4826230000000 1.0
C      1  0.5621240000000  0.5030930000000  0.5416390000000 1.0
C      1  0.5173050000000  0.5012220000000  0.5641180000000 1.0
C      1  0.4505120000000  0.4983260000000  0.5456350000000 1.0
C      1  0.4366870000000  0.5039480000000  0.4974470000000 1.0
C      1  0.4620540000000  0.5027420000000  0.4483140000000 1.0
C      1  0.5215730000000  0.5030960000000  0.4333220000000 1.0
C      1  0.5633370000000  0.5068080000000  0.4678630000000 1.0
C      1  0.4303040000000  0.4836080000000  0.5221680000000 1.0
C      1  0.4450260000000  0.4881930000000  0.4723660000000 1.0
C      1  0.4897730000000  0.4911010000000  0.4323750000000 1.0
C      1  0.5460890000000  0.4867020000000  0.4477890000000 1.0
C      1  0.5638090000000  0.4951110000000  0.5118750000000 1.0
C      1  0.5427930000000  0.4838290000000  0.5567580000000 1.0
C      1  0.4935870000000  0.4821560000000  0.5602800000000 1.0
C      1  0.5874940000000  0.5366530000000  0.4518760000000 1.0
C      1  0.5945740000000  0.5308780000000  0.5368970000000 1.0
C      1  0.5408370000000  0.5310660000000  0.5935090000000 1.0
C      1  0.4483480000000  0.5272820000000  0.5788770000000 1.0
C      1  0.4018450000000  0.5421130000000  0.5089730000000 1.0
C      1  0.4219930000000  0.5330410000000  0.4354640000000 1.0
C      1  0.5216090000000  0.5323650000000  0.4061070000000 1.0
C      1  0.4561970000000  0.4462850000000  0.4812910000000 1.0
C      1  0.4741960000000  0.4645670000000  0.4587280000000 1.0
C      1  0.5238800000000  0.4437470000000  0.4664360000000 1.0
C      1  0.5445760000000  0.4521890000000  0.4921000000000 1.0
C      1  0.5347910000000  0.4548740000000  0.5227320000000 1.0
C      1  0.5063370000000  0.4452800000000  0.5387700000000 1.0
C      1  0.4720920000000  0.4432460000000  0.5384090000000 1.0
C      1  0.4723580000000  0.5553550000000  0.4774610000000 1.0
C      1  0.5003890000000  0.5575740000000  0.4650100000000 1.0
C      1  0.5219430000000  0.5602410000000  0.4867560000000 1.0
C      1  0.5304500000000  0.5654770000000  0.5141920000000 1.0
C      1  0.5110660000000  0.5569960000000  0.5346470000000 1.0
C      1  0.4821200000000  0.5594010000000  0.5253620000000 1.0
C      1  0.4646590000000  0.5680740000000  0.5044950000000 1.0
C      1  0.5192630000000  0.5104420000000  0.5925140000000 1.0
C      1  0.4443300000000  0.4957870000000  0.5789740000000 1.0
C      1  0.4068810000000  0.5103440000000  0.5040450000000 1.0
C      1  0.4433250000000  0.5139380000000  0.4245990000000 1.0
C      1  0.5173960000000  0.5003820000000  0.3996800000000 1.0
C      1  0.5932670000000  0.5071340000000  0.4636840000000 1.0
C      1  0.5941470000000  0.5031160000000  0.5495520000000 1.0
C      1  0.5262880000000  0.4852310000000  0.5270650000000 1.0
C      1  0.4928900000000  0.4838820000000  0.5287320000000 1.0
C      1  0.4618430000000  0.4719970000000  0.5273300000000 1.0
C      1  0.4621920000000  0.4734440000000  0.4954380000000 1.0
C      1  0.4960040000000  0.4900960000000  0.4649880000000 1.0
C      1  0.5241550000000  0.4771800000000  0.4669210000000 1.0
C      1  0.5497600000000  0.4840980000000  0.4872240000000 1.0
C      1  0.4493470000000  0.5290790000000  0.5390240000000 1.0
C      1  0.4353120000000  0.5403940000000  0.4761290000000 1.0
C      1  0.4782360000000  0.5370520000000  0.4362320000000 1.0
C      1  0.5370520000000  0.5386940000000  0.4537700000000 1.0
C      1  0.5540380000000  0.5230710000000  0.4950170000000 1.0
C      1  0.5519090000000  0.5308570000000  0.5432930000000 1.0
C      1  0.4895400000000  0.5289820000000  0.5568830000000 1.0
C      1  0.4238550000000  0.4452680000000  0.4866940000000 1.0
C      1  0.4588880000000  0.4572950000000  0.4331180000000 1.0
C      1  0.5304180000000  0.4521710000000  0.4341270000000 1.0
C      1  0.5758810000000  0.4546200000000  0.4806840000000 1.0
C      1  0.5609210000000  0.4517210000000  0.5413410000000 1.0
C      1  0.5068910000000  0.4538000000000  0.5697940000000 1.0
C      1  0.4440540000000  0.4510000000000  0.5561420000000 1.0
C      1  0.5757070000000  0.5473590000000  0.5600610000000 1.0
C      1  0.4967500000000  0.5515560000000  0.5805780000000 1.0
C      1  0.4245360000000  0.5400350000000  0.5581060000000 1.0
C      1  0.4056070000000  0.5544950000000  0.4775190000000 1.0
C      1  0.4743460000000  0.5488950000000  0.4045800000000 1.0
C      1  0.5456860000000  0.5347440000000  0.4250180000000 1.0
C      1  0.5938620000000  0.5450490000000  0.4846800000000 1.0
C      1  0.5762470000000  0.4434000000000  0.4344610000000 1.0
C      1  0.5994760000000  0.4463150000000  0.5118300000000 1.0
C      1  0.5522640000000  0.4413370000000  0.5855380000000 1.0
C      1  0.4720620000000  0.4498030000000  0.6020670000000 1.0
C      1  0.4034300000000  0.4403840000000  0.5325280000000 1.0
C      1  0.4115350000000  0.4447360000000  0.4488300000000 1.0
C      1  0.4851830000000  0.4518700000000  0.4035950000000 1.0
C      1  0.4493320000000  0.5471070000000  0.4460620000000 1.0
C      1  0.5071770000000  0.5513470000000  0.4262410000000 1.0
C      1  0.5625980000000  0.5582850000000  0.4524650000000 1.0
C      1  0.5588930000000  0.5485680000000  0.5169030000000 1.0
C      1  0.5295670000000  0.5542610000000  0.5790970000000 1.0
C      1  0.4676330000000  0.5536620000000  0.5533950000000 1.0
C      1  0.4328130000000  0.5559710000000  0.5067000000000 1.0
C      1  0.5387590000000  0.4761290000000  0.4102470000000 1.0
C      1  0.6020430000000  0.4761930000000  0.4741040000000 1.0
C      1  0.5812230000000  0.4735420000000  0.5602460000000 1.0
C      1  0.5152290000000  0.4841560000000  0.6110490000000 1.0
C      1  0.4237420000000  0.4766600000000  0.5654260000000 1.0
C      1  0.3919540000000  0.4866980000000  0.4878220000000 1.0
C      1  0.4413520000000  0.4819410000000  0.4172560000000 1.0
C      1  0.5828920000000  0.4278490000000  0.4967190000000 1.0
C      1  0.5552530000000  0.4294540000000  0.5605320000000 1.0
C      1  0.4900130000000  0.4333330000000  0.5834780000000 1.0
C      1  0.4264360000000  0.4297150000000  0.5430920000000 1.0
C      1  0.4257750000000  0.4233630000000  0.4640840000000 1.0
C      1  0.4718890000000  0.4318840000000  0.4217820000000 1.0
C      1  0.5519990000000  0.4306130000000  0.4359730000000 1.0
C      1  0.5361180000000  0.5978780000000  0.5180730000000 1.0
C      1  0.5066260000000  0.5907010000000  0.5338390000000 1.0
C      1  0.4764430000000  0.5988250000000  0.5284030000000 1.0
C      1  0.4617510000000  0.6014700000000  0.4992560000000 1.0
C      1  0.4767800000000  0.5887340000000  0.4726970000000 1.0
C      1  0.5079320000000  0.5908280000000  0.4655620000000 1.0
C      1  0.5336420000000  0.5921300000000  0.4848160000000 1.0
C      1  0.4080880000000  0.4636850000000  0.5061350000000 1.0
C      1  0.4322010000000  0.4718120000000  0.4484050000000 1.0
C      1  0.5069980000000  0.4666330000000  0.4178870000000 1.0
C      1  0.5765680000000  0.4726320000000  0.4518430000000 1.0
C      1  0.5830490000000  0.4727080000000  0.5262980000000 1.0
C      1  0.5308340000000  0.4689370000000  0.5849030000000 1.0
C      1  0.4685340000000  0.4648750000000  0.5717930000000 1.0
C      1  0.5204100000000  0.4113510000000  0.4724450000000 1.0
C      1  0.5352880000000  0.4038070000000  0.4995380000000 1.0
C      1  0.5258130000000  0.4031440000000  0.5261310000000 1.0
C      1  0.4978900000000  0.4130710000000  0.5359840000000 1.0
C      1  0.4695090000000  0.4149770000000  0.5196430000000 1.0
C      1  0.4700210000000  0.4190300000000  0.4902730000000 1.0
C      1  0.4903250000000  0.4068820000000  0.4671490000000 1.0
C      1  0.3987660000000  0.4759880000000  0.4529860000000 1.0
C      1  0.4696730000000  0.4701790000000  0.3895710000000 1.0
C      1  0.5888640000000  0.4717270000000  0.4201460000000 1.0
C      1  0.6134520000000  0.4773200000000  0.5117780000000 1.0
C      1  0.5629560000000  0.4719950000000  0.5956410000000 1.0
C      1  0.4653330000000  0.4831710000000  0.5997720000000 1.0
C      1  0.3899750000000  0.4705180000000  0.5340970000000 1.0
C      1  0.4732070000000  0.4109510000000  0.4404530000000 1.0
C      1  0.5417400000000  0.4081420000000  0.4475500000000 1.0
C      1  0.5636960000000  0.4076750000000  0.4968420000000 1.0
C      1  0.5453420000000  0.4065670000000  0.5471290000000 1.0
C      1  0.4909360000000  0.4101530000000  0.5685770000000 1.0
C      1  0.4413170000000  0.4087270000000  0.5338490000000 1.0
C      1  0.4512520000000  0.4112260000000  0.4628600000000 1.0
C      1  0.4953900000000  0.4537380000000  0.4814920000000 1.0
C      1  0.4917530000000  0.4840510000000  0.4964600000000 1.0
END
