TITL C-3289322-3858-566 0.00152967931352797 125000 -902.407930788444 0 0 170 (C1) n - 1
REM
REM in /nfs/bkarasulu/CARBON/AIRSS/Generating-Clusters/AIREBO/with-SteepDescent/Higher-Symm/SD-CG/HFTN-CG
REM
REM
REM
REM
REM
REM ./C.cell (b20cbc046b6831c77cfcea5457e17084)
REM
REM compiler GCC version 9.2.1 20190827 (Red Hat 9.2.1-1)
REM options -cpp -mtune=generic -march=x86-64 -g -O0 -fpre-include=/usr/include/finclude/math-vector-fortran.h
REM seed 933297478 1118277888 -2078747695 -289798947 -1908115533 -347042065 -32324555 1862344218 508652124 1091389844 111672390 1153934393 -133591304 1222660540 2125408121 -1383967910 -1802858078 492186011 -1191642064 1621588930 -1431176884 -1970356913 -569569700 -1005618777 -1015129286 -860640506 39454950 1955334351 1470820452 397834214 -1062201638 -50226454 -904430797
REM
CELL 1.54180   50.00000   50.00000   50.00000   90.00000   90.00000   90.00000
LATT -1
SFAC C  
C      1  0.4026560000000  0.5096760000000  0.4852780000000 1.0
C      1  0.6018060000000  0.4880200000000  0.5261740000000 1.0
C      1  0.4268910000000  0.5617240000000  0.4460990000000 1.0
C      1  0.5685960000000  0.4367300000000  0.5585110000000 1.0
C      1  0.4662600000000  0.5486620000000  0.5884360000000 1.0
C      1  0.5379330000000  0.4519150000000  0.4102440000000 1.0
C      1  0.3959640000000  0.5269040000000  0.5120240000000 1.0
C      1  0.6044760000000  0.4793150000000  0.4934150000000 1.0
C      1  0.5817680000000  0.4555630000000  0.5015770000000 1.0
C      1  0.4233870000000  0.5415180000000  0.4974660000000 1.0
C      1  0.4021460000000  0.4776910000000  0.4930670000000 1.0
C      1  0.5917760000000  0.5190140000000  0.5162730000000 1.0
C      1  0.4194820000000  0.4352790000000  0.4713220000000 1.0
C      1  0.5817390000000  0.5698200000000  0.5386070000000 1.0
C      1  0.4071450000000  0.4758190000000  0.4457900000000 1.0
C      1  0.5877260000000  0.5142800000000  0.5659610000000 1.0
C      1  0.5468380000000  0.5048380000000  0.4032140000000 1.0
C      1  0.4576410000000  0.4952680000000  0.5966800000000 1.0
C      1  0.5830840000000  0.5814950000000  0.5083020000000 1.0
C      1  0.4116220000000  0.4214910000000  0.4971160000000 1.0
C      1  0.5937080000000  0.5006960000000  0.4728110000000 1.0
C      1  0.4047230000000  0.5008350000000  0.5301450000000 1.0
C      1  0.4651670000000  0.5454560000000  0.5121330000000 1.0
C      1  0.5346900000000  0.4541130000000  0.4923240000000 1.0
C      1  0.4449730000000  0.5254780000000  0.4121240000000 1.0
C      1  0.5513590000000  0.4663950000000  0.5791080000000 1.0
C      1  0.4841220000000  0.4667460000000  0.4859620000000 1.0
C      1  0.5175690000000  0.5379460000000  0.5121450000000 1.0
C      1  0.5065550000000  0.4976270000000  0.4266860000000 1.0
C      1  0.4909180000000  0.5061300000000  0.5716400000000 1.0
C      1  0.4577060000000  0.5288610000000  0.5646370000000 1.0
C      1  0.5460610000000  0.4703960000000  0.4346910000000 1.0
C      1  0.4680060000000  0.5129560000000  0.5113540000000 1.0
C      1  0.5331160000000  0.4874070000000  0.4855470000000 1.0
C      1  0.4613920000000  0.3956470000000  0.5402060000000 1.0
C      1  0.5272860000000  0.5934130000000  0.4596790000000 1.0
C      1  0.4861970000000  0.3847910000000  0.4616790000000 1.0
C      1  0.5175700000000  0.6195410000000  0.5393070000000 1.0
C      1  0.5685510000000  0.5261110000000  0.5914240000000 1.0
C      1  0.4262530000000  0.4779130000000  0.4235300000000 1.0
C      1  0.4301950000000  0.5492670000000  0.5298880000000 1.0
C      1  0.5689400000000  0.4507220000000  0.4721500000000 1.0
C      1  0.5296320000000  0.5620890000000  0.4694660000000 1.0
C      1  0.4671690000000  0.4513680000000  0.5271530000000 1.0
C      1  0.5855770000000  0.4615280000000  0.5410770000000 1.0
C      1  0.4143170000000  0.5362730000000  0.4650990000000 1.0
C      1  0.5040500000000  0.4575320000000  0.5950040000000 1.0
C      1  0.4965360000000  0.5238360000000  0.4070160000000 1.0
C      1  0.4725040000000  0.4655580000000  0.5979570000000 1.0
C      1  0.5285770000000  0.5320260000000  0.3991080000000 1.0
C      1  0.5409970000000  0.5635630000000  0.4372630000000 1.0
C      1  0.4570820000000  0.4439770000000  0.5523770000000 1.0
C      1  0.5002300000000  0.4991940000000  0.4660760000000 1.0
C      1  0.5045640000000  0.5010290000000  0.5344070000000 1.0
C      1  0.5002320000000  0.5331180000000  0.4453300000000 1.0
C      1  0.5024290000000  0.4643490000000  0.5547560000000 1.0
C      1  0.4500740000000  0.5386450000000  0.4411860000000 1.0
C      1  0.5461020000000  0.4588880000000  0.5463410000000 1.0
C      1  0.4234540000000  0.5739490000000  0.4740600000000 1.0
C      1  0.5836230000000  0.4295770000000  0.5296140000000 1.0
C      1  0.5389300000000  0.5643080000000  0.5602370000000 1.0
C      1  0.4632530000000  0.4390130000000  0.4375850000000 1.0
C      1  0.5687560000000  0.4926150000000  0.5853590000000 1.0
C      1  0.4245280000000  0.5070000000000  0.4162370000000 1.0
C      1  0.5764860000000  0.5332060000000  0.4555740000000 1.0
C      1  0.4221530000000  0.4630090000000  0.5505510000000 1.0
C      1  0.4486940000000  0.4505550000000  0.5003430000000 1.0
C      1  0.5513380000000  0.5617650000000  0.4942880000000 1.0
C      1  0.5334600000000  0.5520260000000  0.5914800000000 1.0
C      1  0.4716430000000  0.4464940000000  0.4054540000000 1.0
C      1  0.5154520000000  0.4145320000000  0.5364600000000 1.0
C      1  0.4758370000000  0.5902140000000  0.4568240000000 1.0
C      1  0.4603770000000  0.5696180000000  0.4397720000000 1.0
C      1  0.5385660000000  0.4223720000000  0.5599840000000 1.0
C      1  0.4167440000000  0.4010380000000  0.5153540000000 1.0
C      1  0.5749740000000  0.5961320000000  0.4860650000000 1.0
C      1  0.5539870000000  0.4041020000000  0.4336180000000 1.0
C      1  0.4505170000000  0.5886430000000  0.5551440000000 1.0
C      1  0.5219420000000  0.5896660000000  0.5452240000000 1.0
C      1  0.4814120000000  0.4153040000000  0.4541060000000 1.0
C      1  0.5196580000000  0.3912830000000  0.4948850000000 1.0
C      1  0.4835740000000  0.6133910000000  0.5058880000000 1.0
C      1  0.4057500000000  0.4598310000000  0.4676240000000 1.0
C      1  0.5808850000000  0.5369920000000  0.5430830000000 1.0
C      1  0.4304070000000  0.4307700000000  0.5499840000000 1.0
C      1  0.5690990000000  0.5632710000000  0.4486740000000 1.0
C      1  0.5049130000000  0.4475570000000  0.4123920000000 1.0
C      1  0.4999170000000  0.5518800000000  0.5859130000000 1.0
C      1  0.5048030000000  0.4864890000000  0.5043820000000 1.0
C      1  0.4968620000000  0.5179170000000  0.4940470000000 1.0
C      1  0.4857320000000  0.5558990000000  0.4885260000000 1.0
C      1  0.5127730000000  0.4394050000000  0.5137770000000 1.0
C      1  0.4821500000000  0.4329120000000  0.4831830000000 1.0
C      1  0.5176880000000  0.5716650000000  0.5166900000000 1.0
C      1  0.5105830000000  0.4295630000000  0.4475970000000 1.0
C      1  0.4956980000000  0.5711650000000  0.5511870000000 1.0
C      1  0.4732980000000  0.5161670000000  0.4386530000000 1.0
C      1  0.5272450000000  0.4860710000000  0.5542300000000 1.0
C      1  0.4795710000000  0.5197260000000  0.5980860000000 1.0
C      1  0.5244080000000  0.4811380000000  0.4028880000000 1.0
C      1  0.5551270000000  0.5331820000000  0.4794870000000 1.0
C      1  0.4384110000000  0.4790240000000  0.5287000000000 1.0
C      1  0.4710660000000  0.5762890000000  0.5729870000000 1.0
C      1  0.5348770000000  0.4241170000000  0.4245940000000 1.0
C      1  0.4514710000000  0.5047090000000  0.4619480000000 1.0
C      1  0.5500810000000  0.4973240000000  0.5315830000000 1.0
C      1  0.4916210000000  0.5461840000000  0.5325140000000 1.0
C      1  0.5109630000000  0.4560560000000  0.4680310000000 1.0
C      1  0.5819730000000  0.4933230000000  0.4458410000000 1.0
C      1  0.4203760000000  0.5064670000000  0.5557790000000 1.0
C      1  0.5132760000000  0.4375580000000  0.5690830000000 1.0
C      1  0.4829910000000  0.5511340000000  0.4222110000000 1.0
C      1  0.5138060000000  0.4208510000000  0.4864530000000 1.0
C      1  0.4848600000000  0.5800490000000  0.5124520000000 1.0
C      1  0.5395080000000  0.4121310000000  0.5133460000000 1.0
C      1  0.4671930000000  0.5911010000000  0.4855530000000 1.0
C      1  0.5664350000000  0.4862720000000  0.4819160000000 1.0
C      1  0.4349460000000  0.5097360000000  0.5187570000000 1.0
C      1  0.4184020000000  0.4515980000000  0.5075930000000 1.0
C      1  0.5810920000000  0.5492850000000  0.5050600000000 1.0
C      1  0.5038180000000  0.5715310000000  0.4096470000000 1.0
C      1  0.4880490000000  0.4225610000000  0.5803620000000 1.0
C      1  0.4512700000000  0.4364310000000  0.4693790000000 1.0
C      1  0.5495970000000  0.5676130000000  0.5277420000000 1.0
C      1  0.4467760000000  0.5655400000000  0.4917560000000 1.0
C      1  0.5546230000000  0.4424020000000  0.5172890000000 1.0
C      1  0.5134600000000  0.5237940000000  0.5994820000000 1.0
C      1  0.4916150000000  0.4737300000000  0.3952320000000 1.0
C      1  0.5002100000000  0.6286130000000  0.5199470000000 1.0
C      1  0.5058490000000  0.3742110000000  0.4785610000000 1.0
C      1  0.5010320000000  0.5998110000000  0.4519540000000 1.0
C      1  0.4884940000000  0.3979080000000  0.5368420000000 1.0
C      1  0.4662890000000  0.5264110000000  0.3956580000000 1.0
C      1  0.5329170000000  0.4579580000000  0.5972440000000 1.0
C      1  0.5276030000000  0.5237910000000  0.4320820000000 1.0
C      1  0.4762260000000  0.4779190000000  0.5665000000000 1.0
C      1  0.3993600000000  0.4707540000000  0.5265170000000 1.0
C      1  0.5947240000000  0.5293980000000  0.4836780000000 1.0
C      1  0.5578720000000  0.4038060000000  0.4586290000000 1.0
C      1  0.4336220000000  0.6076660000000  0.5596680000000 1.0
C      1  0.4958920000000  0.4607630000000  0.5247760000000 1.0
C      1  0.5062890000000  0.5423430000000  0.4723220000000 1.0
C      1  0.5602060000000  0.5141000000000  0.4332280000000 1.0
C      1  0.4425840000000  0.4838360000000  0.5681300000000 1.0
C      1  0.5453750000000  0.4271370000000  0.4745820000000 1.0
C      1  0.4553110000000  0.5726420000000  0.5300330000000 1.0
C      1  0.5019780000000  0.5857070000000  0.5819050000000 1.0
C      1  0.5000080000000  0.4145560000000  0.4189690000000 1.0
C      1  0.4535820000000  0.4703690000000  0.4313220000000 1.0
C      1  0.5528840000000  0.5333520000000  0.5620370000000 1.0
C      1  0.4206040000000  0.5070240000000  0.4500130000000 1.0
C      1  0.5725780000000  0.4879350000000  0.5529780000000 1.0
C      1  0.4743990000000  0.4908400000000  0.4178990000000 1.0
C      1  0.5325590000000  0.5104280000000  0.5768200000000 1.0
C      1  0.5374210000000  0.5187100000000  0.4923440000000 1.0
C      1  0.4594360000000  0.4813840000000  0.5020840000000 1.0
C      1  0.5302600000000  0.5228350000000  0.5389250000000 1.0
C      1  0.4741690000000  0.4804150000000  0.4564580000000 1.0
C      1  0.4988600000000  0.4663710000000  0.4377640000000 1.0
C      1  0.5047750000000  0.5330780000000  0.5591670000000 1.0
C      1  0.4320030000000  0.5319440000000  0.5531520000000 1.0
C      1  0.5707450000000  0.4677010000000  0.4467690000000 1.0
C      1  0.5591280000000  0.5882880000000  0.4636220000000 1.0
C      1  0.4346580000000  0.4059010000000  0.5368710000000 1.0
C      1  0.5277020000000  0.4893080000000  0.4520130000000 1.0
C      1  0.4757810000000  0.5111020000000  0.5430100000000 1.0
C      1  0.5291240000000  0.5608520000000  0.4127680000000 1.0
C      1  0.4675940000000  0.4407450000000  0.5784010000000 1.0
C      1  0.5704670000000  0.4854740000000  0.5132270000000 1.0
C      1  0.4365380000000  0.5119550000000  0.4869880000000 1.0
END
