TITL C-3289323-3850-256 -0.00467463630417293 125000 -1069.42041689403 0 0 195 (C1) n - 1
REM
REM in /nfs/bkarasulu/CARBON/AIRSS/Generating-Clusters/AIREBO/with-SteepDescent/Higher-Symm/SD-CG/HFTN-CG
REM
REM
REM
REM
REM
REM ./C.cell (b20cbc046b6831c77cfcea5457e17084)
REM
REM compiler GCC version 9.2.1 20190827 (Red Hat 9.2.1-1)
REM options -cpp -mtune=generic -march=x86-64 -g -O0 -fpre-include=/usr/include/finclude/math-vector-fortran.h
REM seed -1631075045 834620056 182143806 796724111 201495394 836426579 500990539 -1237795727 -750154097 235917044 -1448059143 -226271886 -676880217 912725328 -100854143 -490814318 -1696701726 -308550708 777718632 -1165089348 -1001211498 -240374006 2075012778 -1504166666 -1018443735 -667681439 -231609932 -998001350 1178427362 1115662678 505125407 1579182310 -1582470435
REM
CELL 1.54180   50.00000   50.00000   50.00000   90.00000   90.00000   90.00000
LATT -1
SFAC C  
C      1  0.4344870000000  0.4442170000000  0.5390090000000 1.0
C      1  0.4161650000000  0.5006150000000  0.4860930000000 1.0
C      1  0.6022190000000  0.4680990000000  0.4440300000000 1.0
C      1  0.4280220000000  0.5355440000000  0.4575650000000 1.0
C      1  0.5274950000000  0.3889810000000  0.4852440000000 1.0
C      1  0.4431230000000  0.5457470000000  0.4929890000000 1.0
C      1  0.4551760000000  0.4603210000000  0.4350390000000 1.0
C      1  0.5661090000000  0.4314480000000  0.4380990000000 1.0
C      1  0.5123190000000  0.3853710000000  0.5154550000000 1.0
C      1  0.4743750000000  0.4500600000000  0.5017130000000 1.0
C      1  0.4660670000000  0.5855240000000  0.4459050000000 1.0
C      1  0.4596310000000  0.5741390000000  0.5817000000000 1.0
C      1  0.4436230000000  0.5599670000000  0.4400060000000 1.0
C      1  0.5526930000000  0.4626250000000  0.5220980000000 1.0
C      1  0.5358920000000  0.5287420000000  0.5473110000000 1.0
C      1  0.4605260000000  0.4670140000000  0.5631480000000 1.0
C      1  0.5234170000000  0.4924160000000  0.3978130000000 1.0
C      1  0.4865730000000  0.5771460000000  0.4224850000000 1.0
C      1  0.4321200000000  0.4905590000000  0.5817180000000 1.0
C      1  0.4634620000000  0.4820710000000  0.4806970000000 1.0
C      1  0.5222670000000  0.4017980000000  0.5415150000000 1.0
C      1  0.5561680000000  0.5346760000000  0.5027160000000 1.0
C      1  0.4876250000000  0.5138920000000  0.4823310000000 1.0
C      1  0.5367550000000  0.5337790000000  0.5974820000000 1.0
C      1  0.6180710000000  0.5182060000000  0.4750780000000 1.0
C      1  0.5773140000000  0.5130850000000  0.4934650000000 1.0
C      1  0.5270260000000  0.4348170000000  0.5015070000000 1.0
C      1  0.4248570000000  0.4936110000000  0.4350760000000 1.0
C      1  0.5189470000000  0.4490950000000  0.4313540000000 1.0
C      1  0.5914560000000  0.4710270000000  0.5266230000000 1.0
C      1  0.5769420000000  0.4567420000000  0.5029370000000 1.0
C      1  0.4686300000000  0.5744950000000  0.5164350000000 1.0
C      1  0.5326800000000  0.4828560000000  0.4472860000000 1.0
C      1  0.5115090000000  0.5686000000000  0.5251430000000 1.0
C      1  0.4679140000000  0.4079280000000  0.5317040000000 1.0
C      1  0.4904810000000  0.6077230000000  0.5365690000000 1.0
C      1  0.5348970000000  0.4527630000000  0.5955370000000 1.0
C      1  0.5649730000000  0.5604830000000  0.5230670000000 1.0
C      1  0.5069710000000  0.4801330000000  0.4242470000000 1.0
C      1  0.5365850000000  0.5168710000000  0.5186550000000 1.0
C      1  0.4716590000000  0.4829490000000  0.3922430000000 1.0
C      1  0.4179350000000  0.5210640000000  0.4336540000000 1.0
C      1  0.4848940000000  0.5039340000000  0.4344020000000 1.0
C      1  0.4601990000000  0.4317950000000  0.4794920000000 1.0
C      1  0.5785010000000  0.4238170000000  0.4968720000000 1.0
C      1  0.5524120000000  0.4597300000000  0.5719870000000 1.0
C      1  0.4870930000000  0.4848940000000  0.5517150000000 1.0
C      1  0.4629120000000  0.3979100000000  0.4787270000000 1.0
C      1  0.5775520000000  0.5429800000000  0.4414200000000 1.0
C      1  0.4263010000000  0.5524920000000  0.5220620000000 1.0
C      1  0.5564360000000  0.4847100000000  0.4243600000000 1.0
C      1  0.5085020000000  0.5965660000000  0.5046890000000 1.0
C      1  0.4559660000000  0.4345480000000  0.5635390000000 1.0
C      1  0.3845250000000  0.5000070000000  0.4738330000000 1.0
C      1  0.4099890000000  0.4822220000000  0.4596070000000 1.0
C      1  0.5328870000000  0.5080250000000  0.5676090000000 1.0
C      1  0.4758200000000  0.5478910000000  0.4196210000000 1.0
C      1  0.4913970000000  0.4032900000000  0.5554400000000 1.0
C      1  0.4304850000000  0.5596950000000  0.5550370000000 1.0
C      1  0.5809420000000  0.4924390000000  0.4427120000000 1.0
C      1  0.4432040000000  0.4844690000000  0.5437790000000 1.0
C      1  0.4413570000000  0.4600230000000  0.5903500000000 1.0
C      1  0.5934750000000  0.4765860000000  0.5731580000000 1.0
C      1  0.4548810000000  0.5063170000000  0.5660720000000 1.0
C      1  0.6031190000000  0.4961950000000  0.4682140000000 1.0
C      1  0.5602560000000  0.3973140000000  0.4849160000000 1.0
C      1  0.5444490000000  0.4749930000000  0.4734410000000 1.0
C      1  0.4940760000000  0.5083230000000  0.3891270000000 1.0
C      1  0.5449480000000  0.5143650000000  0.4123360000000 1.0
C      1  0.4678840000000  0.4377060000000  0.4173190000000 1.0
C      1  0.5329720000000  0.5796250000000  0.4456900000000 1.0
C      1  0.4854520000000  0.5142690000000  0.5786730000000 1.0
C      1  0.4582210000000  0.5459400000000  0.5297230000000 1.0
C      1  0.6058810000000  0.5426560000000  0.4896670000000 1.0
C      1  0.4576940000000  0.5248180000000  0.4704630000000 1.0
C      1  0.4269860000000  0.4914920000000  0.5164510000000 1.0
C      1  0.5006660000000  0.4244420000000  0.5167370000000 1.0
C      1  0.3792550000000  0.4963520000000  0.5053850000000 1.0
C      1  0.5248920000000  0.6009800000000  0.6009640000000 1.0
C      1  0.5938120000000  0.5010940000000  0.5207090000000 1.0
C      1  0.5309550000000  0.5584440000000  0.4119140000000 1.0
C      1  0.4562400000000  0.3986620000000  0.4492470000000 1.0
C      1  0.5308660000000  0.5354930000000  0.4335850000000 1.0
C      1  0.5159500000000  0.5510460000000  0.5517440000000 1.0
C      1  0.5668840000000  0.5945850000000  0.5042160000000 1.0
C      1  0.4847260000000  0.4512260000000  0.3940900000000 1.0
C      1  0.5203560000000  0.5203680000000  0.4889730000000 1.0
C      1  0.5806120000000  0.4141880000000  0.4643270000000 1.0
C      1  0.4467960000000  0.5427140000000  0.5795660000000 1.0
C      1  0.5063680000000  0.4564890000000  0.4929030000000 1.0
C      1  0.5235700000000  0.4272960000000  0.5874380000000 1.0
C      1  0.4979130000000  0.4651310000000  0.6279660000000 1.0
C      1  0.5381550000000  0.4267340000000  0.5297170000000 1.0
C      1  0.4338840000000  0.4218520000000  0.4967110000000 1.0
C      1  0.5428000000000  0.4252830000000  0.4790340000000 1.0
C      1  0.4080070000000  0.4877840000000  0.5624250000000 1.0
C      1  0.5115510000000  0.5068660000000  0.4526410000000 1.0
C      1  0.5328910000000  0.4521940000000  0.5477330000000 1.0
C      1  0.4881910000000  0.5641890000000  0.4930400000000 1.0
C      1  0.4582950000000  0.4929200000000  0.4285820000000 1.0
C      1  0.4921290000000  0.4835650000000  0.4676300000000 1.0
C      1  0.4086240000000  0.5098920000000  0.5384010000000 1.0
C      1  0.5486440000000  0.4516290000000  0.4230480000000 1.0
C      1  0.5758300000000  0.4811250000000  0.4819450000000 1.0
C      1  0.5213570000000  0.4869640000000  0.4953660000000 1.0
C      1  0.4150790000000  0.4533190000000  0.5139350000000 1.0
C      1  0.4094510000000  0.6144950000000  0.4797410000000 1.0
C      1  0.5266730000000  0.4074500000000  0.4566780000000 1.0
C      1  0.4202970000000  0.4408980000000  0.4319810000000 1.0
C      1  0.4732330000000  0.4639380000000  0.6139400000000 1.0
C      1  0.5258360000000  0.5588240000000  0.5822870000000 1.0
C      1  0.4766440000000  0.6040160000000  0.5052240000000 1.0
C      1  0.5816290000000  0.5070230000000  0.5729070000000 1.0
C      1  0.5128720000000  0.4174830000000  0.4328230000000 1.0
C      1  0.5704750000000  0.5352810000000  0.4125540000000 1.0
C      1  0.4464820000000  0.5192550000000  0.5140500000000 1.0
C      1  0.5539420000000  0.5909360000000  0.5339350000000 1.0
C      1  0.5902160000000  0.5619730000000  0.4662740000000 1.0
C      1  0.4620490000000  0.6036240000000  0.4744720000000 1.0
C      1  0.4674620000000  0.4962420000000  0.5113630000000 1.0
C      1  0.5591750000000  0.5919780000000  0.5649690000000 1.0
C      1  0.5044320000000  0.4504590000000  0.5610770000000 1.0
C      1  0.5909710000000  0.4450040000000  0.4556260000000 1.0
C      1  0.4650790000000  0.5213170000000  0.4013000000000 1.0
C      1  0.5499860000000  0.5810070000000  0.4818090000000 1.0
C      1  0.5106480000000  0.4881070000000  0.5276210000000 1.0
C      1  0.5678590000000  0.4326150000000  0.5587030000000 1.0
C      1  0.4890650000000  0.4271870000000  0.4634630000000 1.0
C      1  0.4398140000000  0.4175790000000  0.5239390000000 1.0
C      1  0.5593310000000  0.4476340000000  0.4678060000000 1.0
C      1  0.4741820000000  0.5909630000000  0.5554510000000 1.0
C      1  0.4921640000000  0.6059100000000  0.4684100000000 1.0
C      1  0.4420540000000  0.4215400000000  0.4315180000000 1.0
C      1  0.4811160000000  0.4150430000000  0.4347310000000 1.0
C      1  0.5709570000000  0.5183570000000  0.4604810000000 1.0
C      1  0.4990450000000  0.5908970000000  0.6020230000000 1.0
C      1  0.5638360000000  0.5249520000000  0.5950010000000 1.0
C      1  0.5122200000000  0.5461970000000  0.4595990000000 1.0
C      1  0.4798900000000  0.3916630000000  0.5072190000000 1.0
C      1  0.5872110000000  0.4598790000000  0.5523500000000 1.0
C      1  0.3852570000000  0.5205640000000  0.5200000000000 1.0
C      1  0.4706340000000  0.4922390000000  0.5999260000000 1.0
C      1  0.5140390000000  0.5806240000000  0.4199680000000 1.0
C      1  0.4926700000000  0.5661890000000  0.5804560000000 1.0
C      1  0.4766760000000  0.5576710000000  0.5516880000000 1.0
C      1  0.4045490000000  0.5306210000000  0.4777290000000 1.0
C      1  0.5229440000000  0.5976710000000  0.5345600000000 1.0
C      1  0.5177710000000  0.4760870000000  0.6056060000000 1.0
C      1  0.5392210000000  0.6035900000000  0.4666680000000 1.0
C      1  0.4156810000000  0.4522830000000  0.4618570000000 1.0
C      1  0.5655360000000  0.5739310000000  0.4460420000000 1.0
C      1  0.5640680000000  0.5394240000000  0.5444750000000 1.0
C      1  0.4097450000000  0.4363500000000  0.4871550000000 1.0
C      1  0.5492260000000  0.4703550000000  0.3943830000000 1.0
C      1  0.5349270000000  0.5513810000000  0.4845270000000 1.0
C      1  0.4457360000000  0.5822050000000  0.5403990000000 1.0
C      1  0.4804220000000  0.4384140000000  0.5402160000000 1.0
C      1  0.4668380000000  0.4381020000000  0.5955610000000 1.0
C      1  0.4438580000000  0.4653330000000  0.5027460000000 1.0
C      1  0.5185490000000  0.6149270000000  0.4805130000000 1.0
C      1  0.4914610000000  0.5150070000000  0.5258040000000 1.0
C      1  0.4305820000000  0.4682160000000  0.4150290000000 1.0
C      1  0.5038900000000  0.4548290000000  0.4598170000000 1.0
C      1  0.4400120000000  0.5705340000000  0.4721240000000 1.0
C      1  0.3948480000000  0.4759740000000  0.5163870000000 1.0
C      1  0.4618540000000  0.5250460000000  0.6022450000000 1.0
C      1  0.4425760000000  0.4958130000000  0.3985650000000 1.0
C      1  0.5404180000000  0.4143170000000  0.5674200000000 1.0
C      1  0.4724540000000  0.5615140000000  0.4673540000000 1.0
C      1  0.5088960000000  0.5777090000000  0.4696770000000 1.0
C      1  0.4283400000000  0.5256800000000  0.5572790000000 1.0
C      1  0.4944580000000  0.4755760000000  0.5821570000000 1.0
C      1  0.5849590000000  0.5678190000000  0.4973340000000 1.0
C      1  0.5015250000000  0.4756720000000  0.3778890000000 1.0
C      1  0.5562180000000  0.4887790000000  0.5654300000000 1.0
C      1  0.5884800000000  0.5214740000000  0.5464080000000 1.0
C      1  0.4920180000000  0.4253630000000  0.5782280000000 1.0
C      1  0.4918920000000  0.5300120000000  0.5529640000000 1.0
C      1  0.5423380000000  0.4887800000000  0.5343400000000 1.0
C      1  0.4756700000000  0.4690640000000  0.5262770000000 1.0
C      1  0.6059590000000  0.5328480000000  0.5195510000000 1.0
C      1  0.5406820000000  0.5190840000000  0.4617160000000 1.0
C      1  0.5415940000000  0.5851710000000  0.5841980000000 1.0
C      1  0.5560650000000  0.5559100000000  0.3988910000000 1.0
C      1  0.5695670000000  0.4254960000000  0.5267220000000 1.0
C      1  0.5154500000000  0.5076980000000  0.5932890000000 1.0
C      1  0.4476860000000  0.4570960000000  0.4638420000000 1.0
C      1  0.4446060000000  0.5476430000000  0.4090790000000 1.0
C      1  0.5025760000000  0.5409840000000  0.5093520000000 1.0
C      1  0.4205910000000  0.4580210000000  0.5636660000000 1.0
C      1  0.5002710000000  0.4093190000000  0.4865020000000 1.0
C      1  0.5031290000000  0.4275030000000  0.4018170000000 1.0
C      1  0.3894720000000  0.5410450000000  0.5019030000000 1.0
C      1  0.4820460000000  0.5346390000000  0.4488280000000 1.0
C      1  0.4306560000000  0.6006130000000  0.4769010000000 1.0
END
