TITL C-3289326-3776-385 -0.00236068545325485 125000 -864.626752583991 0 0 156 (C1) n - 1
REM
REM in /nfs/bkarasulu/CARBON/AIRSS/Generating-Clusters/AIREBO/with-SteepDescent/Higher-Symm/SD-CG/HFTN-CG
REM
REM
REM
REM
REM
REM ./C.cell (b20cbc046b6831c77cfcea5457e17084)
REM
REM compiler GCC version 9.2.1 20190827 (Red Hat 9.2.1-1)
REM options -cpp -mtune=generic -march=x86-64 -g -O0 -fpre-include=/usr/include/finclude/math-vector-fortran.h
REM seed 1717724983 -1248262317 -1383603790 -1752973132 -847049544 -2001168735 1125814160 -885808323 -1781539299 1951951266 256250416 -471630490 1928604560 690679858 -1232608537 -1566919082 531519852 -2009295056 -846471432 -352743290 663503495 1071696322 -1324324187 1915052528 -358415733 405876 -1928342067 793459222 -151884859 222790371 -40435708 -11945240 888120989
REM
CELL 1.54180   50.00000   50.00000   50.00000   90.00000   90.00000   90.00000
LATT -1
SFAC C  
C      1  0.4466930000000  0.4281760000000  0.5237480000000 1.0
C      1  0.5235480000000  0.4437330000000  0.4309390000000 1.0
C      1  0.4263760000000  0.5197170000000  0.4654310000000 1.0
C      1  0.5388320000000  0.5626680000000  0.5227820000000 1.0
C      1  0.5540670000000  0.4285980000000  0.4735060000000 1.0
C      1  0.4594000000000  0.5651890000000  0.4736510000000 1.0
C      1  0.4932040000000  0.5508160000000  0.4116040000000 1.0
C      1  0.4731680000000  0.4678170000000  0.5696820000000 1.0
C      1  0.5231340000000  0.5373160000000  0.5633220000000 1.0
C      1  0.5709320000000  0.4683950000000  0.4467080000000 1.0
C      1  0.5714540000000  0.5188600000000  0.5444960000000 1.0
C      1  0.4347110000000  0.4789370000000  0.5422890000000 1.0
C      1  0.4253600000000  0.4510380000000  0.5245480000000 1.0
C      1  0.4485170000000  0.5150480000000  0.4419260000000 1.0
C      1  0.5230780000000  0.4328910000000  0.4613210000000 1.0
C      1  0.5693850000000  0.5491480000000  0.5291230000000 1.0
C      1  0.4332610000000  0.5510700000000  0.4766560000000 1.0
C      1  0.5707110000000  0.4565590000000  0.4761380000000 1.0
C      1  0.5415550000000  0.4723050000000  0.4361500000000 1.0
C      1  0.4440870000000  0.4798880000000  0.5713790000000 1.0
C      1  0.5526520000000  0.5233870000000  0.5711470000000 1.0
C      1  0.4828150000000  0.5811050000000  0.4548020000000 1.0
C      1  0.5253900000000  0.5640630000000  0.5511900000000 1.0
C      1  0.4695840000000  0.4235530000000  0.5487900000000 1.0
C      1  0.5173310000000  0.4657310000000  0.4056770000000 1.0
C      1  0.4008500000000  0.5354570000000  0.4494050000000 1.0
C      1  0.4643550000000  0.4003090000000  0.5173140000000 1.0
C      1  0.4667040000000  0.5518930000000  0.4039410000000 1.0
C      1  0.4690800000000  0.4568170000000  0.6202390000000 1.0
C      1  0.5218000000000  0.5320590000000  0.5946640000000 1.0
C      1  0.5990440000000  0.4795350000000  0.4583540000000 1.0
C      1  0.6202320000000  0.5509240000000  0.5370070000000 1.0
C      1  0.4008170000000  0.4762580000000  0.5425670000000 1.0
C      1  0.5265920000000  0.5934290000000  0.5149370000000 1.0
C      1  0.5429420000000  0.3987850000000  0.4661640000000 1.0
C      1  0.4545190000000  0.5980650000000  0.4765360000000 1.0
C      1  0.4535610000000  0.5254340000000  0.4101120000000 1.0
C      1  0.5464080000000  0.3818500000000  0.4472030000000 1.0
C      1  0.3939850000000  0.4476450000000  0.5372170000000 1.0
C      1  0.5402840000000  0.4844040000000  0.4043860000000 1.0
C      1  0.4535080000000  0.4795600000000  0.6040500000000 1.0
C      1  0.5501660000000  0.5307870000000  0.6042420000000 1.0
C      1  0.4623690000000  0.6084820000000  0.4490890000000 1.0
C      1  0.5086460000000  0.6032420000000  0.5345440000000 1.0
C      1  0.4816730000000  0.3958460000000  0.5433680000000 1.0
C      1  0.6001460000000  0.5409430000000  0.5236620000000 1.0
C      1  0.3995740000000  0.5455560000000  0.4798050000000 1.0
C      1  0.6191890000000  0.4589250000000  0.4664380000000 1.0
C      1  0.4925830000000  0.4745210000000  0.5440560000000 1.0
C      1  0.5490110000000  0.4992530000000  0.4732470000000 1.0
C      1  0.4771630000000  0.5473220000000  0.4916010000000 1.0
C      1  0.4975140000000  0.5219680000000  0.5470680000000 1.0
C      1  0.4961150000000  0.4791410000000  0.4630880000000 1.0
C      1  0.5057980000000  0.5174090000000  0.4597610000000 1.0
C      1  0.4513970000000  0.5028700000000  0.4816640000000 1.0
C      1  0.4535300000000  0.4964040000000  0.5210350000000 1.0
C      1  0.5405080000000  0.4925090000000  0.5227980000000 1.0
C      1  0.5320700000000  0.4558940000000  0.5092320000000 1.0
C      1  0.5252900000000  0.5404420000000  0.5056360000000 1.0
C      1  0.4840690000000  0.4550840000000  0.4925120000000 1.0
C      1  0.4720330000000  0.4995210000000  0.5453730000000 1.0
C      1  0.5065870000000  0.5415380000000  0.4785160000000 1.0
C      1  0.5545360000000  0.4768160000000  0.4960160000000 1.0
C      1  0.5183390000000  0.4953780000000  0.5418570000000 1.0
C      1  0.4757950000000  0.5059700000000  0.4581800000000 1.0
C      1  0.5263050000000  0.4904620000000  0.4561120000000 1.0
C      1  0.5142050000000  0.4562060000000  0.4802710000000 1.0
C      1  0.5024380000000  0.4626620000000  0.5176330000000 1.0
C      1  0.4960620000000  0.5346550000000  0.5164060000000 1.0
C      1  0.4563270000000  0.5266760000000  0.5058630000000 1.0
C      1  0.5417640000000  0.5143710000000  0.5006820000000 1.0
C      1  0.4680600000000  0.4791450000000  0.4986490000000 1.0
C      1  0.5035490000000  0.4053900000000  0.4657640000000 1.0
C      1  0.4753470000000  0.5023990000000  0.4000670000000 1.0
C      1  0.4120510000000  0.4749730000000  0.5042840000000 1.0
C      1  0.4942600000000  0.5998220000000  0.4796570000000 1.0
C      1  0.5038740000000  0.4047090000000  0.5192060000000 1.0
C      1  0.4883560000000  0.6207870000000  0.5262070000000 1.0
C      1  0.5337450000000  0.5104220000000  0.3964820000000 1.0
C      1  0.5105760000000  0.4929340000000  0.5972870000000 1.0
C      1  0.4727130000000  0.5022970000000  0.5887570000000 1.0
C      1  0.6033980000000  0.5182930000000  0.5008580000000 1.0
C      1  0.5991330000000  0.4520880000000  0.4873480000000 1.0
C      1  0.3926810000000  0.5255840000000  0.5048730000000 1.0
C      1  0.4044950000000  0.5024340000000  0.4848360000000 1.0
C      1  0.4951430000000  0.4805180000000  0.4123370000000 1.0
C      1  0.4839230000000  0.4049100000000  0.4934530000000 1.0
C      1  0.5945430000000  0.5024620000000  0.4731550000000 1.0
C      1  0.4078330000000  0.5021440000000  0.5243150000000 1.0
C      1  0.5947810000000  0.5016230000000  0.5276030000000 1.0
C      1  0.5036390000000  0.5204570000000  0.4060650000000 1.0
C      1  0.4944100000000  0.5213050000000  0.6034100000000 1.0
C      1  0.4900700000000  0.4658240000000  0.5964440000000 1.0
C      1  0.5207610000000  0.6010960000000  0.4883750000000 1.0
C      1  0.4714150000000  0.6076880000000  0.5007310000000 1.0
C      1  0.5238720000000  0.4005620000000  0.4926140000000 1.0
C      1  0.4580100000000  0.5742110000000  0.5370370000000 1.0
C      1  0.5157830000000  0.4462500000000  0.5704110000000 1.0
C      1  0.5708550000000  0.5205200000000  0.4580280000000 1.0
C      1  0.5458520000000  0.4305050000000  0.5272340000000 1.0
C      1  0.5492840000000  0.5657800000000  0.4733100000000 1.0
C      1  0.4719800000000  0.4315290000000  0.4802010000000 1.0
C      1  0.4793810000000  0.5431400000000  0.5668970000000 1.0
C      1  0.4797850000000  0.4707980000000  0.4378390000000 1.0
C      1  0.5222100000000  0.5222580000000  0.4328080000000 1.0
C      1  0.4384630000000  0.4756150000000  0.4659720000000 1.0
C      1  0.4327030000000  0.5343510000000  0.5501350000000 1.0
C      1  0.5686470000000  0.4806220000000  0.5335810000000 1.0
C      1  0.5736700000000  0.4500260000000  0.5284170000000 1.0
C      1  0.4559580000000  0.5191650000000  0.5649080000000 1.0
C      1  0.5183380000000  0.5635150000000  0.4605170000000 1.0
C      1  0.4437050000000  0.5498060000000  0.5264830000000 1.0
C      1  0.5582950000000  0.5368460000000  0.4829500000000 1.0
C      1  0.4249960000000  0.4521720000000  0.4826230000000 1.0
C      1  0.5241200000000  0.4788950000000  0.5698450000000 1.0
C      1  0.4484400000000  0.4752350000000  0.4382770000000 1.0
C      1  0.5532860000000  0.5221220000000  0.4292950000000 1.0
C      1  0.4769200000000  0.4287600000000  0.4475610000000 1.0
C      1  0.5335970000000  0.4275600000000  0.5574180000000 1.0
C      1  0.4789130000000  0.5696570000000  0.5543320000000 1.0
C      1  0.4711500000000  0.4498810000000  0.3998250000000 1.0
C      1  0.3847770000000  0.4787240000000  0.4752750000000 1.0
C      1  0.4484830000000  0.4000680000000  0.4731210000000 1.0
C      1  0.5644750000000  0.5521440000000  0.3840650000000 1.0
C      1  0.5206770000000  0.4547510000000  0.6014900000000 1.0
C      1  0.4667570000000  0.5403220000000  0.5975050000000 1.0
C      1  0.5973160000000  0.5415930000000  0.4566800000000 1.0
C      1  0.6134660000000  0.4753840000000  0.5270160000000 1.0
C      1  0.4056600000000  0.5276350000000  0.5425370000000 1.0
C      1  0.5402350000000  0.5956050000000  0.4692900000000 1.0
C      1  0.5426700000000  0.3975530000000  0.5185430000000 1.0
C      1  0.4548970000000  0.5996710000000  0.5278110000000 1.0
C      1  0.4568480000000  0.4741780000000  0.4049900000000 1.0
C      1  0.4708930000000  0.3996150000000  0.4562940000000 1.0
C      1  0.3938170000000  0.4550090000000  0.4748840000000 1.0
C      1  0.5549330000000  0.5315040000000  0.3982660000000 1.0
C      1  0.4420750000000  0.5286760000000  0.6016800000000 1.0
C      1  0.5359820000000  0.4769900000000  0.6142620000000 1.0
C      1  0.5306360000000  0.5886860000000  0.4411390000000 1.0
C      1  0.4622360000000  0.6263090000000  0.5432840000000 1.0
C      1  0.5248220000000  0.4015250000000  0.5449860000000 1.0
C      1  0.6145200000000  0.5369400000000  0.4752220000000 1.0
C      1  0.3923800000000  0.5511920000000  0.5266920000000 1.0
C      1  0.6011910000000  0.4539740000000  0.5147160000000 1.0
C      1  0.4335700000000  0.5036030000000  0.5941240000000 1.0
C      1  0.4195580000000  0.5551030000000  0.5066360000000 1.0
C      1  0.5038580000000  0.5819640000000  0.5525910000000 1.0
C      1  0.5534490000000  0.4928580000000  0.5606390000000 1.0
C      1  0.5705200000000  0.5624530000000  0.4991080000000 1.0
C      1  0.4859200000000  0.4403290000000  0.5634960000000 1.0
C      1  0.5003010000000  0.5661190000000  0.4333880000000 1.0
C      1  0.4910750000000  0.4426460000000  0.4249020000000 1.0
C      1  0.4362590000000  0.4974400000000  0.4155910000000 1.0
C      1  0.5729370000000  0.4952000000000  0.4272480000000 1.0
C      1  0.4416520000000  0.4285770000000  0.4904020000000 1.0
C      1  0.5690570000000  0.4272860000000  0.5025900000000 1.0
END
