TITL C-3289321-8710-317 -0.000202358198515786 125000 -459.383803005296 0 0 97 (C1) n - 1
REM
REM in /nfs/bkarasulu/CARBON/AIRSS/Generating-Clusters/AIREBO/with-SteepDescent/Higher-Symm/SD-CG/HFTN-CG
REM
REM
REM
REM
REM
REM ./C.cell (b20cbc046b6831c77cfcea5457e17084)
REM
REM compiler GCC version 9.2.1 20190827 (Red Hat 9.2.1-1)
REM options -cpp -mtune=generic -march=x86-64 -g -O0 -fpre-include=/usr/include/finclude/math-vector-fortran.h
REM seed -390159293 1691390334 -176432210 2080509817 -453156882 1108720959 99257173 1552076140 470727125 223111610 -1478565649 -42230185 184101943 -355387207 1327771514 917789091 2010038790 -648036434 -1076969055 1699162774 1909326156 1590804429 543641865 -1955122434 -915895615 -2069002960 1926642184 519127204 -401132675 -1167841077 -1876508023 -704538675 -534686246
REM
CELL 1.54180   50.00000   50.00000   50.00000   90.00000   90.00000   90.00000
LATT -1
SFAC C  
C      1  0.4694450000000  0.4328390000000  0.4937250000000 1.0
C      1  0.5272120000000  0.5607570000000  0.4912410000000 1.0
C      1  0.4673560000000  0.5736630000000  0.4988830000000 1.0
C      1  0.5305110000000  0.4293460000000  0.5051400000000 1.0
C      1  0.4396660000000  0.4632330000000  0.5043860000000 1.0
C      1  0.5589470000000  0.5351490000000  0.5044250000000 1.0
C      1  0.4354450000000  0.5345060000000  0.4828210000000 1.0
C      1  0.5556720000000  0.4655830000000  0.4909490000000 1.0
C      1  0.4682440000000  0.4659220000000  0.4859060000000 1.0
C      1  0.5352720000000  0.5293340000000  0.4806720000000 1.0
C      1  0.4602630000000  0.5427490000000  0.5045500000000 1.0
C      1  0.5333990000000  0.4614880000000  0.5163290000000 1.0
C      1  0.4852310000000  0.5236510000000  0.4915870000000 1.0
C      1  0.5116660000000  0.4736140000000  0.4931610000000 1.0
C      1  0.4850720000000  0.4724000000000  0.5143330000000 1.0
C      1  0.5199510000000  0.5342710000000  0.5201070000000 1.0
C      1  0.5527900000000  0.4686540000000  0.5554860000000 1.0
C      1  0.4512030000000  0.5148990000000  0.5464410000000 1.0
C      1  0.5523610000000  0.5246340000000  0.4516350000000 1.0
C      1  0.4455610000000  0.4874130000000  0.4499980000000 1.0
C      1  0.4593320000000  0.4683770000000  0.5729530000000 1.0
C      1  0.5538350000000  0.5372010000000  0.5811410000000 1.0
C      1  0.4584740000000  0.5320280000000  0.4226870000000 1.0
C      1  0.5443670000000  0.4710380000000  0.4318550000000 1.0
C      1  0.5104710000000  0.5082580000000  0.5394540000000 1.0
C      1  0.5095560000000  0.4746520000000  0.5373950000000 1.0
C      1  0.4916230000000  0.4848650000000  0.4686810000000 1.0
C      1  0.5065950000000  0.5165900000000  0.4666600000000 1.0
C      1  0.5497310000000  0.4884060000000  0.5291820000000 1.0
C      1  0.4512730000000  0.5130680000000  0.5124540000000 1.0
C      1  0.5397330000000  0.5012400000000  0.4993180000000 1.0
C      1  0.4516290000000  0.4950910000000  0.4825730000000 1.0
C      1  0.4164130000000  0.5108850000000  0.4929980000000 1.0
C      1  0.5782010000000  0.4855880000000  0.5006040000000 1.0
C      1  0.4161010000000  0.4862450000000  0.4984330000000 1.0
C      1  0.5798890000000  0.5104020000000  0.5026280000000 1.0
C      1  0.5068700000000  0.4422520000000  0.4843740000000 1.0
C      1  0.4893710000000  0.5554690000000  0.4803210000000 1.0
C      1  0.5005240000000  0.5555200000000  0.5116520000000 1.0
C      1  0.4940950000000  0.4407080000000  0.5158460000000 1.0
C      1  0.4258580000000  0.5283150000000  0.5542620000000 1.0
C      1  0.5784640000000  0.4577580000000  0.5584010000000 1.0
C      1  0.4195130000000  0.4735310000000  0.4472610000000 1.0
C      1  0.5782000000000  0.5386080000000  0.4520980000000 1.0
C      1  0.4915680000000  0.4627390000000  0.5637040000000 1.0
C      1  0.5278390000000  0.5302470000000  0.5589310000000 1.0
C      1  0.4856770000000  0.5310360000000  0.4431580000000 1.0
C      1  0.5143290000000  0.4694510000000  0.4481920000000 1.0
C      1  0.5629850000000  0.5570990000000  0.5300780000000 1.0
C      1  0.4442610000000  0.4501720000000  0.5363420000000 1.0
C      1  0.5607320000000  0.4569090000000  0.4581000000000 1.0
C      1  0.4404580000000  0.5530150000000  0.4547360000000 1.0
C      1  0.5140840000000  0.4076000000000  0.5254720000000 1.0
C      1  0.4832490000000  0.5894500000000  0.5237240000000 1.0
C      1  0.5141600000000  0.5854740000000  0.4716150000000 1.0
C      1  0.4838990000000  0.4128080000000  0.4703570000000 1.0
C      1  0.4957710000000  0.5361290000000  0.5686090000000 1.0
C      1  0.5141050000000  0.4500520000000  0.5857790000000 1.0
C      1  0.4899030000000  0.4632810000000  0.4253420000000 1.0
C      1  0.5096510000000  0.5390640000000  0.4204160000000 1.0
C      1  0.4374920000000  0.5200910000000  0.4433890000000 1.0
C      1  0.5614810000000  0.4918690000000  0.4522020000000 1.0
C      1  0.4444570000000  0.4812710000000  0.5502060000000 1.0
C      1  0.5674460000000  0.5378120000000  0.5552150000000 1.0
C      1  0.4734490000000  0.4375300000000  0.5497520000000 1.0
C      1  0.5332990000000  0.5612970000000  0.5461460000000 1.0
C      1  0.4719260000000  0.5620770000000  0.4451770000000 1.0
C      1  0.5313760000000  0.4404180000000  0.4531200000000 1.0
C      1  0.4570230000000  0.4844350000000  0.5214410000000 1.0
C      1  0.5480300000000  0.5204280000000  0.5333750000000 1.0
C      1  0.4624910000000  0.5220520000000  0.4663540000000 1.0
C      1  0.5349420000000  0.4840500000000  0.4709620000000 1.0
C      1  0.4750000000000  0.5388190000000  0.5508260000000 1.0
C      1  0.5286800000000  0.4482610000000  0.5604460000000 1.0
C      1  0.4678380000000  0.4619890000000  0.4461690000000 1.0
C      1  0.5314280000000  0.5474350000000  0.4375480000000 1.0
C      1  0.4691290000000  0.5070140000000  0.5742560000000 1.0
C      1  0.5411970000000  0.4857910000000  0.5805920000000 1.0
C      1  0.4625370000000  0.4923670000000  0.4209430000000 1.0
C      1  0.5362580000000  0.5096900000000  0.4256690000000 1.0
C      1  0.5202730000000  0.5029920000000  0.5778150000000 1.0
C      1  0.4934960000000  0.4943220000000  0.5761470000000 1.0
C      1  0.5133450000000  0.4954970000000  0.4263540000000 1.0
C      1  0.4870420000000  0.5038420000000  0.4236810000000 1.0
C      1  0.5119700000000  0.4127130000000  0.4580340000000 1.0
C      1  0.4867250000000  0.5894740000000  0.4588740000000 1.0
C      1  0.5102360000000  0.5851390000000  0.5366860000000 1.0
C      1  0.4855500000000  0.4082740000000  0.5373480000000 1.0
C      1  0.4560800000000  0.5793340000000  0.4695560000000 1.0
C      1  0.5371900000000  0.4176690000000  0.4769810000000 1.0
C      1  0.4589360000000  0.4234990000000  0.5223880000000 1.0
C      1  0.5333980000000  0.5777510000000  0.5164740000000 1.0
C      1  0.4791550000000  0.5601680000000  0.5346350000000 1.0
C      1  0.5147050000000  0.4352600000000  0.5411020000000 1.0
C      1  0.4854380000000  0.4423510000000  0.4587510000000 1.0
C      1  0.5117480000000  0.5588880000000  0.4549720000000 1.0
C      1  0.5005270000000  0.5021110000000  0.5084640000000 1.0
END
