TITL C-3289331-6719-141 0.000551935277977998 125000 -1048.40033099576 0 0 192 (C1) n - 1
REM
REM in /nfs/bkarasulu/CARBON/AIRSS/Generating-Clusters/AIREBO/with-SteepDescent/Higher-Symm/SD-CG/HFTN-CG
REM
REM
REM
REM
REM
REM ./C.cell (b20cbc046b6831c77cfcea5457e17084)
REM
REM compiler GCC version 9.2.1 20190827 (Red Hat 9.2.1-1)
REM options -cpp -mtune=generic -march=x86-64 -g -O0 -fpre-include=/usr/include/finclude/math-vector-fortran.h
REM seed 1967614844 1109765989 -489735818 -1970735557 480229128 1548949184 1842507056 -1468007025 -1670582957 837862017 -337715423 1250773342 618954097 765743533 -1607129162 896178452 -1794623196 723521750 -2104249112 -1046568659 1813273390 514246509 -419499176 1609324305 1992129995 -488925157 -483296990 -1829757523 -756871375 895300539 -1660866488 435687830 -773559432
REM
CELL 1.54180   50.00000   50.00000   50.00000   90.00000   90.00000   90.00000
LATT -1
SFAC C  
C      1  0.5758810000000  0.5032310000000  0.5574230000000 1.0
C      1  0.5728900000000  0.4252230000000  0.5133600000000 1.0
C      1  0.5774430000000  0.4653010000000  0.4505600000000 1.0
C      1  0.5807030000000  0.5344170000000  0.4501830000000 1.0
C      1  0.5744180000000  0.5544120000000  0.5209350000000 1.0
C      1  0.4819440000000  0.4011800000000  0.5531750000000 1.0
C      1  0.4788800000000  0.4199450000000  0.4247360000000 1.0
C      1  0.4784730000000  0.5426950000000  0.4083580000000 1.0
C      1  0.4822840000000  0.6163840000000  0.5048840000000 1.0
C      1  0.4804690000000  0.5225260000000  0.6021550000000 1.0
C      1  0.5048470000000  0.4200120000000  0.5671250000000 1.0
C      1  0.4978700000000  0.4147150000000  0.4508600000000 1.0
C      1  0.5044630000000  0.5229580000000  0.4140740000000 1.0
C      1  0.5049140000000  0.5996860000000  0.4878740000000 1.0
C      1  0.5068550000000  0.5380310000000  0.5918650000000 1.0
C      1  0.6027500000000  0.4990550000000  0.5523670000000 1.0
C      1  0.5964650000000  0.4397490000000  0.5168750000000 1.0
C      1  0.6030940000000  0.4748900000000  0.4708160000000 1.0
C      1  0.5990990000000  0.5140460000000  0.4407950000000 1.0
C      1  0.6014220000000  0.5476490000000  0.5234080000000 1.0
C      1  0.5701020000000  0.4105610000000  0.4860300000000 1.0
C      1  0.5703260000000  0.4701410000000  0.4174880000000 1.0
C      1  0.5491910000000  0.5834180000000  0.4552990000000 1.0
C      1  0.5373030000000  0.5674690000000  0.5711630000000 1.0
C      1  0.5445220000000  0.4524290000000  0.5785410000000 1.0
C      1  0.4893450000000  0.5698540000000  0.5274330000000 1.0
C      1  0.4929840000000  0.4926060000000  0.5663990000000 1.0
C      1  0.4889860000000  0.4268550000000  0.5179780000000 1.0
C      1  0.4871520000000  0.4580940000000  0.4348740000000 1.0
C      1  0.4899890000000  0.5577740000000  0.4484960000000 1.0
C      1  0.4827080000000  0.4403040000000  0.4624840000000 1.0
C      1  0.4798210000000  0.5085270000000  0.4318600000000 1.0
C      1  0.4931730000000  0.5728440000000  0.4963750000000 1.0
C      1  0.4924830000000  0.5265520000000  0.5643150000000 1.0
C      1  0.4906690000000  0.4399070000000  0.5493280000000 1.0
C      1  0.4995520000000  0.4398870000000  0.6043460000000 1.0
C      1  0.5074860000000  0.3991740000000  0.4780320000000 1.0
C      1  0.5010150000000  0.4909270000000  0.4030760000000 1.0
C      1  0.5051510000000  0.6047870000000  0.4542400000000 1.0
C      1  0.4938560000000  0.5868220000000  0.5838470000000 1.0
C      1  0.5486580000000  0.5278120000000  0.4427970000000 1.0
C      1  0.5522520000000  0.5770870000000  0.5085740000000 1.0
C      1  0.5484820000000  0.5142290000000  0.5720550000000 1.0
C      1  0.5452210000000  0.4372730000000  0.5290840000000 1.0
C      1  0.5486130000000  0.4481200000000  0.4449920000000 1.0
C      1  0.4067150000000  0.5446990000000  0.5338750000000 1.0
C      1  0.4076390000000  0.4833760000000  0.5556820000000 1.0
C      1  0.4062730000000  0.4458830000000  0.4985880000000 1.0
C      1  0.4045050000000  0.4866090000000  0.4494870000000 1.0
C      1  0.4060240000000  0.5470720000000  0.4711810000000 1.0
C      1  0.5366990000000  0.4197360000000  0.5571570000000 1.0
C      1  0.5492990000000  0.4179140000000  0.4370780000000 1.0
C      1  0.5484690000000  0.5246000000000  0.4089490000000 1.0
C      1  0.5363420000000  0.6051690000000  0.4976240000000 1.0
C      1  0.5328490000000  0.5234860000000  0.5979760000000 1.0
C      1  0.4578490000000  0.5356560000000  0.5908230000000 1.0
C      1  0.4470150000000  0.4175210000000  0.5429870000000 1.0
C      1  0.4413670000000  0.4317480000000  0.4313480000000 1.0
C      1  0.4466160000000  0.5458440000000  0.4196280000000 1.0
C      1  0.4480210000000  0.5962860000000  0.5169960000000 1.0
C      1  0.4542550000000  0.5661330000000  0.5025320000000 1.0
C      1  0.4525750000000  0.5264510000000  0.5622780000000 1.0
C      1  0.4545090000000  0.4504060000000  0.5371160000000 1.0
C      1  0.4513030000000  0.4467380000000  0.4602220000000 1.0
C      1  0.4554300000000  0.5217160000000  0.4419230000000 1.0
C      1  0.4426810000000  0.5277790000000  0.5297740000000 1.0
C      1  0.4446200000000  0.4820060000000  0.5405180000000 1.0
C      1  0.4420020000000  0.4602150000000  0.4878000000000 1.0
C      1  0.4418750000000  0.4968250000000  0.4593250000000 1.0
C      1  0.4396990000000  0.5381880000000  0.4907660000000 1.0
C      1  0.5587700000000  0.5267560000000  0.5215580000000 1.0
C      1  0.5627170000000  0.4889520000000  0.5339470000000 1.0
C      1  0.5717360000000  0.4664910000000  0.5007710000000 1.0
C      1  0.5665180000000  0.4901350000000  0.4699820000000 1.0
C      1  0.5722860000000  0.5276560000000  0.4824290000000 1.0
C      1  0.4658220000000  0.5205230000000  0.4807500000000 1.0
C      1  0.4677080000000  0.5201640000000  0.5133110000000 1.0
C      1  0.4683640000000  0.4906850000000  0.5237060000000 1.0
C      1  0.4689190000000  0.4726950000000  0.4997860000000 1.0
C      1  0.4707080000000  0.4899560000000  0.4742080000000 1.0
C      1  0.4577970000000  0.6019580000000  0.4861450000000 1.0
C      1  0.4489180000000  0.5622590000000  0.5913780000000 1.0
C      1  0.4633010000000  0.4222640000000  0.5724520000000 1.0
C      1  0.4585770000000  0.4089680000000  0.4498260000000 1.0
C      1  0.4546840000000  0.5178020000000  0.4021700000000 1.0
C      1  0.4402680000000  0.4128480000000  0.4782770000000 1.0
C      1  0.4377160000000  0.4935030000000  0.4104160000000 1.0
C      1  0.4354690000000  0.5866880000000  0.4693560000000 1.0
C      1  0.4296380000000  0.5658540000000  0.5707280000000 1.0
C      1  0.4457710000000  0.4512790000000  0.5756040000000 1.0
C      1  0.4160540000000  0.5662090000000  0.5143280000000 1.0
C      1  0.4151650000000  0.5139070000000  0.5688280000000 1.0
C      1  0.4164270000000  0.4416950000000  0.5286770000000 1.0
C      1  0.4111430000000  0.4550170000000  0.4518760000000 1.0
C      1  0.4162550000000  0.5347300000000  0.4439770000000 1.0
C      1  0.4148170000000  0.5181550000000  0.5199400000000 1.0
C      1  0.4170390000000  0.4884520000000  0.5249240000000 1.0
C      1  0.4158640000000  0.4759880000000  0.4978020000000 1.0
C      1  0.4149420000000  0.4972080000000  0.4769470000000 1.0
C      1  0.4113970000000  0.5227560000000  0.4902480000000 1.0
C      1  0.4737830000000  0.4643460000000  0.5614100000000 1.0
C      1  0.4694660000000  0.4256210000000  0.4901520000000 1.0
C      1  0.4665260000000  0.4826900000000  0.4249310000000 1.0
C      1  0.4711320000000  0.5613140000000  0.4742980000000 1.0
C      1  0.4733620000000  0.5475580000000  0.5455870000000 1.0
C      1  0.5403520000000  0.5511670000000  0.4003530000000 1.0
C      1  0.5325650000000  0.6257220000000  0.5228690000000 1.0
C      1  0.5328270000000  0.5040960000000  0.6171990000000 1.0
C      1  0.5377780000000  0.3885240000000  0.5523690000000 1.0
C      1  0.5334240000000  0.4140720000000  0.4148150000000 1.0
C      1  0.5258290000000  0.4889340000000  0.5744520000000 1.0
C      1  0.5220460000000  0.4205200000000  0.5131850000000 1.0
C      1  0.5208750000000  0.4581190000000  0.4305200000000 1.0
C      1  0.5186150000000  0.5429260000000  0.4377060000000 1.0
C      1  0.5219130000000  0.5789800000000  0.5238650000000 1.0
C      1  0.5323690000000  0.5569900000000  0.4654460000000 1.0
C      1  0.5296190000000  0.5562900000000  0.5429590000000 1.0
C      1  0.5332720000000  0.4669750000000  0.5530000000000 1.0
C      1  0.5293380000000  0.4250840000000  0.4810630000000 1.0
C      1  0.5247390000000  0.4903520000000  0.4252730000000 1.0
C      1  0.5143050000000  0.5674470000000  0.5874720000000 1.0
C      1  0.5257300000000  0.4296520000000  0.5894340000000 1.0
C      1  0.5506900000000  0.4053950000000  0.4633840000000 1.0
C      1  0.5503200000000  0.4936580000000  0.4031020000000 1.0
C      1  0.5359050000000  0.6065170000000  0.4645230000000 1.0
C      1  0.4755940000000  0.5726990000000  0.4241840000000 1.0
C      1  0.4704360000000  0.5912290000000  0.5402760000000 1.0
C      1  0.4810270000000  0.4898780000000  0.5981160000000 1.0
C      1  0.4735470000000  0.3967840000000  0.5216450000000 1.0
C      1  0.4699320000000  0.4468400000000  0.4078040000000 1.0
C      1  0.5100770000000  0.5342190000000  0.5395520000000 1.0
C      1  0.5100370000000  0.4572750000000  0.5330320000000 1.0
C      1  0.5082800000000  0.4510800000000  0.4769500000000 1.0
C      1  0.5068260000000  0.5041040000000  0.4491850000000 1.0
C      1  0.5080610000000  0.5486970000000  0.4829750000000 1.0
C      1  0.5667840000000  0.5638880000000  0.5718280000000 1.0
C      1  0.5888970000000  0.4486650000000  0.5597550000000 1.0
C      1  0.5877240000000  0.4362900000000  0.4780570000000 1.0
C      1  0.5820270000000  0.4972070000000  0.4270240000000 1.0
C      1  0.5777230000000  0.5775710000000  0.4610140000000 1.0
C      1  0.5109720000000  0.3969770000000  0.5351050000000 1.0
C      1  0.5073770000000  0.4333130000000  0.4115440000000 1.0
C      1  0.5243330000000  0.5699280000000  0.4181150000000 1.0
C      1  0.5048240000000  0.6078190000000  0.5289870000000 1.0
C      1  0.5245540000000  0.4797670000000  0.6048640000000 1.0
C      1  0.4144040000000  0.5426990000000  0.5612320000000 1.0
C      1  0.4190040000000  0.4549620000000  0.5549140000000 1.0
C      1  0.4146820000000  0.4347780000000  0.4735140000000 1.0
C      1  0.4150630000000  0.5069520000000  0.4314490000000 1.0
C      1  0.4165990000000  0.5703250000000  0.4849890000000 1.0
C      1  0.4689490000000  0.5817270000000  0.5971420000000 1.0
C      1  0.4772470000000  0.4241890000000  0.6012390000000 1.0
C      1  0.4828460000000  0.3864010000000  0.4575740000000 1.0
C      1  0.4790220000000  0.5091220000000  0.3867130000000 1.0
C      1  0.4776880000000  0.6185060000000  0.4655240000000 1.0
C      1  0.4400430000000  0.4700680000000  0.4421480000000 1.0
C      1  0.4441460000000  0.5465400000000  0.4594650000000 1.0
C      1  0.4434630000000  0.5603490000000  0.5336080000000 1.0
C      1  0.4434850000000  0.4965720000000  0.5665690000000 1.0
C      1  0.4439220000000  0.4377910000000  0.5090360000000 1.0
C      1  0.5328670000000  0.4949300000000  0.5242220000000 1.0
C      1  0.5412040000000  0.4653340000000  0.5102670000000 1.0
C      1  0.5358800000000  0.4865160000000  0.4841810000000 1.0
C      1  0.5401880000000  0.5190570000000  0.4752090000000 1.0
C      1  0.5327280000000  0.5202000000000  0.5053910000000 1.0
C      1  0.4975740000000  0.4614860000000  0.3946050000000 1.0
C      1  0.5034400000000  0.5888560000000  0.4273610000000 1.0
C      1  0.4922160000000  0.6019230000000  0.5601000000000 1.0
C      1  0.4996800000000  0.4670730000000  0.6098750000000 1.0
C      1  0.5007000000000  0.3878100000000  0.5046880000000 1.0
C      1  0.5526470000000  0.4954950000000  0.4427360000000 1.0
C      1  0.5608710000000  0.5586440000000  0.4839090000000 1.0
C      1  0.5563640000000  0.5377830000000  0.5524620000000 1.0
C      1  0.5652040000000  0.4595520000000  0.5452200000000 1.0
C      1  0.5553870000000  0.4468100000000  0.4782910000000 1.0
C      1  0.6046000000000  0.5205690000000  0.4855700000000 1.0
C      1  0.6116230000000  0.5225990000000  0.5121740000000 1.0
C      1  0.6110310000000  0.4970480000000  0.5248520000000 1.0
C      1  0.6040370000000  0.4705550000000  0.5046110000000 1.0
C      1  0.6110170000000  0.5022490000000  0.4645730000000 1.0
C      1  0.5040520000000  0.4833610000000  0.4729480000000 1.0
C      1  0.4909310000000  0.5282230000000  0.4646880000000 1.0
C      1  0.5003380000000  0.5290340000000  0.5096210000000 1.0
C      1  0.5007910000000  0.4889640000000  0.5338010000000 1.0
C      1  0.4932570000000  0.4566840000000  0.5032600000000 1.0
C      1  0.4525990000000  0.4803090000000  0.5908530000000 1.0
C      1  0.4437010000000  0.4039120000000  0.5119750000000 1.0
C      1  0.4386580000000  0.4585660000000  0.4101650000000 1.0
C      1  0.4451730000000  0.5738570000000  0.4393940000000 1.0
C      1  0.4377130000000  0.5895760000000  0.5493590000000 1.0
C      1  0.5005280000000  0.4970860000000  0.5010000000000 1.0
C      1  0.5684480000000  0.5003390000000  0.5023980000000 1.0
END
