TITL C-3289325-7307-116 -0.000315474667044051 125000 -976.063118692609 0 0 186 (C1) n - 1
REM
REM in /nfs/bkarasulu/CARBON/AIRSS/Generating-Clusters/AIREBO/with-SteepDescent/Higher-Symm/SD-CG/HFTN-CG
REM
REM
REM
REM
REM
REM ./C.cell (b20cbc046b6831c77cfcea5457e17084)
REM
REM compiler GCC version 9.2.1 20190827 (Red Hat 9.2.1-1)
REM options -cpp -mtune=generic -march=x86-64 -g -O0 -fpre-include=/usr/include/finclude/math-vector-fortran.h
REM seed 1499505981 1805782537 -981911967 1941204634 584485248 2078198947 -1104270301 -1616257589 -1015194012 64808568 -953537089 -863977538 -1465834453 1925608508 -388872888 -1641019973 -1964387896 454910195 728702294 1093570383 -817328337 -574321872 -691123850 -434724273 -628455435 -60634704 -1045091644 -177054693 2145598766 619734624 129313702 251816173 607079008
REM
CELL 1.54180   50.00000   50.00000   50.00000   90.00000   90.00000   90.00000
LATT -1
SFAC C  
C      1  0.5166100000000  0.4273350000000  0.5897400000000 1.0
C      1  0.5705720000000  0.4241000000000  0.4405710000000 1.0
C      1  0.4073670000000  0.4263770000000  0.4727920000000 1.0
C      1  0.3842560000000  0.4769990000000  0.5253640000000 1.0
C      1  0.5716910000000  0.4852690000000  0.5829730000000 1.0
C      1  0.5419150000000  0.4776790000000  0.3892100000000 1.0
C      1  0.5028690000000  0.4925800000000  0.4535630000000 1.0
C      1  0.4603210000000  0.4950060000000  0.5205980000000 1.0
C      1  0.5389230000000  0.4944440000000  0.5240970000000 1.0
C      1  0.4623370000000  0.5254280000000  0.5898600000000 1.0
C      1  0.5904240000000  0.5288350000000  0.4911750000000 1.0
C      1  0.4429630000000  0.5341490000000  0.4228130000000 1.0
C      1  0.5683160000000  0.5085770000000  0.4590280000000 1.0
C      1  0.4340540000000  0.5070100000000  0.4669140000000 1.0
C      1  0.5036580000000  0.5068770000000  0.5801610000000 1.0
C      1  0.5296180000000  0.4508310000000  0.4920950000000 1.0
C      1  0.4682990000000  0.4511680000000  0.4832220000000 1.0
C      1  0.5019840000000  0.4457940000000  0.5256550000000 1.0
C      1  0.4421430000000  0.4790340000000  0.5809760000000 1.0
C      1  0.6130770000000  0.4766520000000  0.4904400000000 1.0
C      1  0.4467490000000  0.4765120000000  0.4128230000000 1.0
C      1  0.5407190000000  0.4512390000000  0.5541090000000 1.0
C      1  0.5345770000000  0.4402510000000  0.4417360000000 1.0
C      1  0.4394410000000  0.4479310000000  0.5009360000000 1.0
C      1  0.5756690000000  0.5258020000000  0.5522500000000 1.0
C      1  0.5163910000000  0.5265060000000  0.4066810000000 1.0
C      1  0.4135180000000  0.5272020000000  0.5312450000000 1.0
C      1  0.5259850000000  0.5556150000000  0.4074510000000 1.0
C      1  0.4142720000000  0.5561460000000  0.5230070000000 1.0
C      1  0.5680430000000  0.5533420000000  0.5654050000000 1.0
C      1  0.5097240000000  0.4624520000000  0.5542530000000 1.0
C      1  0.5392100000000  0.4760860000000  0.4720460000000 1.0
C      1  0.4524130000000  0.4811860000000  0.4780760000000 1.0
C      1  0.4732210000000  0.4485610000000  0.5435760000000 1.0
C      1  0.5591540000000  0.4467530000000  0.5050230000000 1.0
C      1  0.4765110000000  0.4460380000000  0.4506190000000 1.0
C      1  0.4307640000000  0.4849020000000  0.5132530000000 1.0
C      1  0.5551700000000  0.4893620000000  0.5535320000000 1.0
C      1  0.5247320000000  0.4783600000000  0.4326460000000 1.0
C      1  0.5973870000000  0.5078760000000  0.5424350000000 1.0
C      1  0.4916630000000  0.5050560000000  0.3998050000000 1.0
C      1  0.4094420000000  0.5109490000000  0.5594090000000 1.0
C      1  0.5961660000000  0.5256720000000  0.4519670000000 1.0
C      1  0.4059740000000  0.5249210000000  0.4345400000000 1.0
C      1  0.4936590000000  0.5139930000000  0.6118710000000 1.0
C      1  0.4611690000000  0.5481130000000  0.4618520000000 1.0
C      1  0.4788790000000  0.5500550000000  0.5488370000000 1.0
C      1  0.5401160000000  0.5511890000000  0.4876600000000 1.0
C      1  0.5450340000000  0.4423850000000  0.5825120000000 1.0
C      1  0.5545200000000  0.4343060000000  0.4148110000000 1.0
C      1  0.4088060000000  0.4362260000000  0.5002200000000 1.0
C      1  0.5392420000000  0.4479000000000  0.3948530000000 1.0
C      1  0.3978200000000  0.4491050000000  0.5238520000000 1.0
C      1  0.5719640000000  0.4554160000000  0.5784550000000 1.0
C      1  0.4906860000000  0.5366820000000  0.4693170000000 1.0
C      1  0.4912200000000  0.5255900000000  0.5086760000000 1.0
C      1  0.5188750000000  0.5260960000000  0.4963660000000 1.0
C      1  0.4387930000000  0.5359650000000  0.4780320000000 1.0
C      1  0.5033360000000  0.5305940000000  0.5557920000000 1.0
C      1  0.5509620000000  0.5345650000000  0.4600480000000 1.0
C      1  0.4367120000000  0.5385700000000  0.3935410000000 1.0
C      1  0.4401500000000  0.5272150000000  0.6110260000000 1.0
C      1  0.6196580000000  0.5333720000000  0.5002940000000 1.0
C      1  0.5881260000000  0.4417550000000  0.4512700000000 1.0
C      1  0.3953140000000  0.4445610000000  0.4541780000000 1.0
C      1  0.4899050000000  0.4348260000000  0.6096490000000 1.0
C      1  0.5488360000000  0.6038660000000  0.5161520000000 1.0
C      1  0.4921050000000  0.6014280000000  0.4565240000000 1.0
C      1  0.4705380000000  0.5964010000000  0.5230080000000 1.0
C      1  0.3885870000000  0.4820530000000  0.4857860000000 1.0
C      1  0.5226950000000  0.4765060000000  0.6131940000000 1.0
C      1  0.5728450000000  0.4806830000000  0.4184160000000 1.0
C      1  0.3824480000000  0.5361480000000  0.4739680000000 1.0
C      1  0.5194560000000  0.5311960000000  0.6075290000000 1.0
C      1  0.5801110000000  0.5364460000000  0.4169520000000 1.0
C      1  0.5313220000000  0.5016000000000  0.6084910000000 1.0
C      1  0.5722630000000  0.5105920000000  0.4150100000000 1.0
C      1  0.3852800000000  0.5115040000000  0.4847350000000 1.0
C      1  0.4486420000000  0.5736360000000  0.5113360000000 1.0
C      1  0.5365560000000  0.5829340000000  0.5399720000000 1.0
C      1  0.5191080000000  0.5854610000000  0.4486320000000 1.0
C      1  0.5264130000000  0.5402570000000  0.5355840000000 1.0
C      1  0.5213460000000  0.5360730000000  0.4546280000000 1.0
C      1  0.4448560000000  0.5340290000000  0.5074460000000 1.0
C      1  0.5702320000000  0.5898120000000  0.5026100000000 1.0
C      1  0.4692650000000  0.5983460000000  0.4406470000000 1.0
C      1  0.4681750000000  0.5999700000000  0.5508110000000 1.0
C      1  0.5886670000000  0.4903930000000  0.5189650000000 1.0
C      1  0.4710760000000  0.4988420000000  0.4209220000000 1.0
C      1  0.4234090000000  0.4871260000000  0.5618580000000 1.0
C      1  0.4380150000000  0.4097540000000  0.5269190000000 1.0
C      1  0.5582310000000  0.4101350000000  0.5392150000000 1.0
C      1  0.5049640000000  0.4037510000000  0.4294810000000 1.0
C      1  0.5168650000000  0.4765400000000  0.5051070000000 1.0
C      1  0.4937850000000  0.4735270000000  0.4803020000000 1.0
C      1  0.4843010000000  0.4720430000000  0.5132290000000 1.0
C      1  0.4797870000000  0.4785710000000  0.5553920000000 1.0
C      1  0.5600580000000  0.4760460000000  0.4956790000000 1.0
C      1  0.4666780000000  0.4779320000000  0.4473850000000 1.0
C      1  0.5257240000000  0.3931750000000  0.4397870000000 1.0
C      1  0.4513270000000  0.4010770000000  0.5072540000000 1.0
C      1  0.5304600000000  0.4080440000000  0.5446230000000 1.0
C      1  0.5603470000000  0.5758550000000  0.4758650000000 1.0
C      1  0.4469430000000  0.5766920000000  0.4521430000000 1.0
C      1  0.4860610000000  0.5767830000000  0.5643410000000 1.0
C      1  0.4560430000000  0.4534280000000  0.4030750000000 1.0
C      1  0.4404200000000  0.4515060000000  0.5868280000000 1.0
C      1  0.6133890000000  0.4546210000000  0.5067990000000 1.0
C      1  0.5023610000000  0.4365660000000  0.4306510000000 1.0
C      1  0.4418070000000  0.4423120000000  0.5344040000000 1.0
C      1  0.5674990000000  0.4428060000000  0.5367320000000 1.0
C      1  0.5278280000000  0.6083570000000  0.4970690000000 1.0
C      1  0.4851270000000  0.5950210000000  0.4828970000000 1.0
C      1  0.5023570000000  0.5914920000000  0.5120160000000 1.0
C      1  0.5440560000000  0.4119660000000  0.4580570000000 1.0
C      1  0.4313260000000  0.4140800000000  0.4630280000000 1.0
C      1  0.5099030000000  0.4126650000000  0.5636660000000 1.0
C      1  0.4580130000000  0.4196670000000  0.4598880000000 1.0
C      1  0.4857640000000  0.4184650000000  0.5498280000000 1.0
C      1  0.5617430000000  0.4145370000000  0.5091650000000 1.0
C      1  0.4704890000000  0.5069830000000  0.4913730000000 1.0
C      1  0.5157550000000  0.4924580000000  0.5448650000000 1.0
C      1  0.5224190000000  0.5023020000000  0.4752760000000 1.0
C      1  0.4076660000000  0.4707500000000  0.4526010000000 1.0
C      1  0.4817190000000  0.4674890000000  0.6047890000000 1.0
C      1  0.5840570000000  0.4721890000000  0.4609220000000 1.0
C      1  0.4805260000000  0.5658980000000  0.4182890000000 1.0
C      1  0.4380240000000  0.5636270000000  0.5640760000000 1.0
C      1  0.5779650000000  0.5684770000000  0.5192270000000 1.0
C      1  0.3953520000000  0.5011600000000  0.5216840000000 1.0
C      1  0.5677360000000  0.5162280000000  0.5799860000000 1.0
C      1  0.5360700000000  0.5006870000000  0.4016120000000 1.0
C      1  0.4206120000000  0.4706970000000  0.4840560000000 1.0
C      1  0.5099050000000  0.4605160000000  0.5879520000000 1.0
C      1  0.5548660000000  0.4674590000000  0.4440870000000 1.0
C      1  0.4739170000000  0.5383620000000  0.4324030000000 1.0
C      1  0.4544310000000  0.5369460000000  0.5620490000000 1.0
C      1  0.5661370000000  0.5418860000000  0.5074940000000 1.0
C      1  0.4816220000000  0.4932210000000  0.6236830000000 1.0
C      1  0.6057540000000  0.4967370000000  0.4514540000000 1.0
C      1  0.4084540000000  0.4938680000000  0.4367860000000 1.0
C      1  0.5239000000000  0.5641150000000  0.5146310000000 1.0
C      1  0.5128490000000  0.5621300000000  0.4702900000000 1.0
C      1  0.4711370000000  0.5493810000000  0.5192380000000 1.0
C      1  0.3909900000000  0.5204410000000  0.5773080000000 1.0
C      1  0.6086210000000  0.4883380000000  0.5620000000000 1.0
C      1  0.5010780000000  0.4826330000000  0.3867570000000 1.0
C      1  0.4398950000000  0.5038940000000  0.4335340000000 1.0
C      1  0.4727390000000  0.4934360000000  0.5847090000000 1.0
C      1  0.5853170000000  0.4956810000000  0.4855220000000 1.0
C      1  0.4213520000000  0.4692490000000  0.5378710000000 1.0
C      1  0.5831590000000  0.4709830000000  0.5476070000000 1.0
C      1  0.5111020000000  0.4599100000000  0.4074980000000 1.0
C      1  0.4885640000000  0.4122090000000  0.4681690000000 1.0
C      1  0.4878600000000  0.4088430000000  0.5214100000000 1.0
C      1  0.5362340000000  0.4118290000000  0.4889040000000 1.0
C      1  0.5441820000000  0.5715210000000  0.4291730000000 1.0
C      1  0.4194080000000  0.5660810000000  0.4956930000000 1.0
C      1  0.5385990000000  0.5653070000000  0.5696870000000 1.0
C      1  0.5022220000000  0.5208450000000  0.4346240000000 1.0
C      1  0.4445320000000  0.5194710000000  0.5381780000000 1.0
C      1  0.5525610000000  0.5249020000000  0.5306730000000 1.0
C      1  0.4345890000000  0.4338500000000  0.5665370000000 1.0
C      1  0.6003670000000  0.4459680000000  0.5285690000000 1.0
C      1  0.4812150000000  0.4442250000000  0.4032660000000 1.0
C      1  0.4259580000000  0.5512380000000  0.4433650000000 1.0
C      1  0.4828280000000  0.5526540000000  0.5881990000000 1.0
C      1  0.5850100000000  0.5534780000000  0.4681470000000 1.0
C      1  0.5478760000000  0.5077980000000  0.4947340000000 1.0
C      1  0.4736550000000  0.5089800000000  0.4593860000000 1.0
C      1  0.4874550000000  0.5068520000000  0.5373290000000 1.0
C      1  0.5386030000000  0.5999790000000  0.4709440000000 1.0
C      1  0.4597350000000  0.5828130000000  0.4823870000000 1.0
C      1  0.5072500000000  0.5954920000000  0.5454390000000 1.0
C      1  0.4740330000000  0.4202820000000  0.4962840000000 1.0
C      1  0.5180260000000  0.4176760000000  0.5170420000000 1.0
C      1  0.5091290000000  0.4305470000000  0.4804210000000 1.0
C      1  0.4163480000000  0.5084660000000  0.4959470000000 1.0
C      1  0.5375590000000  0.5053780000000  0.5778540000000 1.0
C      1  0.5455550000000  0.5049100000000  0.4339920000000 1.0
C      1  0.5686530000000  0.5739980000000  0.5448980000000 1.0
C      1  0.5058330000000  0.5746260000000  0.4192640000000 1.0
C      1  0.4303540000000  0.5734810000000  0.5404000000000 1.0
C      1  0.5159500000000  0.5490550000000  0.5814120000000 1.0
C      1  0.5663830000000  0.5538100000000  0.4397010000000 1.0
C      1  0.4092090000000  0.5512430000000  0.4711530000000 1.0
END
