TITL C-3289323-3850-540 -0.00129783601239886 125000 -324.952174200481 0 0 60 (C1) n - 1
REM
REM in /nfs/bkarasulu/CARBON/AIRSS/Generating-Clusters/AIREBO/with-SteepDescent/Higher-Symm/SD-CG/HFTN-CG
REM
REM
REM
REM
REM
REM ./C.cell (b20cbc046b6831c77cfcea5457e17084)
REM
REM compiler GCC version 9.2.1 20190827 (Red Hat 9.2.1-1)
REM options -cpp -mtune=generic -march=x86-64 -g -O0 -fpre-include=/usr/include/finclude/math-vector-fortran.h
REM seed 872088736 1656088022 -248096761 380910811 340853682 -1550960964 -292773798 -517759126 2040772146 782617812 -1307392652 572609621 -259920715 -1380970774 -1631663426 1549264837 -144363431 1030496079 -372978923 -1711728419 -2110133382 -220098999 2063594079 664028404 1500812645 836517720 -412661588 462717725 -1734522601 1548799043 1708753259 1057460539 -1819483404
REM
CELL 1.54180   50.00000   50.00000   50.00000   90.00000   90.00000   90.00000
LATT -1
SFAC C  
C      1  0.5006560000000  0.4744100000000  0.5525220000000 1.0
C      1  0.5277850000000  0.4930000000000  0.5438630000000 1.0
C      1  0.5060130000000  0.5167940000000  0.5558910000000 1.0
C      1  0.4727110000000  0.5236490000000  0.5580130000000 1.0
C      1  0.4763290000000  0.4913640000000  0.5479640000000 1.0
C      1  0.4950740000000  0.4585350000000  0.4476880000000 1.0
C      1  0.5344830000000  0.5095690000000  0.4504920000000 1.0
C      1  0.5167420000000  0.5339220000000  0.4526930000000 1.0
C      1  0.4866310000000  0.5206160000000  0.4470780000000 1.0
C      1  0.4879280000000  0.4891570000000  0.4509370000000 1.0
C      1  0.5677920000000  0.4989860000000  0.5147630000000 1.0
C      1  0.5250200000000  0.5512710000000  0.5286510000000 1.0
C      1  0.4549490000000  0.5337380000000  0.5237790000000 1.0
C      1  0.4409790000000  0.4705580000000  0.5189920000000 1.0
C      1  0.5230370000000  0.4502060000000  0.5122800000000 1.0
C      1  0.5624480000000  0.4878900000000  0.4839620000000 1.0
C      1  0.5264750000000  0.5615830000000  0.4796000000000 1.0
C      1  0.4510150000000  0.5331250000000  0.4781430000000 1.0
C      1  0.4466480000000  0.4635580000000  0.4861820000000 1.0
C      1  0.5152920000000  0.4394260000000  0.4828250000000 1.0
C      1  0.4759420000000  0.5112030000000  0.5203250000000 1.0
C      1  0.4686700000000  0.4845180000000  0.5094230000000 1.0
C      1  0.5186320000000  0.4824920000000  0.5128420000000 1.0
C      1  0.5365360000000  0.5083220000000  0.5057560000000 1.0
C      1  0.5227060000000  0.5332720000000  0.5070680000000 1.0
C      1  0.4772020000000  0.5249770000000  0.4918840000000 1.0
C      1  0.4773320000000  0.4772410000000  0.4798980000000 1.0
C      1  0.5083370000000  0.4726050000000  0.4829120000000 1.0
C      1  0.5321040000000  0.4931630000000  0.4767900000000 1.0
C      1  0.5031770000000  0.5372080000000  0.4837060000000 1.0
C      1  0.5065290000000  0.5455520000000  0.5488840000000 1.0
C      1  0.4398980000000  0.5226040000000  0.5463280000000 1.0
C      1  0.4518570000000  0.4722450000000  0.5483460000000 1.0
C      1  0.5320960000000  0.4399710000000  0.5434130000000 1.0
C      1  0.5550980000000  0.5133660000000  0.5406370000000 1.0
C      1  0.5347560000000  0.5615490000000  0.4487060000000 1.0
C      1  0.4542220000000  0.5306570000000  0.4469900000000 1.0
C      1  0.4476770000000  0.4470050000000  0.4596530000000 1.0
C      1  0.5242870000000  0.4501110000000  0.4542120000000 1.0
C      1  0.5515190000000  0.4876670000000  0.4422700000000 1.0
C      1  0.5475500000000  0.4656030000000  0.5398230000000 1.0
C      1  0.5609960000000  0.5399560000000  0.5417600000000 1.0
C      1  0.4793420000000  0.5563420000000  0.5452330000000 1.0
C      1  0.4161120000000  0.5089110000000  0.5381350000000 1.0
C      1  0.5013530000000  0.4464030000000  0.5451400000000 1.0
C      1  0.5496850000000  0.4624840000000  0.4558690000000 1.0
C      1  0.5609730000000  0.5726680000000  0.4641900000000 1.0
C      1  0.4779580000000  0.5522120000000  0.4566880000000 1.0
C      1  0.4162540000000  0.4574430000000  0.4615810000000 1.0
C      1  0.4748680000000  0.4388640000000  0.4584870000000 1.0
C      1  0.5534100000000  0.5678630000000  0.4952700000000 1.0
C      1  0.4656110000000  0.5626270000000  0.4867340000000 1.0
C      1  0.4149840000000  0.4741210000000  0.4894830000000 1.0
C      1  0.4858910000000  0.4272580000000  0.4837570000000 1.0
C      1  0.5680810000000  0.4573920000000  0.4833950000000 1.0
C      1  0.5522100000000  0.5630180000000  0.5234540000000 1.0
C      1  0.4657330000000  0.5604900000000  0.5165070000000 1.0
C      1  0.4146650000000  0.4894610000000  0.5169140000000 1.0
C      1  0.4922740000000  0.4338030000000  0.5148470000000 1.0
C      1  0.5654650000000  0.4659940000000  0.5163710000000 1.0
END
