TITL C-3289323-3850-222 -0.00452028559200829 125000 -702.142849350712 0 0 129 (C1) n - 1
REM
REM in /nfs/bkarasulu/CARBON/AIRSS/Generating-Clusters/AIREBO/with-SteepDescent/Higher-Symm/SD-CG/HFTN-CG
REM
REM
REM
REM
REM
REM ./C.cell (b20cbc046b6831c77cfcea5457e17084)
REM
REM compiler GCC version 9.2.1 20190827 (Red Hat 9.2.1-1)
REM options -cpp -mtune=generic -march=x86-64 -g -O0 -fpre-include=/usr/include/finclude/math-vector-fortran.h
REM seed -227475399 466492491 110835119 913443713 -1485877609 2137352131 -189903419 271937756 363632565 -472557945 1474933457 170878620 -1445778789 576079097 -654884740 705568932 -771222688 916246873 -1051594529 -358853623 -16120169 -1220094801 688786448 -949673182 1608464220 1596880350 -299797650 1298235284 1178749900 1869103006 -2132190712 1796715664 1213976422
REM
CELL 1.54180   50.00000   50.00000   50.00000   90.00000   90.00000   90.00000
LATT -1
SFAC C  
C      1  0.4266490000000  0.5149340000000  0.4219380000000 1.0
C      1  0.4317550000000  0.5647970000000  0.4865810000000 1.0
C      1  0.4300260000000  0.5365370000000  0.5722090000000 1.0
C      1  0.4345030000000  0.4512540000000  0.5402810000000 1.0
C      1  0.4278050000000  0.4272220000000  0.4637630000000 1.0
C      1  0.5674160000000  0.4862100000000  0.4312930000000 1.0
C      1  0.5669930000000  0.4310940000000  0.4912870000000 1.0
C      1  0.5736920000000  0.4642290000000  0.5693930000000 1.0
C      1  0.5671720000000  0.5524920000000  0.5463650000000 1.0
C      1  0.5755340000000  0.5701160000000  0.4652320000000 1.0
C      1  0.5754920000000  0.5611660000000  0.4931510000000 1.0
C      1  0.5693120000000  0.5225160000000  0.5555470000000 1.0
C      1  0.5720260000000  0.4550840000000  0.5416740000000 1.0
C      1  0.5791100000000  0.4475200000000  0.4659840000000 1.0
C      1  0.5802460000000  0.5162120000000  0.4405200000000 1.0
C      1  0.4303090000000  0.4381390000000  0.4902930000000 1.0
C      1  0.4293090000000  0.4778080000000  0.5556790000000 1.0
C      1  0.4300440000000  0.5445850000000  0.5441360000000 1.0
C      1  0.4323370000000  0.5514960000000  0.4582530000000 1.0
C      1  0.4220540000000  0.4861120000000  0.4361500000000 1.0
C      1  0.5514450000000  0.5779380000000  0.5072320000000 1.0
C      1  0.5473160000000  0.5186000000000  0.5735960000000 1.0
C      1  0.5498470000000  0.4328390000000  0.5416410000000 1.0
C      1  0.5506510000000  0.4398290000000  0.4508150000000 1.0
C      1  0.5520550000000  0.5278680000000  0.4299850000000 1.0
C      1  0.4516500000000  0.4219470000000  0.5048820000000 1.0
C      1  0.4519920000000  0.4816680000000  0.5751500000000 1.0
C      1  0.4524140000000  0.5641340000000  0.5407210000000 1.0
C      1  0.4560040000000  0.5599520000000  0.4448530000000 1.0
C      1  0.4464000000000  0.4652440000000  0.4273220000000 1.0
C      1  0.4678120000000  0.5035000000000  0.5873680000000 1.0
C      1  0.4676380000000  0.4192930000000  0.5282930000000 1.0
C      1  0.4639510000000  0.4433270000000  0.4314500000000 1.0
C      1  0.4707530000000  0.5482440000000  0.4236350000000 1.0
C      1  0.4660230000000  0.5817650000000  0.5222670000000 1.0
C      1  0.5347490000000  0.4964650000000  0.5856490000000 1.0
C      1  0.5337510000000  0.5834160000000  0.5309310000000 1.0
C      1  0.5378430000000  0.5530050000000  0.4322330000000 1.0
C      1  0.5323310000000  0.4515860000000  0.4301840000000 1.0
C      1  0.5351420000000  0.4132490000000  0.5246900000000 1.0
C      1  0.5339660000000  0.4442640000000  0.5682130000000 1.0
C      1  0.5311490000000  0.4277270000000  0.4738850000000 1.0
C      1  0.5292430000000  0.5034890000000  0.4235350000000 1.0
C      1  0.5313560000000  0.5744860000000  0.4800140000000 1.0
C      1  0.5316840000000  0.5469190000000  0.5740840000000 1.0
C      1  0.4722700000000  0.5547400000000  0.5666830000000 1.0
C      1  0.4705200000000  0.5793890000000  0.4667720000000 1.0
C      1  0.4602170000000  0.4948730000000  0.4285250000000 1.0
C      1  0.4643310000000  0.4108920000000  0.4780300000000 1.0
C      1  0.4740380000000  0.4590940000000  0.5624500000000 1.0
C      1  0.4852270000000  0.4348130000000  0.4684250000000 1.0
C      1  0.4957500000000  0.5164780000000  0.4559840000000 1.0
C      1  0.4955100000000  0.5626860000000  0.4930780000000 1.0
C      1  0.4959300000000  0.5303110000000  0.5681640000000 1.0
C      1  0.5007120000000  0.4454020000000  0.5464070000000 1.0
C      1  0.5057940000000  0.5621240000000  0.4613780000000 1.0
C      1  0.4994060000000  0.4928560000000  0.4350130000000 1.0
C      1  0.5038010000000  0.4080070000000  0.4780530000000 1.0
C      1  0.5122730000000  0.4696790000000  0.5663250000000 1.0
C      1  0.5088830000000  0.5558280000000  0.5506470000000 1.0
C      1  0.5149130000000  0.4179760000000  0.5580440000000 1.0
C      1  0.5095890000000  0.4231980000000  0.4477420000000 1.0
C      1  0.5160070000000  0.5286980000000  0.4049490000000 1.0
C      1  0.5091940000000  0.5934930000000  0.4975250000000 1.0
C      1  0.5142860000000  0.5291650000000  0.5961480000000 1.0
C      1  0.4919320000000  0.5818520000000  0.5608120000000 1.0
C      1  0.4901810000000  0.5795900000000  0.4390280000000 1.0
C      1  0.4831680000000  0.4740050000000  0.4145880000000 1.0
C      1  0.4854910000000  0.3968530000000  0.5007520000000 1.0
C      1  0.4905360000000  0.4687500000000  0.5907830000000 1.0
C      1  0.4541660000000  0.5834280000000  0.4960810000000 1.0
C      1  0.4566860000000  0.5297610000000  0.5837210000000 1.0
C      1  0.4561220000000  0.4342470000000  0.5494570000000 1.0
C      1  0.4532890000000  0.4227220000000  0.4480850000000 1.0
C      1  0.4570920000000  0.5244050000000  0.4144300000000 1.0
C      1  0.5469380000000  0.4108190000000  0.4988040000000 1.0
C      1  0.5480650000000  0.4711950000000  0.5834830000000 1.0
C      1  0.5455440000000  0.5708450000000  0.5542930000000 1.0
C      1  0.5492340000000  0.5700210000000  0.4521670000000 1.0
C      1  0.5438160000000  0.4745100000000  0.4177460000000 1.0
C      1  0.4711160000000  0.5289890000000  0.5445080000000 1.0
C      1  0.4704710000000  0.4843570000000  0.5399760000000 1.0
C      1  0.4754550000000  0.4622620000000  0.4782400000000 1.0
C      1  0.4508820000000  0.5025010000000  0.4580410000000 1.0
C      1  0.4679090000000  0.5488920000000  0.4815780000000 1.0
C      1  0.5234280000000  0.4764950000000  0.5366860000000 1.0
C      1  0.5265700000000  0.5294230000000  0.5385470000000 1.0
C      1  0.5346620000000  0.5439500000000  0.4946010000000 1.0
C      1  0.5328750000000  0.5019290000000  0.4566140000000 1.0
C      1  0.5271710000000  0.4533630000000  0.4917620000000 1.0
C      1  0.4480040000000  0.4748300000000  0.5205610000000 1.0
C      1  0.4482200000000  0.4756940000000  0.4762780000000 1.0
C      1  0.4244310000000  0.5214820000000  0.4545230000000 1.0
C      1  0.4399260000000  0.5330030000000  0.4926560000000 1.0
C      1  0.4479470000000  0.5092860000000  0.5405150000000 1.0
C      1  0.5549610000000  0.5348660000000  0.5206780000000 1.0
C      1  0.5585410000000  0.5271610000000  0.4816000000000 1.0
C      1  0.5604710000000  0.4911990000000  0.4631030000000 1.0
C      1  0.5568970000000  0.4626730000000  0.4946780000000 1.0
C      1  0.5511050000000  0.4860290000000  0.5282870000000 1.0
C      1  0.4809170000000  0.5337390000000  0.5176660000000 1.0
C      1  0.4881960000000  0.4944500000000  0.5173540000000 1.0
C      1  0.4849500000000  0.4667910000000  0.5057020000000 1.0
C      1  0.4960120000000  0.4770740000000  0.4616780000000 1.0
C      1  0.4712350000000  0.5195660000000  0.4699210000000 1.0
C      1  0.5096070000000  0.4548260000000  0.5165790000000 1.0
C      1  0.5157220000000  0.5040690000000  0.5238230000000 1.0
C      1  0.5087180000000  0.5420570000000  0.5135660000000 1.0
C      1  0.5183840000000  0.5250750000000  0.4731650000000 1.0
C      1  0.5213730000000  0.4785870000000  0.4769610000000 1.0
C      1  0.5898640000000  0.5052420000000  0.4719220000000 1.0
C      1  0.5872400000000  0.5293440000000  0.4961660000000 1.0
C      1  0.5801310000000  0.5123280000000  0.5247380000000 1.0
C      1  0.5832420000000  0.4787500000000  0.5199040000000 1.0
C      1  0.5877970000000  0.4740810000000  0.4862160000000 1.0
C      1  0.4130630000000  0.4926380000000  0.4685020000000 1.0
C      1  0.4193950000000  0.4702130000000  0.4934800000000 1.0
C      1  0.4171670000000  0.4848330000000  0.5245620000000 1.0
C      1  0.4203160000000  0.5186970000000  0.5243230000000 1.0
C      1  0.4105120000000  0.5172790000000  0.4917780000000 1.0
C      1  0.5012530000000  0.4991410000000  0.5922950000000 1.0
C      1  0.5047340000000  0.5540150000000  0.4224390000000 1.0
C      1  0.4979540000000  0.4489010000000  0.4320220000000 1.0
C      1  0.5008160000000  0.4099970000000  0.5281240000000 1.0
C      1  0.4994080000000  0.5869990000000  0.5280180000000 1.0
C      1  0.5251900000000  0.5040410000000  0.4957670000000 1.0
C      1  0.4734770000000  0.5126950000000  0.4991910000000 1.0
C      1  0.4450700000000  0.5000170000000  0.4991200000000 1.0
C      1  0.5565520000000  0.4966260000000  0.4964350000000 1.0
END
