TITL C-3289335-9438-283 0.00235966296186488 125000 -27.9351437522941 0 0 7 (C1) n - 1
REM
REM in /nfs/bkarasulu/CARBON/AIRSS/Generating-Clusters/AIREBO/with-SteepDescent/Higher-Symm/SD-CG/HFTN-CG
REM
REM
REM
REM
REM
REM ./C.cell (b20cbc046b6831c77cfcea5457e17084)
REM
REM compiler GCC version 9.2.1 20190827 (Red Hat 9.2.1-1)
REM options -cpp -mtune=generic -march=x86-64 -g -O0 -fpre-include=/usr/include/finclude/math-vector-fortran.h
REM seed 1828076288 -2049395241 -2094949163 -70011719 1091756899 428584986 -73196673 1489650287 -1079146369 2141404113 -1199727478 1561782323 -100112410 -1194013765 1823249271 -584404750 -946898583 -1795335151 -1359351569 1754813151 30713874 871846127 539942906 -150548129 -1784188094 843051951 1940462273 107651208 -1090019238 1528742507 730895102 -115969718 -1932053875
REM
CELL 1.54180   50.00000   50.00000   50.00000   90.00000   90.00000   90.00000
LATT -1
SFAC C  
C      1  0.4860400000000  0.5149920000000  0.4778170000000 1.0
C      1  0.5182360000000  0.5056150000000  0.5212730000000 1.0
C      1  0.4847260000000  0.4998490000000  0.5212890000000 1.0
C      1  0.5125020000000  0.5011570000000  0.4880530000000 1.0
C      1  0.4698200000000  0.5136010000000  0.5011800000000 1.0
C      1  0.5410940000000  0.5166030000000  0.4986250000000 1.0
C      1  0.5053910000000  0.4756750000000  0.5101920000000 1.0
END
