TITL C-3289323-3850-449 -0.00429806068248346 125000 -1083.65490915812 0 0 190 (C1) n - 1
REM
REM in /nfs/bkarasulu/CARBON/AIRSS/Generating-Clusters/AIREBO/with-SteepDescent/Higher-Symm/SD-CG/HFTN-CG
REM
REM
REM
REM
REM
REM ./C.cell (b20cbc046b6831c77cfcea5457e17084)
REM
REM compiler GCC version 9.2.1 20190827 (Red Hat 9.2.1-1)
REM options -cpp -mtune=generic -march=x86-64 -g -O0 -fpre-include=/usr/include/finclude/math-vector-fortran.h
REM seed -706520324 -348520748 -1425111354 -809173988 -1924810102 375063922 2114920251 634269568 -1253947142 1648010846 1937470621 -1365611303 -626886738 992752478 -1133786755 -532869457 629794412 -1923524822 -2018239385 209973879 -798422529 -802905850 -1700083707 -851872880 1908384169 570802731 -351630383 -2091214843 -1499139374 1928660019 -1777824680 -126017770 -1138439808
REM
CELL 1.54180   50.00000   50.00000   50.00000   90.00000   90.00000   90.00000
LATT -1
SFAC C  
C      1  0.4836610000000  0.3817500000000  0.4527130000000 1.0
C      1  0.4422440000000  0.4634630000000  0.4227540000000 1.0
C      1  0.4335860000000  0.5088470000000  0.4214940000000 1.0
C      1  0.4413760000000  0.5580100000000  0.4217380000000 1.0
C      1  0.5015930000000  0.5820440000000  0.4416910000000 1.0
C      1  0.5763510000000  0.5851580000000  0.4422970000000 1.0
C      1  0.5714630000000  0.5286520000000  0.4272780000000 1.0
C      1  0.5646290000000  0.4706650000000  0.4022430000000 1.0
C      1  0.5216410000000  0.4150890000000  0.4298400000000 1.0
C      1  0.5120120000000  0.4656680000000  0.3947250000000 1.0
C      1  0.4891600000000  0.4761430000000  0.3844670000000 1.0
C      1  0.4710730000000  0.4902590000000  0.4005590000000 1.0
C      1  0.4518080000000  0.5107810000000  0.3991370000000 1.0
C      1  0.4598460000000  0.5412300000000  0.3981370000000 1.0
C      1  0.4934370000000  0.5439150000000  0.3980780000000 1.0
C      1  0.5134530000000  0.5297750000000  0.3862830000000 1.0
C      1  0.5322310000000  0.5127790000000  0.3990220000000 1.0
C      1  0.5363080000000  0.4841770000000  0.3960250000000 1.0
C      1  0.5150640000000  0.4562410000000  0.4853790000000 1.0
C      1  0.4902910000000  0.4581350000000  0.4695730000000 1.0
C      1  0.4683070000000  0.4765140000000  0.4787320000000 1.0
C      1  0.4658000000000  0.4964570000000  0.4536400000000 1.0
C      1  0.4663290000000  0.5161960000000  0.4813250000000 1.0
C      1  0.4904650000000  0.5348160000000  0.4818670000000 1.0
C      1  0.5205190000000  0.5327540000000  0.4697330000000 1.0
C      1  0.5319130000000  0.5071750000000  0.4806150000000 1.0
C      1  0.5378910000000  0.4760930000000  0.4759740000000 1.0
C      1  0.5889190000000  0.5533920000000  0.4934240000000 1.0
C      1  0.6080360000000  0.4854940000000  0.4902500000000 1.0
C      1  0.5825910000000  0.4170060000000  0.4972350000000 1.0
C      1  0.5099840000000  0.3805450000000  0.5065310000000 1.0
C      1  0.4251600000000  0.4075640000000  0.4943810000000 1.0
C      1  0.3733220000000  0.4796020000000  0.4949800000000 1.0
C      1  0.4019480000000  0.5489840000000  0.4892180000000 1.0
C      1  0.4642730000000  0.6016460000000  0.4949570000000 1.0
C      1  0.5341560000000  0.6053070000000  0.5006870000000 1.0
C      1  0.4637090000000  0.5441950000000  0.5099460000000 1.0
C      1  0.4975700000000  0.5432230000000  0.5128650000000 1.0
C      1  0.5169180000000  0.5227910000000  0.5268320000000 1.0
C      1  0.5447390000000  0.5121060000000  0.5117330000000 1.0
C      1  0.5365630000000  0.4797860000000  0.5093100000000 1.0
C      1  0.5115660000000  0.4603340000000  0.5169580000000 1.0
C      1  0.4834630000000  0.4687860000000  0.5275680000000 1.0
C      1  0.4667700000000  0.4864890000000  0.5080450000000 1.0
C      1  0.4537670000000  0.5143360000000  0.5128850000000 1.0
C      1  0.5084870000000  0.4141370000000  0.5415840000000 1.0
C      1  0.4442450000000  0.4249070000000  0.5379850000000 1.0
C      1  0.4122170000000  0.4743050000000  0.5321660000000 1.0
C      1  0.4093430000000  0.5376220000000  0.5357320000000 1.0
C      1  0.4585330000000  0.5867340000000  0.5418700000000 1.0
C      1  0.5254460000000  0.5863800000000  0.5347730000000 1.0
C      1  0.5729730000000  0.5503900000000  0.5311320000000 1.0
C      1  0.5980580000000  0.4904150000000  0.5358570000000 1.0
C      1  0.5604600000000  0.4362560000000  0.5244040000000 1.0
C      1  0.4188090000000  0.4489530000000  0.4579830000000 1.0
C      1  0.4018530000000  0.5164480000000  0.4664200000000 1.0
C      1  0.4226550000000  0.5774490000000  0.4432810000000 1.0
C      1  0.5023460000000  0.5993010000000  0.4730930000000 1.0
C      1  0.5657940000000  0.5800670000000  0.4746190000000 1.0
C      1  0.5886950000000  0.5150010000000  0.4532700000000 1.0
C      1  0.5978520000000  0.4468220000000  0.4687830000000 1.0
C      1  0.5466590000000  0.4041370000000  0.4704840000000 1.0
C      1  0.4723130000000  0.3888740000000  0.4778900000000 1.0
C      1  0.5005210000000  0.5541510000000  0.4290570000000 1.0
C      1  0.5222830000000  0.5351680000000  0.4395690000000 1.0
C      1  0.5428180000000  0.5240390000000  0.4228390000000 1.0
C      1  0.5416290000000  0.4571320000000  0.4198700000000 1.0
C      1  0.5113740000000  0.4439280000000  0.4194510000000 1.0
C      1  0.4885510000000  0.4522980000000  0.4382550000000 1.0
C      1  0.4700970000000  0.4770050000000  0.4286520000000 1.0
C      1  0.4506920000000  0.5229370000000  0.4439290000000 1.0
C      1  0.4704750000000  0.5431920000000  0.4302420000000 1.0
C      1  0.5645720000000  0.3951760000000  0.4920420000000 1.0
C      1  0.4821200000000  0.3787680000000  0.5022640000000 1.0
C      1  0.4081640000000  0.4309750000000  0.4765170000000 1.0
C      1  0.3828140000000  0.5064770000000  0.4844830000000 1.0
C      1  0.4148450000000  0.5751520000000  0.4763120000000 1.0
C      1  0.4892460000000  0.6180620000000  0.4950500000000 1.0
C      1  0.5612590000000  0.6006890000000  0.4965210000000 1.0
C      1  0.6059090000000  0.5331180000000  0.4767490000000 1.0
C      1  0.6151310000000  0.4587150000000  0.4884980000000 1.0
C      1  0.4968190000000  0.5666070000000  0.4806290000000 1.0
C      1  0.5389020000000  0.5597510000000  0.4792250000000 1.0
C      1  0.5696020000000  0.5178250000000  0.4796490000000 1.0
C      1  0.5677990000000  0.4626510000000  0.4669740000000 1.0
C      1  0.5276840000000  0.4260050000000  0.4872150000000 1.0
C      1  0.4660110000000  0.4210630000000  0.4782350000000 1.0
C      1  0.4394360000000  0.4665690000000  0.4871380000000 1.0
C      1  0.4328040000000  0.5107640000000  0.4793010000000 1.0
C      1  0.4481660000000  0.5564110000000  0.4649450000000 1.0
C      1  0.4644900000000  0.4333720000000  0.4494480000000 1.0
C      1  0.4226670000000  0.4825110000000  0.4626810000000 1.0
C      1  0.4225680000000  0.5380600000000  0.4520950000000 1.0
C      1  0.4549550000000  0.5851690000000  0.4474770000000 1.0
C      1  0.5287400000000  0.5849670000000  0.4587830000000 1.0
C      1  0.5652160000000  0.5465400000000  0.4622200000000 1.0
C      1  0.5825000000000  0.4830010000000  0.4439880000000 1.0
C      1  0.5562910000000  0.4429350000000  0.4417750000000 1.0
C      1  0.4990410000000  0.4177780000000  0.4708100000000 1.0
C      1  0.4352660000000  0.5425050000000  0.4913580000000 1.0
C      1  0.4679510000000  0.5793460000000  0.4765970000000 1.0
C      1  0.5203170000000  0.5763510000000  0.5023600000000 1.0
C      1  0.5579640000000  0.5415570000000  0.5010400000000 1.0
C      1  0.5815330000000  0.4892890000000  0.4830610000000 1.0
C      1  0.5584800000000  0.4400660000000  0.4906710000000 1.0
C      1  0.5168430000000  0.4079310000000  0.5129390000000 1.0
C      1  0.4427360000000  0.4366650000000  0.4950080000000 1.0
C      1  0.4204760000000  0.4897130000000  0.5029920000000 1.0
C      1  0.4970210000000  0.5446840000000  0.5635040000000 1.0
C      1  0.5226660000000  0.5264630000000  0.5666310000000 1.0
C      1  0.5451030000000  0.5039440000000  0.5624090000000 1.0
C      1  0.5424100000000  0.4736610000000  0.5605670000000 1.0
C      1  0.5127220000000  0.4618020000000  0.5699130000000 1.0
C      1  0.4807210000000  0.4651400000000  0.5704520000000 1.0
C      1  0.4568780000000  0.4849210000000  0.5609570000000 1.0
C      1  0.4485400000000  0.5136660000000  0.5646690000000 1.0
C      1  0.4651890000000  0.5393300000000  0.5648260000000 1.0
C      1  0.5740380000000  0.5933530000000  0.5202750000000 1.0
C      1  0.6143400000000  0.5272190000000  0.5089530000000 1.0
C      1  0.6155390000000  0.4463480000000  0.5139980000000 1.0
C      1  0.5545920000000  0.3847130000000  0.5169910000000 1.0
C      1  0.4674950000000  0.3885600000000  0.5240300000000 1.0
C      1  0.4115100000000  0.4422670000000  0.5080420000000 1.0
C      1  0.3939460000000  0.5060510000000  0.5166110000000 1.0
C      1  0.4287530000000  0.5716530000000  0.5076710000000 1.0
C      1  0.4873700000000  0.6101200000000  0.5263920000000 1.0
C      1  0.4447240000000  0.4032790000000  0.5168980000000 1.0
C      1  0.3882070000000  0.4636670000000  0.5105590000000 1.0
C      1  0.3899580000000  0.5374530000000  0.5111310000000 1.0
C      1  0.4473690000000  0.5950430000000  0.5154460000000 1.0
C      1  0.5176850000000  0.6172890000000  0.5229080000000 1.0
C      1  0.5935300000000  0.5726590000000  0.5157040000000 1.0
C      1  0.6152730000000  0.4992460000000  0.5128530000000 1.0
C      1  0.6063390000000  0.4198310000000  0.5111680000000 1.0
C      1  0.5332400000000  0.3662660000000  0.5139730000000 1.0
C      1  0.4118780000000  0.4543350000000  0.5596940000000 1.0
C      1  0.3962170000000  0.5313870000000  0.5650710000000 1.0
C      1  0.4339140000000  0.5879510000000  0.5646750000000 1.0
C      1  0.5123040000000  0.5934350000000  0.5645440000000 1.0
C      1  0.5692700000000  0.5660430000000  0.5607160000000 1.0
C      1  0.5980120000000  0.5126890000000  0.5607210000000 1.0
C      1  0.5827890000000  0.4465100000000  0.5465150000000 1.0
C      1  0.5304890000000  0.4041400000000  0.5652690000000 1.0
C      1  0.4598060000000  0.4148360000000  0.5636910000000 1.0
C      1  0.3973760000000  0.5017590000000  0.5484200000000 1.0
C      1  0.4230360000000  0.5662450000000  0.5408690000000 1.0
C      1  0.4830720000000  0.6041710000000  0.5577370000000 1.0
C      1  0.5569270000000  0.5855680000000  0.5413780000000 1.0
C      1  0.5976460000000  0.5302910000000  0.5336060000000 1.0
C      1  0.6034410000000  0.4605530000000  0.5355300000000 1.0
C      1  0.5513000000000  0.4075470000000  0.5385650000000 1.0
C      1  0.4801100000000  0.4012650000000  0.5467400000000 1.0
C      1  0.4169050000000  0.4348950000000  0.5368390000000 1.0
C      1  0.4246950000000  0.4844770000000  0.4307760000000 1.0
C      1  0.4082100000000  0.5523630000000  0.4255520000000 1.0
C      1  0.4768910000000  0.5952250000000  0.4326610000000 1.0
C      1  0.5510250000000  0.5994710000000  0.4430640000000 1.0
C      1  0.5744110000000  0.5575160000000  0.4345620000000 1.0
C      1  0.5859900000000  0.4766860000000  0.4178150000000 1.0
C      1  0.5465100000000  0.4167520000000  0.4440840000000 1.0
C      1  0.5025720000000  0.4024610000000  0.4457330000000 1.0
C      1  0.4392910000000  0.4410100000000  0.4395290000000 1.0
C      1  0.5433520000000  0.5377750000000  0.5421250000000 1.0
C      1  0.5669140000000  0.5041490000000  0.5363230000000 1.0
C      1  0.5480970000000  0.4636060000000  0.5327310000000 1.0
C      1  0.5107320000000  0.4442670000000  0.5432760000000 1.0
C      1  0.4668800000000  0.4487280000000  0.5440850000000 1.0
C      1  0.4456760000000  0.4803440000000  0.5325660000000 1.0
C      1  0.4371490000000  0.5230970000000  0.5368090000000 1.0
C      1  0.4639070000000  0.5568610000000  0.5385870000000 1.0
C      1  0.5051140000000  0.5593210000000  0.5380430000000 1.0
C      1  0.4590610000000  0.4344750000000  0.5836880000000 1.0
C      1  0.4180770000000  0.4854800000000  0.5700980000000 1.0
C      1  0.4265100000000  0.5479680000000  0.5700900000000 1.0
C      1  0.4636020000000  0.5901900000000  0.5811090000000 1.0
C      1  0.5147080000000  0.5731830000000  0.5850240000000 1.0
C      1  0.5607290000000  0.5487230000000  0.5806630000000 1.0
C      1  0.5794040000000  0.4858510000000  0.5709110000000 1.0
C      1  0.5616030000000  0.4288480000000  0.5635450000000 1.0
C      1  0.5076410000000  0.4235620000000  0.5803070000000 1.0
C      1  0.4207370000000  0.5164670000000  0.5815380000000 1.0
C      1  0.4510590000000  0.5593150000000  0.5866020000000 1.0
C      1  0.4845880000000  0.5643970000000  0.5889750000000 1.0
C      1  0.5325810000000  0.5515000000000  0.5849110000000 1.0
C      1  0.5707910000000  0.5180250000000  0.5777910000000 1.0
C      1  0.5652190000000  0.4581490000000  0.5804460000000 1.0
C      1  0.5361580000000  0.4402380000000  0.5809530000000 1.0
C      1  0.4876890000000  0.4397280000000  0.5919210000000 1.0
C      1  0.4405110000000  0.4597220000000  0.5762340000000 1.0
C      1  0.5005000000000  0.4967350000000  0.5292820000000 1.0
END
