TITL C-3289334-2237-291 0.0026341583015018 125000 -477.009052309857 0 0 90 (C1) n - 1
REM
REM in /nfs/bkarasulu/CARBON/AIRSS/Generating-Clusters/AIREBO/with-SteepDescent/Higher-Symm/SD-CG/HFTN-CG
REM
REM
REM
REM
REM
REM ./C.cell (b20cbc046b6831c77cfcea5457e17084)
REM
REM compiler GCC version 9.2.1 20190827 (Red Hat 9.2.1-1)
REM options -cpp -mtune=generic -march=x86-64 -g -O0 -fpre-include=/usr/include/finclude/math-vector-fortran.h
REM seed 711164361 1157531747 1579627758 678687812 -1089666139 1991060851 872732080 1927947787 -738613698 2042018367 1656758033 -1098352830 -1538690318 1370265131 1887969030 -975054510 650983600 -1263289685 1798543937 1225150964 679874687 1189997593 -1930838285 1575152756 1554346822 2088370680 1123708838 -1347726398 1494168230 585077912 2075142075 -706318420 -690034813
REM
CELL 1.54180   50.00000   50.00000   50.00000   90.00000   90.00000   90.00000
LATT -1
SFAC C  
C      1  0.4666530000000  0.4851200000000  0.4191220000000 1.0
C      1  0.4234690000000  0.4947300000000  0.4854460000000 1.0
C      1  0.4466290000000  0.4868510000000  0.5578560000000 1.0
C      1  0.4989040000000  0.4790450000000  0.5815500000000 1.0
C      1  0.5469440000000  0.4983680000000  0.5363410000000 1.0
C      1  0.5732410000000  0.4950120000000  0.4815770000000 1.0
C      1  0.5285110000000  0.4918280000000  0.4461330000000 1.0
C      1  0.4268840000000  0.5037310000000  0.5407700000000 1.0
C      1  0.4732030000000  0.4983720000000  0.5853950000000 1.0
C      1  0.5329170000000  0.4860070000000  0.5619310000000 1.0
C      1  0.5786120000000  0.5059310000000  0.5116410000000 1.0
C      1  0.5611950000000  0.4984070000000  0.4394410000000 1.0
C      1  0.4923130000000  0.5037630000000  0.4068250000000 1.0
C      1  0.4309370000000  0.5026640000000  0.4532370000000 1.0
C      1  0.5063610000000  0.4495770000000  0.5288640000000 1.0
C      1  0.5325610000000  0.4542750000000  0.5075840000000 1.0
C      1  0.5555760000000  0.4467800000000  0.4830020000000 1.0
C      1  0.4938520000000  0.4526910000000  0.4672320000000 1.0
C      1  0.4654430000000  0.4494260000000  0.4750080000000 1.0
C      1  0.4618110000000  0.4617750000000  0.5032870000000 1.0
C      1  0.4781040000000  0.4619560000000  0.5289390000000 1.0
C      1  0.4544670000000  0.5137260000000  0.4323660000000 1.0
C      1  0.4241780000000  0.5286060000000  0.4913360000000 1.0
C      1  0.4541060000000  0.5484580000000  0.5622340000000 1.0
C      1  0.5078230000000  0.5353760000000  0.5750850000000 1.0
C      1  0.5514880000000  0.5316220000000  0.5419260000000 1.0
C      1  0.5763350000000  0.5287690000000  0.4772200000000 1.0
C      1  0.5229470000000  0.5225850000000  0.4327210000000 1.0
C      1  0.5244310000000  0.5369900000000  0.4699340000000 1.0
C      1  0.4941460000000  0.5400770000000  0.4539840000000 1.0
C      1  0.4695230000000  0.5385780000000  0.4854370000000 1.0
C      1  0.4601060000000  0.5374420000000  0.5155670000000 1.0
C      1  0.4822710000000  0.5331440000000  0.5365830000000 1.0
C      1  0.5125610000000  0.5401310000000  0.5227960000000 1.0
C      1  0.5384760000000  0.5379790000000  0.5008830000000 1.0
C      1  0.5071430000000  0.5014240000000  0.5306570000000 1.0
C      1  0.5295380000000  0.4880740000000  0.5087660000000 1.0
C      1  0.5393460000000  0.4948310000000  0.4788730000000 1.0
C      1  0.4985590000000  0.4839680000000  0.4612070000000 1.0
C      1  0.4828020000000  0.5011490000000  0.4822590000000 1.0
C      1  0.4557140000000  0.4913730000000  0.4957070000000 1.0
C      1  0.4770850000000  0.4925330000000  0.5438300000000 1.0
C      1  0.5512560000000  0.5210400000000  0.4607820000000 1.0
C      1  0.4931280000000  0.5089120000000  0.4404240000000 1.0
C      1  0.4587690000000  0.5177580000000  0.4658520000000 1.0
C      1  0.4412870000000  0.5141180000000  0.5152910000000 1.0
C      1  0.4691840000000  0.5192280000000  0.5633820000000 1.0
C      1  0.5083670000000  0.5061700000000  0.5643310000000 1.0
C      1  0.5634770000000  0.5280790000000  0.5153130000000 1.0
C      1  0.4968330000000  0.5530940000000  0.5571870000000 1.0
C      1  0.5413210000000  0.5563250000000  0.5453780000000 1.0
C      1  0.5704020000000  0.5557710000000  0.4848160000000 1.0
C      1  0.5280110000000  0.5495730000000  0.4323000000000 1.0
C      1  0.4692030000000  0.5400750000000  0.4342440000000 1.0
C      1  0.4333010000000  0.5550580000000  0.4860150000000 1.0
C      1  0.4525700000000  0.5598740000000  0.5373610000000 1.0
C      1  0.4869780000000  0.5719830000000  0.4633080000000 1.0
C      1  0.4633620000000  0.5709990000000  0.4879020000000 1.0
C      1  0.4727530000000  0.5750470000000  0.5203670000000 1.0
C      1  0.4973290000000  0.5741720000000  0.5369980000000 1.0
C      1  0.5258760000000  0.5712260000000  0.5192020000000 1.0
C      1  0.5393190000000  0.5693190000000  0.4877220000000 1.0
C      1  0.5206520000000  0.5690280000000  0.4591950000000 1.0
C      1  0.5136090000000  0.4351640000000  0.5574290000000 1.0
C      1  0.5594670000000  0.4576000000000  0.5281220000000 1.0
C      1  0.5587130000000  0.4532890000000  0.4557200000000 1.0
C      1  0.5066970000000  0.4509050000000  0.4392440000000 1.0
C      1  0.4423940000000  0.4553750000000  0.4588720000000 1.0
C      1  0.4299050000000  0.4612390000000  0.5063060000000 1.0
C      1  0.4577120000000  0.4491720000000  0.5522500000000 1.0
C      1  0.4879330000000  0.4514520000000  0.5676670000000 1.0
C      1  0.5396110000000  0.4557970000000  0.5500660000000 1.0
C      1  0.5729350000000  0.4656390000000  0.4987200000000 1.0
C      1  0.5344350000000  0.4585240000000  0.4426390000000 1.0
C      1  0.4938800000000  0.4662690000000  0.4188880000000 1.0
C      1  0.4201410000000  0.4621570000000  0.4762440000000 1.0
C      1  0.4301960000000  0.4640950000000  0.5386510000000 1.0
C      1  0.5767960000000  0.4767870000000  0.4530850000000 1.0
C      1  0.5181690000000  0.4858530000000  0.4142840000000 1.0
C      1  0.4443480000000  0.4759220000000  0.4395400000000 1.0
C      1  0.4124890000000  0.4865730000000  0.5174570000000 1.0
C      1  0.4609240000000  0.4669240000000  0.5813630000000 1.0
C      1  0.5251210000000  0.4580470000000  0.5807290000000 1.0
C      1  0.5775020000000  0.4852590000000  0.5329180000000 1.0
C      1  0.5117170000000  0.4377310000000  0.4864210000000 1.0
C      1  0.4993950000000  0.5171340000000  0.5014770000000 1.0
C      1  0.5098610000000  0.3851270000000  0.4893580000000 1.0
C      1  0.5008520000000  0.5839090000000  0.4897870000000 1.0
C      1  0.4975290000000  0.5519080000000  0.4958130000000 1.0
C      1  0.5098460000000  0.4113260000000  0.4887990000000 1.0
END
