TITL C-3289332-8317-537 0.00222550808523836 125000 -889.304298383305 0 0 154 (C1) n - 1
REM
REM in /nfs/bkarasulu/CARBON/AIRSS/Generating-Clusters/AIREBO/with-SteepDescent/Higher-Symm/SD-CG/HFTN-CG
REM
REM
REM
REM
REM
REM ./C.cell (b20cbc046b6831c77cfcea5457e17084)
REM
REM compiler GCC version 9.2.1 20190827 (Red Hat 9.2.1-1)
REM options -cpp -mtune=generic -march=x86-64 -g -O0 -fpre-include=/usr/include/finclude/math-vector-fortran.h
REM seed 2123616012 -641200990 914944724 678039813 921439134 836019361 547811313 712201962 1655189329 2087407768 -1409636346 493519443 -717374274 -128579503 791764102 2070600304 -619262039 1525617540 328970028 385345115 -2082863851 -1846584669 913971998 -1687464266 -1470414271 -1935904394 -449239785 -1772346762 -1042120173 1647837670 -891588234 1887883294 911702371
REM
CELL 1.54180   50.00000   50.00000   50.00000   90.00000   90.00000   90.00000
LATT -1
SFAC C  
C      1  0.4794570000000  0.4836850000000  0.6189220000000 1.0
C      1  0.4622310000000  0.5471770000000  0.5784660000000 1.0
C      1  0.4650440000000  0.5984270000000  0.5354320000000 1.0
C      1  0.4611980000000  0.5961280000000  0.4653590000000 1.0
C      1  0.4703180000000  0.5499550000000  0.3980180000000 1.0
C      1  0.4634890000000  0.4796480000000  0.4065270000000 1.0
C      1  0.4631410000000  0.4198480000000  0.4371560000000 1.0
C      1  0.4664860000000  0.4065590000000  0.5072800000000 1.0
C      1  0.4675790000000  0.4191500000000  0.5757500000000 1.0
C      1  0.4355880000000  0.4728380000000  0.4248280000000 1.0
C      1  0.4444360000000  0.4099490000000  0.4606850000000 1.0
C      1  0.4392610000000  0.4205710000000  0.5220930000000 1.0
C      1  0.4585690000000  0.4386090000000  0.6003670000000 1.0
C      1  0.4595210000000  0.5089450000000  0.6222770000000 1.0
C      1  0.4456120000000  0.5455970000000  0.5518080000000 1.0
C      1  0.4434850000000  0.5838470000000  0.5134210000000 1.0
C      1  0.4566550000000  0.5919240000000  0.4342380000000 1.0
C      1  0.4502810000000  0.5297490000000  0.3993120000000 1.0
C      1  0.4782900000000  0.4676780000000  0.4415570000000 1.0
C      1  0.4761250000000  0.4418020000000  0.4754070000000 1.0
C      1  0.4784340000000  0.4393620000000  0.5396920000000 1.0
C      1  0.4806750000000  0.4680540000000  0.5718290000000 1.0
C      1  0.4685850000000  0.5080130000000  0.5744210000000 1.0
C      1  0.4905310000000  0.5472470000000  0.5388140000000 1.0
C      1  0.4756730000000  0.5688920000000  0.4956680000000 1.0
C      1  0.4891870000000  0.5560620000000  0.4497140000000 1.0
C      1  0.4867310000000  0.5188800000000  0.4331640000000 1.0
C      1  0.4241160000000  0.4651420000000  0.5249930000000 1.0
C      1  0.4304490000000  0.4949880000000  0.5402720000000 1.0
C      1  0.4365890000000  0.5242480000000  0.5272120000000 1.0
C      1  0.4231480000000  0.5249520000000  0.4991760000000 1.0
C      1  0.4364020000000  0.5424900000000  0.4751350000000 1.0
C      1  0.4241320000000  0.5173790000000  0.4556780000000 1.0
C      1  0.4202500000000  0.4838740000000  0.4493800000000 1.0
C      1  0.4143880000000  0.4639950000000  0.4763590000000 1.0
C      1  0.4301340000000  0.4444440000000  0.4993750000000 1.0
C      1  0.6248630000000  0.5250160000000  0.4819100000000 1.0
C      1  0.6263120000000  0.5033340000000  0.4655190000000 1.0
C      1  0.6203070000000  0.4771260000000  0.4690740000000 1.0
C      1  0.6004700000000  0.4601650000000  0.4777240000000 1.0
C      1  0.5910390000000  0.4616420000000  0.5064280000000 1.0
C      1  0.5979130000000  0.4707810000000  0.5350740000000 1.0
C      1  0.6035280000000  0.4981540000000  0.5365690000000 1.0
C      1  0.5915790000000  0.5178940000000  0.5200030000000 1.0
C      1  0.6076040000000  0.5317910000000  0.5018320000000 1.0
C      1  0.5072610000000  0.4782580000000  0.5268370000000 1.0
C      1  0.5238040000000  0.4986160000000  0.5365170000000 1.0
C      1  0.5130960000000  0.5241480000000  0.5332610000000 1.0
C      1  0.5115280000000  0.5344660000000  0.5030300000000 1.0
C      1  0.5075350000000  0.5429870000000  0.4720270000000 1.0
C      1  0.5098390000000  0.5161620000000  0.4542530000000 1.0
C      1  0.4997930000000  0.4882340000000  0.4581300000000 1.0
C      1  0.4962490000000  0.4669010000000  0.4814500000000 1.0
C      1  0.5155960000000  0.4684790000000  0.5023620000000 1.0
C      1  0.5211310000000  0.5727170000000  0.5695200000000 1.0
C      1  0.5203480000000  0.5954130000000  0.5099740000000 1.0
C      1  0.5229090000000  0.5888190000000  0.4457030000000 1.0
C      1  0.5199790000000  0.5149400000000  0.3954790000000 1.0
C      1  0.5223010000000  0.4543880000000  0.4144100000000 1.0
C      1  0.5204830000000  0.4172770000000  0.4659260000000 1.0
C      1  0.5197270000000  0.4126870000000  0.5292360000000 1.0
C      1  0.5235610000000  0.4424270000000  0.5834370000000 1.0
C      1  0.5231990000000  0.4992150000000  0.5952140000000 1.0
C      1  0.3918830000000  0.4996150000000  0.4410180000000 1.0
C      1  0.3851200000000  0.4531750000000  0.4827640000000 1.0
C      1  0.3768940000000  0.4530810000000  0.5091320000000 1.0
C      1  0.3917750000000  0.4649490000000  0.5295240000000 1.0
C      1  0.3982740000000  0.4924080000000  0.5383610000000 1.0
C      1  0.3847190000000  0.5145840000000  0.5270470000000 1.0
C      1  0.3923160000000  0.5274130000000  0.5030680000000 1.0
C      1  0.3796970000000  0.5341000000000  0.4788680000000 1.0
C      1  0.3911830000000  0.5257900000000  0.4547430000000 1.0
C      1  0.5488950000000  0.4079860000000  0.4799260000000 1.0
C      1  0.5486490000000  0.4175360000000  0.5446200000000 1.0
C      1  0.5530330000000  0.4551730000000  0.5893230000000 1.0
C      1  0.5389450000000  0.5221350000000  0.5900720000000 1.0
C      1  0.5501810000000  0.5831910000000  0.5567060000000 1.0
C      1  0.5423650000000  0.5804850000000  0.4898410000000 1.0
C      1  0.5508970000000  0.5743630000000  0.4326510000000 1.0
C      1  0.5471740000000  0.5026010000000  0.4050290000000 1.0
C      1  0.5505630000000  0.4426290000000  0.4272790000000 1.0
C      1  0.5213380000000  0.6026740000000  0.4767160000000 1.0
C      1  0.5245230000000  0.5783240000000  0.4143540000000 1.0
C      1  0.5235940000000  0.4811800000000  0.3931420000000 1.0
C      1  0.5223430000000  0.4260200000000  0.4329790000000 1.0
C      1  0.5199990000000  0.4041710000000  0.4973170000000 1.0
C      1  0.5208770000000  0.4166470000000  0.5630810000000 1.0
C      1  0.5273600000000  0.4693420000000  0.6041290000000 1.0
C      1  0.5234450000000  0.5455420000000  0.5891330000000 1.0
C      1  0.5225760000000  0.5936200000000  0.5431040000000 1.0
C      1  0.5726210000000  0.5740350000000  0.4933100000000 1.0
C      1  0.5725040000000  0.5586280000000  0.4410400000000 1.0
C      1  0.5693740000000  0.5055420000000  0.4208090000000 1.0
C      1  0.5718510000000  0.4541750000000  0.4397390000000 1.0
C      1  0.5709520000000  0.4241080000000  0.4834100000000 1.0
C      1  0.5700660000000  0.4325630000000  0.5377340000000 1.0
C      1  0.5732240000000  0.4673020000000  0.5757240000000 1.0
C      1  0.5654450000000  0.5210480000000  0.5796330000000 1.0
C      1  0.5707710000000  0.5666570000000  0.5481630000000 1.0
C      1  0.4919260000000  0.3886820000000  0.4987880000000 1.0
C      1  0.4954990000000  0.4015730000000  0.5745770000000 1.0
C      1  0.5071570000000  0.4712170000000  0.6285550000000 1.0
C      1  0.4917560000000  0.5372860000000  0.5936400000000 1.0
C      1  0.4959250000000  0.6102420000000  0.5376580000000 1.0
C      1  0.4890240000000  0.6132540000000  0.4751740000000 1.0
C      1  0.4999230000000  0.5639170000000  0.4075660000000 1.0
C      1  0.4904230000000  0.4815310000000  0.3854330000000 1.0
C      1  0.4934300000000  0.4099820000000  0.4251760000000 1.0
C      1  0.5765260000000  0.5328350000000  0.4279960000000 1.0
C      1  0.5796080000000  0.4802680000000  0.4300370000000 1.0
C      1  0.5827030000000  0.4430120000000  0.4635910000000 1.0
C      1  0.5769760000000  0.4334790000000  0.5100780000000 1.0
C      1  0.5831160000000  0.4542800000000  0.5527050000000 1.0
C      1  0.5772340000000  0.4950900000000  0.5808340000000 1.0
C      1  0.5750850000000  0.5448500000000  0.5666220000000 1.0
C      1  0.5800600000000  0.5730040000000  0.5212310000000 1.0
C      1  0.5830360000000  0.5664250000000  0.4672680000000 1.0
C      1  0.4907310000000  0.4224190000000  0.4567040000000 1.0
C      1  0.4911660000000  0.4216120000000  0.5214150000000 1.0
C      1  0.4928570000000  0.4411890000000  0.5773610000000 1.0
C      1  0.4925880000000  0.5059400000000  0.5979600000000 1.0
C      1  0.4926360000000  0.5578240000000  0.5675820000000 1.0
C      1  0.4873240000000  0.5902590000000  0.5113070000000 1.0
C      1  0.4921590000000  0.5867760000000  0.4548610000000 1.0
C      1  0.5001840000000  0.5313220000000  0.4073480000000 1.0
C      1  0.4938430000000  0.4668050000000  0.4148830000000 1.0
C      1  0.4562430000000  0.4481240000000  0.4299200000000 1.0
C      1  0.4519650000000  0.4244250000000  0.4849730000000 1.0
C      1  0.4531100000000  0.4261990000000  0.5479120000000 1.0
C      1  0.4678540000000  0.4642090000000  0.5983350000000 1.0
C      1  0.4553760000000  0.5220260000000  0.5991610000000 1.0
C      1  0.4620910000000  0.5646100000000  0.5334890000000 1.0
C      1  0.4461940000000  0.5741260000000  0.4830840000000 1.0
C      1  0.4715270000000  0.5700860000000  0.4249700000000 1.0
C      1  0.4577480000000  0.5084560000000  0.4172880000000 1.0
C      1  0.5552400000000  0.4747330000000  0.4707910000000 1.0
C      1  0.5420350000000  0.4687230000000  0.4950590000000 1.0
C      1  0.5601610000000  0.4719730000000  0.5162300000000 1.0
C      1  0.5519810000000  0.4948110000000  0.5306990000000 1.0
C      1  0.5634780000000  0.5177610000000  0.5193720000000 1.0
C      1  0.5449410000000  0.5325060000000  0.5072040000000 1.0
C      1  0.5394940000000  0.5512430000000  0.4809620000000 1.0
C      1  0.5393400000000  0.5209710000000  0.4653890000000 1.0
C      1  0.5556950000000  0.5006770000000  0.4619560000000 1.0
C      1  0.4577150000000  0.5154090000000  0.4505760000000 1.0
C      1  0.4672570000000  0.4882130000000  0.4641990000000 1.0
C      1  0.4649170000000  0.4701390000000  0.4901910000000 1.0
C      1  0.4553460000000  0.4699000000000  0.5170570000000 1.0
C      1  0.4784970000000  0.4726160000000  0.5395730000000 1.0
C      1  0.4628250000000  0.5013720000000  0.5466130000000 1.0
C      1  0.4687760000000  0.5254720000000  0.5262490000000 1.0
C      1  0.4806280000000  0.5386850000000  0.5010630000000 1.0
C      1  0.4680720000000  0.5391910000000  0.4703940000000 1.0
C      1  0.4171790000000  0.4948740000000  0.4879440000000 1.0
END
