TITL C-3289324-3781-75 -0.000149315563435411 125000 -858.63170687422 0 0 161 (C1) n - 1
REM
REM in /nfs/bkarasulu/CARBON/AIRSS/Generating-Clusters/AIREBO/with-SteepDescent/Higher-Symm/SD-CG/HFTN-CG
REM
REM
REM
REM
REM
REM ./C.cell (b20cbc046b6831c77cfcea5457e17084)
REM
REM compiler GCC version 9.2.1 20190827 (Red Hat 9.2.1-1)
REM options -cpp -mtune=generic -march=x86-64 -g -O0 -fpre-include=/usr/include/finclude/math-vector-fortran.h
REM seed 2807756 825269301 1581483069 1919455287 546266701 1769635157 -1605630860 463605869 454210538 -633945160 393512159 661788925 2002799863 107926256 -1416156926 -521854552 171217874 1804390972 -168339705 1936455098 477517482 1996001128 485675350 313584234 -828111453 -1673332448 -323642697 91922693 237386852 -1375749270 -983987662 494345041 -674177463
REM
CELL 1.54180   50.00000   50.00000   50.00000   90.00000   90.00000   90.00000
LATT -1
SFAC C  
C      1  0.4058710000000  0.5647420000000  0.4542650000000 1.0
C      1  0.4060420000000  0.4764060000000  0.4358930000000 1.0
C      1  0.4101630000000  0.4250520000000  0.4996590000000 1.0
C      1  0.4140140000000  0.4846370000000  0.5718630000000 1.0
C      1  0.4094090000000  0.5651920000000  0.5493650000000 1.0
C      1  0.5171160000000  0.5143480000000  0.4300380000000 1.0
C      1  0.5125950000000  0.4447090000000  0.4617750000000 1.0
C      1  0.5086430000000  0.4476450000000  0.5480340000000 1.0
C      1  0.5082550000000  0.5190410000000  0.5541800000000 1.0
C      1  0.5070700000000  0.5645350000000  0.4946000000000 1.0
C      1  0.5297120000000  0.5446820000000  0.5479020000000 1.0
C      1  0.5323930000000  0.5641230000000  0.4718750000000 1.0
C      1  0.5378450000000  0.4873730000000  0.4300640000000 1.0
C      1  0.5337200000000  0.4410730000000  0.4881770000000 1.0
C      1  0.5361690000000  0.4662750000000  0.5508060000000 1.0
C      1  0.4588920000000  0.6107940000000  0.4956060000000 1.0
C      1  0.4608570000000  0.5093390000000  0.3869450000000 1.0
C      1  0.4669170000000  0.4002680000000  0.4368760000000 1.0
C      1  0.4617690000000  0.4262230000000  0.5559820000000 1.0
C      1  0.4706910000000  0.5345820000000  0.6029590000000 1.0
C      1  0.5308810000000  0.5764520000000  0.5617560000000 1.0
C      1  0.5252610000000  0.5818250000000  0.4437230000000 1.0
C      1  0.5363030000000  0.4613330000000  0.4081890000000 1.0
C      1  0.5370440000000  0.4076380000000  0.4934780000000 1.0
C      1  0.5399340000000  0.4696210000000  0.5844370000000 1.0
C      1  0.4381160000000  0.4267580000000  0.4862330000000 1.0
C      1  0.4417860000000  0.4697590000000  0.5720570000000 1.0
C      1  0.4394120000000  0.5632020000000  0.5580380000000 1.0
C      1  0.4330410000000  0.5725590000000  0.4578230000000 1.0
C      1  0.4296030000000  0.4817680000000  0.4255190000000 1.0
C      1  0.5077300000000  0.5629480000000  0.5913800000000 1.0
C      1  0.5111630000000  0.6030760000000  0.4744670000000 1.0
C      1  0.5077410000000  0.5019050000000  0.3932200000000 1.0
C      1  0.5080280000000  0.4051340000000  0.4640930000000 1.0
C      1  0.5175330000000  0.4331750000000  0.5892910000000 1.0
C      1  0.4572890000000  0.4478570000000  0.4501520000000 1.0
C      1  0.4576160000000  0.4402340000000  0.5188330000000 1.0
C      1  0.4649600000000  0.5113430000000  0.5709240000000 1.0
C      1  0.4577040000000  0.5755690000000  0.5143340000000 1.0
C      1  0.4589770000000  0.5331530000000  0.4360460000000 1.0
C      1  0.4692400000000  0.5147890000000  0.4649280000000 1.0
C      1  0.4707330000000  0.4737490000000  0.4769830000000 1.0
C      1  0.4780490000000  0.4646780000000  0.5069350000000 1.0
C      1  0.4616810000000  0.5092400000000  0.5312870000000 1.0
C      1  0.4571760000000  0.5358590000000  0.5153310000000 1.0
C      1  0.5541950000000  0.4900930000000  0.6065910000000 1.0
C      1  0.5444620000000  0.5960170000000  0.5374860000000 1.0
C      1  0.5579980000000  0.5613000000000  0.4146980000000 1.0
C      1  0.5608200000000  0.4483590000000  0.4132840000000 1.0
C      1  0.5390790000000  0.3997610000000  0.5230320000000 1.0
C      1  0.4648740000000  0.4882600000000  0.5832240000000 1.0
C      1  0.4552290000000  0.5838290000000  0.5402720000000 1.0
C      1  0.4513440000000  0.5629210000000  0.4364380000000 1.0
C      1  0.4574920000000  0.4646530000000  0.4248790000000 1.0
C      1  0.4621830000000  0.4101720000000  0.5036060000000 1.0
C      1  0.4950650000000  0.5092130000000  0.5247720000000 1.0
C      1  0.5059840000000  0.5318650000000  0.5039950000000 1.0
C      1  0.5011410000000  0.5160200000000  0.4767900000000 1.0
C      1  0.5013950000000  0.4863930000000  0.4831350000000 1.0
C      1  0.5026310000000  0.4824800000000  0.5155440000000 1.0
C      1  0.3987030000000  0.4737080000000  0.4623500000000 1.0
C      1  0.4017200000000  0.4452820000000  0.5159290000000 1.0
C      1  0.4063830000000  0.5028490000000  0.5564740000000 1.0
C      1  0.4016750000000  0.5570680000000  0.5267240000000 1.0
C      1  0.3976560000000  0.5395980000000  0.4636180000000 1.0
C      1  0.4975200000000  0.5701640000000  0.5597540000000 1.0
C      1  0.4940030000000  0.5795370000000  0.4569140000000 1.0
C      1  0.5010780000000  0.4801620000000  0.4084640000000 1.0
C      1  0.5063520000000  0.3930040000000  0.4937150000000 1.0
C      1  0.5069590000000  0.4636900000000  0.5786430000000 1.0
C      1  0.5705930000000  0.5488460000000  0.5585270000000 1.0
C      1  0.5824580000000  0.5690820000000  0.4656770000000 1.0
C      1  0.5890100000000  0.4925830000000  0.4262550000000 1.0
C      1  0.5822150000000  0.4231770000000  0.4860710000000 1.0
C      1  0.5740350000000  0.4659330000000  0.5636100000000 1.0
C      1  0.4225310000000  0.5168470000000  0.5334910000000 1.0
C      1  0.4182720000000  0.5378180000000  0.5074100000000 1.0
C      1  0.4159750000000  0.5196510000000  0.4719780000000 1.0
C      1  0.4201270000000  0.4760370000000  0.4853370000000 1.0
C      1  0.4179420000000  0.4690610000000  0.5171750000000 1.0
C      1  0.5950830000000  0.4973810000000  0.5282250000000 1.0
C      1  0.5939510000000  0.5254470000000  0.5146160000000 1.0
C      1  0.5910330000000  0.5188660000000  0.4819600000000 1.0
C      1  0.5994860000000  0.4882860000000  0.4786020000000 1.0
C      1  0.5940880000000  0.4717230000000  0.5082780000000 1.0
C      1  0.4644030000000  0.4027620000000  0.5427710000000 1.0
C      1  0.4956080000000  0.5197790000000  0.6031430000000 1.0
C      1  0.4732910000000  0.6122240000000  0.5190160000000 1.0
C      1  0.4866740000000  0.5119830000000  0.3773740000000 1.0
C      1  0.4893480000000  0.4230820000000  0.4253320000000 1.0
C      1  0.4580950000000  0.5522230000000  0.5831550000000 1.0
C      1  0.4477280000000  0.5907180000000  0.4747580000000 1.0
C      1  0.4579890000000  0.4974630000000  0.4159620000000 1.0
C      1  0.4598920000000  0.4066660000000  0.4695210000000 1.0
C      1  0.4445590000000  0.4375420000000  0.5738320000000 1.0
C      1  0.5431990000000  0.5823390000000  0.4242070000000 1.0
C      1  0.5133210000000  0.4428060000000  0.4103120000000 1.0
C      1  0.5163740000000  0.3873760000000  0.5319290000000 1.0
C      1  0.5226500000000  0.4787000000000  0.6121840000000 1.0
C      1  0.5151620000000  0.6051610000000  0.5525510000000 1.0
C      1  0.5591220000000  0.5808620000000  0.4846150000000 1.0
C      1  0.5624220000000  0.5078800000000  0.4186300000000 1.0
C      1  0.5580390000000  0.4307730000000  0.4667360000000 1.0
C      1  0.5564140000000  0.4397630000000  0.5574100000000 1.0
C      1  0.5455590000000  0.5338190000000  0.5759650000000 1.0
C      1  0.5684190000000  0.4506630000000  0.4445050000000 1.0
C      1  0.5568750000000  0.4277440000000  0.5293160000000 1.0
C      1  0.5586540000000  0.5051490000000  0.5792900000000 1.0
C      1  0.5645740000000  0.5783310000000  0.5161700000000 1.0
C      1  0.5598590000000  0.5356570000000  0.4332890000000 1.0
C      1  0.5358880000000  0.4753160000000  0.5174890000000 1.0
C      1  0.5362020000000  0.5278510000000  0.5190690000000 1.0
C      1  0.5413630000000  0.5361150000000  0.4859900000000 1.0
C      1  0.5484320000000  0.4930320000000  0.4619000000000 1.0
C      1  0.5303750000000  0.4746560000000  0.4839390000000 1.0
C      1  0.4801870000000  0.4865850000000  0.4493890000000 1.0
C      1  0.4859630000000  0.4394910000000  0.4908550000000 1.0
C      1  0.4694840000000  0.4817790000000  0.5436540000000 1.0
C      1  0.4796320000000  0.5451080000000  0.5309880000000 1.0
C      1  0.4721790000000  0.5433700000000  0.4798070000000 1.0
C      1  0.5696140000000  0.4740220000000  0.4768810000000 1.0
C      1  0.5623610000000  0.4632850000000  0.5050410000000 1.0
C      1  0.5480140000000  0.5018430000000  0.5293660000000 1.0
C      1  0.5657660000000  0.5395920000000  0.5070580000000 1.0
C      1  0.5597140000000  0.5193310000000  0.4697130000000 1.0
C      1  0.5812950000000  0.5531130000000  0.5317460000000 1.0
C      1  0.5824760000000  0.5409670000000  0.4574260000000 1.0
C      1  0.5891330000000  0.4745000000000  0.4490450000000 1.0
C      1  0.5822030000000  0.4389540000000  0.5109870000000 1.0
C      1  0.5738370000000  0.4951540000000  0.5504540000000 1.0
C      1  0.4813720000000  0.4527460000000  0.4109080000000 1.0
C      1  0.4847150000000  0.3905780000000  0.5198780000000 1.0
C      1  0.4932140000000  0.4859590000000  0.6004800000000 1.0
C      1  0.4828920000000  0.5994290000000  0.5490400000000 1.0
C      1  0.4727290000000  0.5800740000000  0.4331690000000 1.0
C      1  0.4428940000000  0.4575840000000  0.4772610000000 1.0
C      1  0.4421080000000  0.4632510000000  0.5386330000000 1.0
C      1  0.4452880000000  0.5301150000000  0.5525570000000 1.0
C      1  0.4435870000000  0.5543380000000  0.4918280000000 1.0
C      1  0.4369550000000  0.5147170000000  0.4542470000000 1.0
C      1  0.5340630000000  0.5139360000000  0.4005620000000 1.0
C      1  0.5334500000000  0.4114550000000  0.4540850000000 1.0
C      1  0.5401840000000  0.4252800000000  0.5804770000000 1.0
C      1  0.5174110000000  0.5367620000000  0.5948270000000 1.0
C      1  0.5359970000000  0.6034200000000  0.4781130000000 1.0
C      1  0.4854350000000  0.5130170000000  0.4286550000000 1.0
C      1  0.4837770000000  0.4284060000000  0.4588790000000 1.0
C      1  0.4791250000000  0.4491710000000  0.5436030000000 1.0
C      1  0.4826350000000  0.5394060000000  0.5634180000000 1.0
C      1  0.4764220000000  0.5762170000000  0.4858380000000 1.0
C      1  0.4994300000000  0.5452820000000  0.4595600000000 1.0
C      1  0.5043560000000  0.4682730000000  0.4397230000000 1.0
C      1  0.5024600000000  0.4230320000000  0.5052570000000 1.0
C      1  0.4960630000000  0.4875730000000  0.5583480000000 1.0
C      1  0.5023990000000  0.5646940000000  0.5265500000000 1.0
C      1  0.5302970000000  0.5402070000000  0.4477780000000 1.0
C      1  0.5361730000000  0.4583450000000  0.4477150000000 1.0
C      1  0.5252820000000  0.4370830000000  0.5209050000000 1.0
C      1  0.5350600000000  0.4994060000000  0.5583930000000 1.0
C      1  0.5344020000000  0.5675490000000  0.5231700000000 1.0
C      1  0.4175200000000  0.5042120000000  0.5022370000000 1.0
END
