TITL C-3289335-9438-176 -0.00426802260213298 125000 -905.801985216659 0 0 164 (C1) n - 1
REM
REM in /nfs/bkarasulu/CARBON/AIRSS/Generating-Clusters/AIREBO/with-SteepDescent/Higher-Symm/SD-CG/HFTN-CG
REM
REM
REM
REM
REM
REM ./C.cell (b20cbc046b6831c77cfcea5457e17084)
REM
REM compiler GCC version 9.2.1 20190827 (Red Hat 9.2.1-1)
REM options -cpp -mtune=generic -march=x86-64 -g -O0 -fpre-include=/usr/include/finclude/math-vector-fortran.h
REM seed 1483230870 1482221918 1387227371 151886855 638739120 577235958 -1617226134 191339900 971814274 825301026 1341711897 1334939286 -1509226628 -1405833822 2097200910 -1820631609 1425810256 911226194 545444350 -604332325 473378445 487148047 -815682523 632300768 -2072842807 -1711087885 -745223143 -475828907 -1491763643 -680596048 1113837020 434456111 1391151050
REM
CELL 1.54180   50.00000   50.00000   50.00000   90.00000   90.00000   90.00000
LATT -1
SFAC C  
C      1  0.5314580000000  0.5620190000000  0.4189550000000 1.0
C      1  0.5288490000000  0.4835430000000  0.4047700000000 1.0
C      1  0.5301300000000  0.4097900000000  0.4506760000000 1.0
C      1  0.5289700000000  0.4130270000000  0.5380860000000 1.0
C      1  0.5318630000000  0.4675460000000  0.5965200000000 1.0
C      1  0.5272700000000  0.5540620000000  0.5830290000000 1.0
C      1  0.5226610000000  0.5908800000000  0.4947980000000 1.0
C      1  0.4807580000000  0.4560030000000  0.4361360000000 1.0
C      1  0.4670550000000  0.4313200000000  0.4858030000000 1.0
C      1  0.4765070000000  0.4583450000000  0.5596340000000 1.0
C      1  0.4758290000000  0.5104990000000  0.5770470000000 1.0
C      1  0.4790150000000  0.5728720000000  0.5330470000000 1.0
C      1  0.4672590000000  0.5755290000000  0.4793480000000 1.0
C      1  0.4688060000000  0.5165880000000  0.4238240000000 1.0
C      1  0.3991180000000  0.5362420000000  0.5138210000000 1.0
C      1  0.3759250000000  0.5392130000000  0.5032340000000 1.0
C      1  0.3916910000000  0.5137560000000  0.4551510000000 1.0
C      1  0.3903380000000  0.4460120000000  0.4760430000000 1.0
C      1  0.4093150000000  0.4619130000000  0.4845440000000 1.0
C      1  0.3976790000000  0.4772700000000  0.5248990000000 1.0
C      1  0.3721210000000  0.4745320000000  0.5248430000000 1.0
C      1  0.5128240000000  0.5711620000000  0.5602050000000 1.0
C      1  0.5161110000000  0.5892750000000  0.4647130000000 1.0
C      1  0.5127390000000  0.5357090000000  0.4125350000000 1.0
C      1  0.5178770000000  0.4528090000000  0.4116020000000 1.0
C      1  0.5149300000000  0.4063240000000  0.4787480000000 1.0
C      1  0.5193770000000  0.4207930000000  0.5697730000000 1.0
C      1  0.5188800000000  0.4962300000000  0.5948890000000 1.0
C      1  0.5113560000000  0.5618560000000  0.5084580000000 1.0
C      1  0.5005140000000  0.5466460000000  0.4526500000000 1.0
C      1  0.5144950000000  0.4916170000000  0.4345260000000 1.0
C      1  0.5222860000000  0.4403070000000  0.4598230000000 1.0
C      1  0.5101380000000  0.4360000000000  0.5215340000000 1.0
C      1  0.5224180000000  0.4702320000000  0.5647740000000 1.0
C      1  0.5140460000000  0.5314840000000  0.5613160000000 1.0
C      1  0.5263940000000  0.4554200000000  0.4900050000000 1.0
C      1  0.5156850000000  0.4747090000000  0.5147310000000 1.0
C      1  0.5235460000000  0.4944910000000  0.5408900000000 1.0
C      1  0.5196030000000  0.5246770000000  0.5224870000000 1.0
C      1  0.5297390000000  0.5371600000000  0.4925240000000 1.0
C      1  0.5158650000000  0.5118730000000  0.4735900000000 1.0
C      1  0.5285360000000  0.4833730000000  0.4707560000000 1.0
C      1  0.4817440000000  0.5629710000000  0.5654610000000 1.0
C      1  0.4835060000000  0.5958410000000  0.4613580000000 1.0
C      1  0.4842980000000  0.5468370000000  0.4227620000000 1.0
C      1  0.4908060000000  0.4730880000000  0.4084780000000 1.0
C      1  0.4875360000000  0.4041850000000  0.4868570000000 1.0
C      1  0.4929620000000  0.4111070000000  0.5546920000000 1.0
C      1  0.4941230000000  0.5075040000000  0.6014720000000 1.0
C      1  0.4278370000000  0.5665110000000  0.4684300000000 1.0
C      1  0.4360360000000  0.5261680000000  0.4265150000000 1.0
C      1  0.4319040000000  0.4637560000000  0.4504440000000 1.0
C      1  0.4420010000000  0.4297610000000  0.5087560000000 1.0
C      1  0.4221590000000  0.4562270000000  0.5481970000000 1.0
C      1  0.4201910000000  0.5244800000000  0.5718640000000 1.0
C      1  0.4171110000000  0.5620530000000  0.5383570000000 1.0
C      1  0.4420480000000  0.5716800000000  0.4447910000000 1.0
C      1  0.4355900000000  0.5014810000000  0.4074690000000 1.0
C      1  0.4250130000000  0.4341450000000  0.4600390000000 1.0
C      1  0.4482590000000  0.4211890000000  0.5379000000000 1.0
C      1  0.4304320000000  0.4774640000000  0.5647000000000 1.0
C      1  0.4383210000000  0.5457570000000  0.5778760000000 1.0
C      1  0.4269840000000  0.5748300000000  0.5155540000000 1.0
C      1  0.5999500000000  0.4904950000000  0.5246530000000 1.0
C      1  0.6091100000000  0.5208820000000  0.5239900000000 1.0
C      1  0.6115340000000  0.5365910000000  0.5006530000000 1.0
C      1  0.6133690000000  0.5268630000000  0.4745700000000 1.0
C      1  0.6033370000000  0.4976430000000  0.4704220000000 1.0
C      1  0.6115670000000  0.4702460000000  0.4823270000000 1.0
C      1  0.6134480000000  0.4675430000000  0.5094140000000 1.0
C      1  0.5381610000000  0.4474860000000  0.4336970000000 1.0
C      1  0.5318200000000  0.4227720000000  0.4992240000000 1.0
C      1  0.5409760000000  0.4442010000000  0.5646590000000 1.0
C      1  0.5328700000000  0.5130310000000  0.5780750000000 1.0
C      1  0.5293750000000  0.5687840000000  0.5364560000000 1.0
C      1  0.5242600000000  0.5581690000000  0.4663480000000 1.0
C      1  0.5314320000000  0.5163770000000  0.4271460000000 1.0
C      1  0.4195560000000  0.4877800000000  0.4672800000000 1.0
C      1  0.4233490000000  0.4576730000000  0.5142330000000 1.0
C      1  0.4185800000000  0.5021210000000  0.5288830000000 1.0
C      1  0.4107090000000  0.5289910000000  0.5432160000000 1.0
C      1  0.4297170000000  0.5300120000000  0.5026680000000 1.0
C      1  0.4356270000000  0.5370400000000  0.4734470000000 1.0
C      1  0.4232560000000  0.5183640000000  0.4527270000000 1.0
C      1  0.5585280000000  0.5560830000000  0.5795740000000 1.0
C      1  0.5534470000000  0.5938330000000  0.4987030000000 1.0
C      1  0.5581980000000  0.5568780000000  0.4240370000000 1.0
C      1  0.5577820000000  0.4849480000000  0.4037730000000 1.0
C      1  0.5618700000000  0.4106780000000  0.4556350000000 1.0
C      1  0.5597160000000  0.4112060000000  0.5360040000000 1.0
C      1  0.5631860000000  0.4715140000000  0.5954970000000 1.0
C      1  0.5556090000000  0.5581150000000  0.4703520000000 1.0
C      1  0.5585430000000  0.5145880000000  0.4340090000000 1.0
C      1  0.5641870000000  0.4537310000000  0.4408680000000 1.0
C      1  0.5627280000000  0.4269670000000  0.4986420000000 1.0
C      1  0.5663790000000  0.4521600000000  0.5553410000000 1.0
C      1  0.5597610000000  0.5131850000000  0.5712090000000 1.0
C      1  0.5569690000000  0.5632000000000  0.5331380000000 1.0
C      1  0.4562010000000  0.5700700000000  0.5112820000000 1.0
C      1  0.4703700000000  0.5602820000000  0.4490990000000 1.0
C      1  0.4635620000000  0.4849200000000  0.4145120000000 1.0
C      1  0.4602840000000  0.4530480000000  0.4602680000000 1.0
C      1  0.4720600000000  0.4280330000000  0.5504170000000 1.0
C      1  0.4608730000000  0.4843060000000  0.5611550000000 1.0
C      1  0.4659000000000  0.5412580000000  0.5746050000000 1.0
C      1  0.5599000000000  0.4652070000000  0.4873230000000 1.0
C      1  0.5730780000000  0.4711650000000  0.5153510000000 1.0
C      1  0.5569670000000  0.4912870000000  0.5354260000000 1.0
C      1  0.5637880000000  0.5190770000000  0.5264650000000 1.0
C      1  0.5610150000000  0.5306620000000  0.4988520000000 1.0
C      1  0.5747590000000  0.5163750000000  0.4745160000000 1.0
C      1  0.5600060000000  0.4897240000000  0.4662910000000 1.0
C      1  0.4966160000000  0.5306520000000  0.6176640000000 1.0
C      1  0.4892200000000  0.6023270000000  0.5298950000000 1.0
C      1  0.4939980000000  0.6010260000000  0.4339460000000 1.0
C      1  0.4783710000000  0.5223680000000  0.3917060000000 1.0
C      1  0.4865700000000  0.4276630000000  0.4231300000000 1.0
C      1  0.4861320000000  0.3876170000000  0.5098160000000 1.0
C      1  0.4850370000000  0.4497040000000  0.5892220000000 1.0
C      1  0.5764580000000  0.4394440000000  0.5271360000000 1.0
C      1  0.5720270000000  0.4833050000000  0.5648530000000 1.0
C      1  0.5705080000000  0.5393700000000  0.5524920000000 1.0
C      1  0.5679730000000  0.5638420000000  0.5015070000000 1.0
C      1  0.5721580000000  0.5395520000000  0.4497530000000 1.0
C      1  0.5714990000000  0.4837130000000  0.4348590000000 1.0
C      1  0.5731900000000  0.4398450000000  0.4689640000000 1.0
C      1  0.6027120000000  0.4868870000000  0.5566260000000 1.0
C      1  0.6024930000000  0.5350500000000  0.5470350000000 1.0
C      1  0.5998910000000  0.5627170000000  0.5023840000000 1.0
C      1  0.6045520000000  0.5433320000000  0.4538020000000 1.0
C      1  0.6026800000000  0.4894950000000  0.4392230000000 1.0
C      1  0.6042140000000  0.4475760000000  0.4690000000000 1.0
C      1  0.6085330000000  0.4428530000000  0.5212200000000 1.0
C      1  0.5022110000000  0.4607570000000  0.5420630000000 1.0
C      1  0.4932970000000  0.5077950000000  0.5489470000000 1.0
C      1  0.4978350000000  0.5445640000000  0.5344320000000 1.0
C      1  0.4841320000000  0.5496890000000  0.4920490000000 1.0
C      1  0.4928630000000  0.5137580000000  0.4486200000000 1.0
C      1  0.5068990000000  0.4663300000000  0.4499010000000 1.0
C      1  0.4934380000000  0.4484160000000  0.4946410000000 1.0
C      1  0.4603830000000  0.5367960000000  0.5127200000000 1.0
C      1  0.4661190000000  0.5293090000000  0.4739670000000 1.0
C      1  0.4763920000000  0.4985470000000  0.4741930000000 1.0
C      1  0.4698720000000  0.4712100000000  0.4860420000000 1.0
C      1  0.4504290000000  0.4747250000000  0.5090650000000 1.0
C      1  0.4479760000000  0.4937910000000  0.5326970000000 1.0
C      1  0.4687680000000  0.5158260000000  0.5317140000000 1.0
C      1  0.4162120000000  0.5803740000000  0.4898530000000 1.0
C      1  0.4322300000000  0.5571460000000  0.4228010000000 1.0
C      1  0.4342650000000  0.4716690000000  0.4219000000000 1.0
C      1  0.4289060000000  0.4206600000000  0.4805390000000 1.0
C      1  0.4257540000000  0.4284770000000  0.5538850000000 1.0
C      1  0.4175980000000  0.4976590000000  0.5796220000000 1.0
C      1  0.4275650000000  0.5691410000000  0.5647500000000 1.0
C      1  0.5196380000000  0.5837850000000  0.4312040000000 1.0
C      1  0.5026310000000  0.5045150000000  0.3993900000000 1.0
C      1  0.5124160000000  0.4185610000000  0.4243340000000 1.0
C      1  0.5011010000000  0.3942860000000  0.5321600000000 1.0
C      1  0.5118470000000  0.4427420000000  0.5918130000000 1.0
C      1  0.5136100000000  0.5512520000000  0.6107130000000 1.0
C      1  0.5048580000000  0.6103350000000  0.5118830000000 1.0
C      1  0.5138170000000  0.5020310000000  0.5028740000000 1.0
C      1  0.4111550000000  0.5020980000000  0.4969660000000 1.0
C      1  0.3854140000000  0.5053640000000  0.4784210000000 1.0
END
