TITL C-3289333-7213-298 -0.00185682269827144 125000 -912.689959733499 0 0 163 (C1) n - 1
REM
REM in /nfs/bkarasulu/CARBON/AIRSS/Generating-Clusters/AIREBO/with-SteepDescent/Higher-Symm/SD-CG/HFTN-CG
REM
REM
REM
REM
REM
REM ./C.cell (b20cbc046b6831c77cfcea5457e17084)
REM
REM compiler GCC version 9.2.1 20190827 (Red Hat 9.2.1-1)
REM options -cpp -mtune=generic -march=x86-64 -g -O0 -fpre-include=/usr/include/finclude/math-vector-fortran.h
REM seed -82973775 -2064965573 54068453 -98350709 1589815419 1025670263 952507259 1964412252 956406907 -96824576 -780108120 -3944232 1027716632 -1211408693 -1420040513 1601684002 741315170 939982335 -1909090563 517055079 -938202944 -314492082 1117729664 1319943076 -1684748622 -1848057984 792996390 536565918 2104950839 1335248961 -51161837 1468429139 1985757962
REM
CELL 1.54180   50.00000   50.00000   50.00000   90.00000   90.00000   90.00000
LATT -1
SFAC C  
C      1  0.4481510000000  0.4630230000000  0.4095280000000 1.0
C      1  0.5565440000000  0.5372190000000  0.4127870000000 1.0
C      1  0.4433520000000  0.5350720000000  0.4161640000000 1.0
C      1  0.5538530000000  0.4692270000000  0.4148890000000 1.0
C      1  0.4556210000000  0.5748470000000  0.5757040000000 1.0
C      1  0.5408140000000  0.4317930000000  0.5574040000000 1.0
C      1  0.4546290000000  0.4411490000000  0.5590610000000 1.0
C      1  0.5436780000000  0.5721490000000  0.5688290000000 1.0
C      1  0.5498420000000  0.4503240000000  0.4498140000000 1.0
C      1  0.4425430000000  0.5337170000000  0.4606610000000 1.0
C      1  0.5563250000000  0.5426760000000  0.4544400000000 1.0
C      1  0.4548980000000  0.4512680000000  0.4468530000000 1.0
C      1  0.4737190000000  0.4840950000000  0.4979160000000 1.0
C      1  0.5224110000000  0.5082360000000  0.5007770000000 1.0
C      1  0.4818770000000  0.5100300000000  0.5038350000000 1.0
C      1  0.5356640000000  0.4838670000000  0.4910950000000 1.0
C      1  0.4250670000000  0.5533110000000  0.5368010000000 1.0
C      1  0.5718350000000  0.4362610000000  0.5441780000000 1.0
C      1  0.4364520000000  0.4432080000000  0.5303840000000 1.0
C      1  0.5714590000000  0.5564470000000  0.5369530000000 1.0
C      1  0.4200500000000  0.5582410000000  0.4844060000000 1.0
C      1  0.5838800000000  0.4351280000000  0.4906550000000 1.0
C      1  0.4203890000000  0.4360390000000  0.4802410000000 1.0
C      1  0.5845680000000  0.5601250000000  0.4822710000000 1.0
C      1  0.5169920000000  0.4778590000000  0.6005800000000 1.0
C      1  0.4834200000000  0.5311160000000  0.6175490000000 1.0
C      1  0.5142080000000  0.5321210000000  0.6132470000000 1.0
C      1  0.4876620000000  0.4793850000000  0.6005320000000 1.0
C      1  0.5183910000000  0.5340130000000  0.4241900000000 1.0
C      1  0.4852510000000  0.4699350000000  0.4218120000000 1.0
C      1  0.5146090000000  0.4708340000000  0.4206700000000 1.0
C      1  0.4872030000000  0.5329240000000  0.4282620000000 1.0
C      1  0.5346420000000  0.5227390000000  0.5893780000000 1.0
C      1  0.4714630000000  0.4947120000000  0.5820900000000 1.0
C      1  0.5322720000000  0.4928030000000  0.5809580000000 1.0
C      1  0.4631640000000  0.5227900000000  0.5930330000000 1.0
C      1  0.5550890000000  0.5142530000000  0.4358100000000 1.0
C      1  0.4465900000000  0.4824780000000  0.4552170000000 1.0
C      1  0.5547890000000  0.4837140000000  0.4456350000000 1.0
C      1  0.4490250000000  0.5101300000000  0.4381630000000 1.0
C      1  0.4405300000000  0.4607210000000  0.5780740000000 1.0
C      1  0.5665040000000  0.5466220000000  0.5691320000000 1.0
C      1  0.4306300000000  0.5521790000000  0.5703310000000 1.0
C      1  0.5648030000000  0.4493130000000  0.5744710000000 1.0
C      1  0.4247910000000  0.4582830000000  0.4326930000000 1.0
C      1  0.5834030000000  0.5398650000000  0.4340670000000 1.0
C      1  0.4172420000000  0.5335120000000  0.4383890000000 1.0
C      1  0.5792470000000  0.4549060000000  0.4333580000000 1.0
C      1  0.4091280000000  0.4568500000000  0.4624630000000 1.0
C      1  0.5943750000000  0.5382430000000  0.4656610000000 1.0
C      1  0.4039950000000  0.5377830000000  0.4694120000000 1.0
C      1  0.5927600000000  0.4550890000000  0.4645870000000 1.0
C      1  0.5257100000000  0.5172460000000  0.4504740000000 1.0
C      1  0.4776230000000  0.4839770000000  0.4478610000000 1.0
C      1  0.5222630000000  0.4851420000000  0.4463290000000 1.0
C      1  0.4778360000000  0.5162500000000  0.4530210000000 1.0
C      1  0.5564340000000  0.4033600000000  0.5136550000000 1.0
C      1  0.4422190000000  0.5912180000000  0.5114090000000 1.0
C      1  0.5672700000000  0.5976550000000  0.5087270000000 1.0
C      1  0.4339150000000  0.3991390000000  0.5082610000000 1.0
C      1  0.5176900000000  0.4394330000000  0.4518600000000 1.0
C      1  0.4921810000000  0.5575860000000  0.4482100000000 1.0
C      1  0.5173110000000  0.5620510000000  0.4590530000000 1.0
C      1  0.4870640000000  0.4400640000000  0.4489760000000 1.0
C      1  0.5248380000000  0.4925480000000  0.5481030000000 1.0
C      1  0.4794260000000  0.5193350000000  0.5317750000000 1.0
C      1  0.5198910000000  0.5175570000000  0.5292040000000 1.0
C      1  0.4751820000000  0.4944630000000  0.5489390000000 1.0
C      1  0.6007860000000  0.5217300000000  0.5084920000000 1.0
C      1  0.3924220000000  0.4636980000000  0.4998830000000 1.0
C      1  0.5897980000000  0.4714480000000  0.5100090000000 1.0
C      1  0.3956150000000  0.5205070000000  0.5125870000000 1.0
C      1  0.5571810000000  0.4929390000000  0.5499290000000 1.0
C      1  0.4266620000000  0.5203150000000  0.5591210000000 1.0
C      1  0.5758130000000  0.5196710000000  0.5516830000000 1.0
C      1  0.4439120000000  0.4919970000000  0.5534160000000 1.0
C      1  0.5344830000000  0.5777940000000  0.4401710000000 1.0
C      1  0.4705820000000  0.4175380000000  0.4321990000000 1.0
C      1  0.5337060000000  0.4184360000000  0.4319990000000 1.0
C      1  0.4574030000000  0.5840380000000  0.4255130000000 1.0
C      1  0.4843610000000  0.4699920000000  0.4752490000000 1.0
C      1  0.5172880000000  0.5266320000000  0.4774980000000 1.0
C      1  0.4877580000000  0.5265690000000  0.4787250000000 1.0
C      1  0.5136450000000  0.4732590000000  0.4723190000000 1.0
C      1  0.4237920000000  0.5141360000000  0.5270080000000 1.0
C      1  0.5634040000000  0.4829890000000  0.5196540000000 1.0
C      1  0.4283140000000  0.4823410000000  0.5289840000000 1.0
C      1  0.5728730000000  0.5153730000000  0.5212300000000 1.0
C      1  0.4775890000000  0.4008250000000  0.4558400000000 1.0
C      1  0.5343600000000  0.5965740000000  0.4685220000000 1.0
C      1  0.4695810000000  0.5782410000000  0.4530800000000 1.0
C      1  0.5279830000000  0.4009690000000  0.4549880000000 1.0
C      1  0.4898210000000  0.4490560000000  0.6013140000000 1.0
C      1  0.5164730000000  0.5578550000000  0.5928370000000 1.0
C      1  0.4864050000000  0.5548510000000  0.5963630000000 1.0
C      1  0.5229520000000  0.4472750000000  0.6044620000000 1.0
C      1  0.4868040000000  0.4110630000000  0.4869820000000 1.0
C      1  0.5127720000000  0.5854040000000  0.4923760000000 1.0
C      1  0.4827340000000  0.5781940000000  0.4844470000000 1.0
C      1  0.5179100000000  0.4130650000000  0.4826880000000 1.0
C      1  0.6007450000000  0.5433180000000  0.5276390000000 1.0
C      1  0.4076190000000  0.4593920000000  0.5224600000000 1.0
C      1  0.5974270000000  0.4530920000000  0.5294070000000 1.0
C      1  0.3956040000000  0.5419320000000  0.5319980000000 1.0
C      1  0.5805110000000  0.5723990000000  0.5095140000000 1.0
C      1  0.4214040000000  0.4251000000000  0.5072640000000 1.0
C      1  0.5797780000000  0.4204690000000  0.5151320000000 1.0
C      1  0.4228950000000  0.5703670000000  0.5104050000000 1.0
C      1  0.5315440000000  0.4129550000000  0.5102400000000 1.0
C      1  0.4693150000000  0.5838830000000  0.5118470000000 1.0
C      1  0.5421310000000  0.6005180000000  0.5004900000000 1.0
C      1  0.4606720000000  0.3979820000000  0.5065620000000 1.0
C      1  0.4351910000000  0.5185570000000  0.4856290000000 1.0
C      1  0.5615450000000  0.4907530000000  0.4753510000000 1.0
C      1  0.4341190000000  0.4882070000000  0.4812510000000 1.0
C      1  0.5569250000000  0.5210740000000  0.4766660000000 1.0
C      1  0.5204620000000  0.5703950000000  0.5219060000000 1.0
C      1  0.4817280000000  0.4216670000000  0.5189120000000 1.0
C      1  0.5131010000000  0.4283880000000  0.5288510000000 1.0
C      1  0.4822840000000  0.5721910000000  0.5331910000000 1.0
C      1  0.3943340000000  0.5154010000000  0.4852410000000 1.0
C      1  0.5922350000000  0.4840380000000  0.4797910000000 1.0
C      1  0.4029080000000  0.4860820000000  0.4782270000000 1.0
C      1  0.6016490000000  0.5150410000000  0.4813910000000 1.0
C      1  0.5332780000000  0.5518920000000  0.4857660000000 1.0
C      1  0.4752210000000  0.4402010000000  0.4790440000000 1.0
C      1  0.5291290000000  0.4451620000000  0.4835970000000 1.0
C      1  0.4688230000000  0.5476960000000  0.4908150000000 1.0
C      1  0.5396490000000  0.5448820000000  0.5336310000000 1.0
C      1  0.4677310000000  0.4513030000000  0.5197930000000 1.0
C      1  0.5182190000000  0.4604900000000  0.5388420000000 1.0
C      1  0.4563160000000  0.5409180000000  0.5420160000000 1.0
C      1  0.5160590000000  0.4505180000000  0.5712840000000 1.0
C      1  0.4698230000000  0.5453010000000  0.5697100000000 1.0
C      1  0.5271550000000  0.5429350000000  0.5651960000000 1.0
C      1  0.4849800000000  0.4384270000000  0.5730820000000 1.0
C      1  0.5377390000000  0.4617870000000  0.5126830000000 1.0
C      1  0.4476560000000  0.5323350000000  0.5113360000000 1.0
C      1  0.5534030000000  0.5330310000000  0.5048780000000 1.0
C      1  0.4462940000000  0.4737380000000  0.5066820000000 1.0
C      1  0.4821520000000  0.5823990000000  0.5612580000000 1.0
C      1  0.5120090000000  0.4135140000000  0.5578950000000 1.0
C      1  0.4780350000000  0.4162420000000  0.5517210000000 1.0
C      1  0.5152940000000  0.5793600000000  0.5542960000000 1.0
C      1  0.5595050000000  0.4364490000000  0.4759360000000 1.0
C      1  0.4486340000000  0.5631110000000  0.4701430000000 1.0
C      1  0.5563430000000  0.5709320000000  0.4724740000000 1.0
C      1  0.4456340000000  0.4308540000000  0.4693040000000 1.0
C      1  0.5321970000000  0.4429930000000  0.4147690000000 1.0
C      1  0.4477370000000  0.5656640000000  0.4113530000000 1.0
C      1  0.5352530000000  0.5620680000000  0.4173480000000 1.0
C      1  0.4712120000000  0.4404560000000  0.4122840000000 1.0
C      1  0.4708740000000  0.5189780000000  0.4038570000000 1.0
C      1  0.5306160000000  0.4860560000000  0.3958760000000 1.0
C      1  0.4703880000000  0.4866380000000  0.3983440000000 1.0
C      1  0.5308320000000  0.5185660000000  0.3990430000000 1.0
C      1  0.4300840000000  0.5256090000000  0.5920590000000 1.0
C      1  0.5636320000000  0.4796450000000  0.5780080000000 1.0
C      1  0.4378410000000  0.4927750000000  0.5856920000000 1.0
C      1  0.5657090000000  0.5141640000000  0.5827110000000 1.0
C      1  0.4863010000000  0.4691750000000  0.5365040000000 1.0
C      1  0.4997770000000  0.5448250000000  0.5320770000000 1.0
C      1  0.5007500000000  0.5028790000000  0.4014730000000 1.0
END
