TITL C-3289329-2751-564 0.000637155912238713 125000 -378.354712439128 0 0 70 (C1) n - 1
REM
REM in /nfs/bkarasulu/CARBON/AIRSS/Generating-Clusters/AIREBO/with-SteepDescent/Higher-Symm/SD-CG/HFTN-CG
REM
REM
REM
REM
REM
REM ./C.cell (b20cbc046b6831c77cfcea5457e17084)
REM
REM compiler GCC version 9.2.1 20190827 (Red Hat 9.2.1-1)
REM options -cpp -mtune=generic -march=x86-64 -g -O0 -fpre-include=/usr/include/finclude/math-vector-fortran.h
REM seed -1376731936 -1417112952 205778630 -1367143126 240745991 1527252873 1396105074 665376960 1653938630 407010617 1590812052 1144973560 -106666550 -661532136 -1209502576 -1959438268 -195253673 1934493187 -1538842075 -1513439365 348194285 -1724908391 -882860135 1189727639 1737207752 -802293592 2082940994 -1407077838 414757221 -1084131242 1956510850 -788922050 -960351831
REM
CELL 1.54180   50.00000   50.00000   50.00000   90.00000   90.00000   90.00000
LATT -1
SFAC C  
C      1  0.5028320000000  0.4638260000000  0.4140500000000 1.0
C      1  0.4587320000000  0.4529680000000  0.4819200000000 1.0
C      1  0.4526880000000  0.4632980000000  0.5620190000000 1.0
C      1  0.5271440000000  0.4483870000000  0.5485710000000 1.0
C      1  0.5600140000000  0.4636540000000  0.4809120000000 1.0
C      1  0.4940670000000  0.5506640000000  0.4425720000000 1.0
C      1  0.4390490000000  0.5416490000000  0.4858300000000 1.0
C      1  0.4684450000000  0.5503500000000  0.5451020000000 1.0
C      1  0.5285800000000  0.5438720000000  0.5366610000000 1.0
C      1  0.5434340000000  0.5429200000000  0.4874060000000 1.0
C      1  0.4860880000000  0.5559380000000  0.5691180000000 1.0
C      1  0.5510010000000  0.5288060000000  0.5472010000000 1.0
C      1  0.5639210000000  0.5425360000000  0.4607190000000 1.0
C      1  0.4690870000000  0.5420090000000  0.4269570000000 1.0
C      1  0.4229670000000  0.5431400000000  0.5100340000000 1.0
C      1  0.4812950000000  0.4553530000000  0.5724880000000 1.0
C      1  0.5471120000000  0.4423660000000  0.5291120000000 1.0
C      1  0.5381300000000  0.4515490000000  0.4616470000000 1.0
C      1  0.4878940000000  0.4488420000000  0.4348100000000 1.0
C      1  0.4554830000000  0.4495030000000  0.5123460000000 1.0
C      1  0.5632850000000  0.5049980000000  0.5314350000000 1.0
C      1  0.5417830000000  0.5177040000000  0.4564500000000 1.0
C      1  0.4584680000000  0.5166330000000  0.4319760000000 1.0
C      1  0.4401300000000  0.5141280000000  0.5146130000000 1.0
C      1  0.4966930000000  0.5283920000000  0.5627350000000 1.0
C      1  0.5722520000000  0.4555200000000  0.5345750000000 1.0
C      1  0.5412990000000  0.4834820000000  0.4517650000000 1.0
C      1  0.4710660000000  0.4705080000000  0.4463690000000 1.0
C      1  0.4439780000000  0.4804100000000  0.5124290000000 1.0
C      1  0.4945120000000  0.4799800000000  0.5604540000000 1.0
C      1  0.4555610000000  0.5243550000000  0.5493910000000 1.0
C      1  0.5466770000000  0.5025370000000  0.5671810000000 1.0
C      1  0.5697000000000  0.5207390000000  0.4848280000000 1.0
C      1  0.5052140000000  0.5250890000000  0.4252310000000 1.0
C      1  0.4365960000000  0.5160030000000  0.4741730000000 1.0
C      1  0.4494710000000  0.4915660000000  0.5573830000000 1.0
C      1  0.5337340000000  0.4732760000000  0.5600590000000 1.0
C      1  0.5630990000000  0.4910370000000  0.4843660000000 1.0
C      1  0.5043230000000  0.4916650000000  0.4187070000000 1.0
C      1  0.4438020000000  0.4821060000000  0.4727130000000 1.0
C      1  0.5146610000000  0.4385380000000  0.4769080000000 1.0
C      1  0.4867800000000  0.4405570000000  0.4671600000000 1.0
C      1  0.4661270000000  0.4437250000000  0.5379220000000 1.0
C      1  0.4985570000000  0.4413040000000  0.5485940000000 1.0
C      1  0.5371750000000  0.4468040000000  0.5010460000000 1.0
C      1  0.4964100000000  0.5608840000000  0.4697730000000 1.0
C      1  0.4693750000000  0.5546060000000  0.4894560000000 1.0
C      1  0.4801640000000  0.5598710000000  0.5200480000000 1.0
C      1  0.5095860000000  0.5611360000000  0.5177800000000 1.0
C      1  0.5184810000000  0.5617640000000  0.4898090000000 1.0
C      1  0.4773340000000  0.4821640000000  0.5060610000000 1.0
C      1  0.5033760000000  0.4785030000000  0.5276330000000 1.0
C      1  0.5249860000000  0.4761810000000  0.5031880000000 1.0
C      1  0.5161690000000  0.4822240000000  0.4746070000000 1.0
C      1  0.4846770000000  0.4819870000000  0.4753580000000 1.0
C      1  0.4732910000000  0.5215270000000  0.5115190000000 1.0
C      1  0.5021930000000  0.5236430000000  0.5295100000000 1.0
C      1  0.5242480000000  0.5216450000000  0.5036960000000 1.0
C      1  0.5127150000000  0.5217710000000  0.4737160000000 1.0
C      1  0.4824420000000  0.5255150000000  0.4812450000000 1.0
C      1  0.4654250000000  0.5064080000000  0.4627810000000 1.0
C      1  0.5062940000000  0.5019420000000  0.4487220000000 1.0
C      1  0.4709120000000  0.4992770000000  0.5347340000000 1.0
C      1  0.5233810000000  0.5003700000000  0.5424060000000 1.0
C      1  0.5454360000000  0.4997510000000  0.5086640000000 1.0
C      1  0.4130610000000  0.4930860000000  0.5174860000000 1.0
C      1  0.5802980000000  0.4824670000000  0.5361010000000 1.0
C      1  0.5574280000000  0.5032400000000  0.4299470000000 1.0
C      1  0.4965910000000  0.5040820000000  0.5771770000000 1.0
C      1  0.4528210000000  0.4864510000000  0.4306440000000 1.0
END
