TITL C-3289332-8317-49 0.00124145907982176 125000 -737.613748266303 0 0 145 (C1) n - 1
REM
REM in /nfs/bkarasulu/CARBON/AIRSS/Generating-Clusters/AIREBO/with-SteepDescent/Higher-Symm/SD-CG/HFTN-CG
REM
REM
REM
REM
REM
REM ./C.cell (b20cbc046b6831c77cfcea5457e17084)
REM
REM compiler GCC version 9.2.1 20190827 (Red Hat 9.2.1-1)
REM options -cpp -mtune=generic -march=x86-64 -g -O0 -fpre-include=/usr/include/finclude/math-vector-fortran.h
REM seed 148567989 -1648207744 -1370422187 -1714774786 531890023 -1518193172 1229368596 1787129728 -1631344018 1157166368 660326469 -285019941 -1957783011 1226803842 741751900 1213085262 -61002093 1405213922 444244137 1620795273 389234288 -422328785 2065978704 1996359761 386362432 382405107 -98490061 129728723 1539049118 401378121 28277411 1534994478 -1259686173
REM
CELL 1.54180   50.00000   50.00000   50.00000   90.00000   90.00000   90.00000
LATT -1
SFAC C  
C      1  0.4999300000000  0.4282450000000  0.5097510000000 1.0
C      1  0.4306920000000  0.4667210000000  0.5135580000000 1.0
C      1  0.4422340000000  0.5325890000000  0.5142490000000 1.0
C      1  0.5020820000000  0.5883700000000  0.5151980000000 1.0
C      1  0.5613190000000  0.5306910000000  0.5081690000000 1.0
C      1  0.5649060000000  0.4654030000000  0.5176850000000 1.0
C      1  0.5111190000000  0.4225280000000  0.4781420000000 1.0
C      1  0.4570240000000  0.4610420000000  0.4697950000000 1.0
C      1  0.4339680000000  0.5201220000000  0.4836980000000 1.0
C      1  0.4974780000000  0.5665610000000  0.4842680000000 1.0
C      1  0.5466020000000  0.5414510000000  0.4794620000000 1.0
C      1  0.5735040000000  0.4692470000000  0.4850140000000 1.0
C      1  0.5481190000000  0.4269990000000  0.4926460000000 1.0
C      1  0.4608290000000  0.4160170000000  0.4798200000000 1.0
C      1  0.4086870000000  0.4898420000000  0.4895410000000 1.0
C      1  0.4481390000000  0.5788650000000  0.4930230000000 1.0
C      1  0.5460900000000  0.5910720000000  0.4948390000000 1.0
C      1  0.5905630000000  0.5046980000000  0.4788690000000 1.0
C      1  0.5496830000000  0.4373950000000  0.5210300000000 1.0
C      1  0.4679970000000  0.4190900000000  0.5069030000000 1.0
C      1  0.4087650000000  0.4886100000000  0.5235940000000 1.0
C      1  0.4449360000000  0.5651770000000  0.5185650000000 1.0
C      1  0.5320120000000  0.5876190000000  0.5195880000000 1.0
C      1  0.5915580000000  0.5151280000000  0.5084770000000 1.0
C      1  0.5183390000000  0.4239730000000  0.4168130000000 1.0
C      1  0.4541950000000  0.4643910000000  0.4116840000000 1.0
C      1  0.4335960000000  0.5399490000000  0.4237690000000 1.0
C      1  0.4855100000000  0.5809290000000  0.4246230000000 1.0
C      1  0.5465660000000  0.5263810000000  0.4095710000000 1.0
C      1  0.5738960000000  0.4615880000000  0.4180760000000 1.0
C      1  0.5116510000000  0.4476650000000  0.5885180000000 1.0
C      1  0.4475720000000  0.4441790000000  0.5885120000000 1.0
C      1  0.4431980000000  0.5254810000000  0.5841010000000 1.0
C      1  0.4820540000000  0.5693900000000  0.5881770000000 1.0
C      1  0.5553190000000  0.5400390000000  0.5803520000000 1.0
C      1  0.5849050000000  0.5026120000000  0.5848210000000 1.0
C      1  0.4408770000000  0.5217990000000  0.5433600000000 1.0
C      1  0.4890650000000  0.5782050000000  0.5406540000000 1.0
C      1  0.5562150000000  0.5296600000000  0.5417690000000 1.0
C      1  0.5665250000000  0.4754990000000  0.5495620000000 1.0
C      1  0.4991510000000  0.4370860000000  0.5425770000000 1.0
C      1  0.4420910000000  0.4565310000000  0.5412900000000 1.0
C      1  0.4337640000000  0.5506080000000  0.4686380000000 1.0
C      1  0.5141040000000  0.5773410000000  0.4588350000000 1.0
C      1  0.5589380000000  0.5203320000000  0.4574680000000 1.0
C      1  0.5667700000000  0.4500380000000  0.4627880000000 1.0
C      1  0.4942310000000  0.4153940000000  0.4545280000000 1.0
C      1  0.4394230000000  0.4749150000000  0.4472380000000 1.0
C      1  0.5102620000000  0.3966910000000  0.5208640000000 1.0
C      1  0.4180460000000  0.4454520000000  0.4966900000000 1.0
C      1  0.4091410000000  0.5399960000000  0.5105810000000 1.0
C      1  0.4906720000000  0.6159140000000  0.5038640000000 1.0
C      1  0.5799000000000  0.5595170000000  0.5123170000000 1.0
C      1  0.5957180000000  0.4514340000000  0.5249630000000 1.0
C      1  0.5199780000000  0.3968140000000  0.4953620000000 1.0
C      1  0.4300640000000  0.4410050000000  0.4750550000000 1.0
C      1  0.4013160000000  0.5291840000000  0.4866290000000 1.0
C      1  0.4887740000000  0.5989960000000  0.4808270000000 1.0
C      1  0.5724820000000  0.5628940000000  0.4846170000000 1.0
C      1  0.6002610000000  0.4604960000000  0.4996700000000 1.0
C      1  0.4318530000000  0.5122450000000  0.4285770000000 1.0
C      1  0.4608230000000  0.5748580000000  0.4429860000000 1.0
C      1  0.5268570000000  0.5469490000000  0.4180130000000 1.0
C      1  0.5851950000000  0.4893260000000  0.4229810000000 1.0
C      1  0.5395210000000  0.4390980000000  0.4356590000000 1.0
C      1  0.4763770000000  0.4499990000000  0.4228420000000 1.0
C      1  0.4339440000000  0.4959270000000  0.5791340000000 1.0
C      1  0.4562030000000  0.5560840000000  0.5755570000000 1.0
C      1  0.5316510000000  0.5570550000000  0.5753920000000 1.0
C      1  0.6036650000000  0.5175360000000  0.5679600000000 1.0
C      1  0.5322430000000  0.4644110000000  0.5795250000000 1.0
C      1  0.4655610000000  0.4247850000000  0.5671460000000 1.0
C      1  0.5531000000000  0.5787620000000  0.4669770000000 1.0
C      1  0.5881920000000  0.4942600000000  0.4511450000000 1.0
C      1  0.5465450000000  0.4158560000000  0.4605630000000 1.0
C      1  0.4433990000000  0.4113410000000  0.4513220000000 1.0
C      1  0.3881240000000  0.4924320000000  0.4630430000000 1.0
C      1  0.4454230000000  0.5920090000000  0.4662460000000 1.0
C      1  0.5336570000000  0.5772070000000  0.5473030000000 1.0
C      1  0.6010100000000  0.5140020000000  0.5411240000000 1.0
C      1  0.5445670000000  0.4231200000000  0.5518950000000 1.0
C      1  0.4611190000000  0.4041180000000  0.5401810000000 1.0
C      1  0.4047610000000  0.4913880000000  0.5600140000000 1.0
C      1  0.4312810000000  0.5860410000000  0.5416980000000 1.0
C      1  0.5563630000000  0.4957610000000  0.4080670000000 1.0
C      1  0.5418430000000  0.4649750000000  0.4133710000000 1.0
C      1  0.5091250000000  0.4558070000000  0.4160440000000 1.0
C      1  0.4515540000000  0.4956340000000  0.4155860000000 1.0
C      1  0.4588030000000  0.5531970000000  0.4169450000000 1.0
C      1  0.4929230000000  0.5504150000000  0.4166740000000 1.0
C      1  0.5579540000000  0.5130680000000  0.5883980000000 1.0
C      1  0.5374580000000  0.4934900000000  0.5844800000000 1.0
C      1  0.4806760000000  0.4494920000000  0.5854220000000 1.0
C      1  0.4583680000000  0.4734950000000  0.5750800000000 1.0
C      1  0.4767600000000  0.5303240000000  0.5815460000000 1.0
C      1  0.5037580000000  0.5485830000000  0.5894410000000 1.0
C      1  0.4870480000000  0.4651700000000  0.4815680000000 1.0
C      1  0.4483120000000  0.4893940000000  0.4864290000000 1.0
C      1  0.4666110000000  0.5255210000000  0.4758580000000 1.0
C      1  0.5146680000000  0.5387700000000  0.4908420000000 1.0
C      1  0.5175360000000  0.5051450000000  0.4862870000000 1.0
C      1  0.5188070000000  0.4737790000000  0.4729760000000 1.0
C      1  0.5068550000000  0.4619070000000  0.5089800000000 1.0
C      1  0.4603240000000  0.4832080000000  0.5165280000000 1.0
C      1  0.4709000000000  0.5143180000000  0.5076790000000 1.0
C      1  0.5019810000000  0.5233080000000  0.5181650000000 1.0
C      1  0.5337500000000  0.5113120000000  0.5127300000000 1.0
C      1  0.5344900000000  0.4797890000000  0.5138170000000 1.0
C      1  0.4683830000000  0.4344080000000  0.4519720000000 1.0
C      1  0.4210150000000  0.5002390000000  0.4593170000000 1.0
C      1  0.4665690000000  0.5588070000000  0.4726740000000 1.0
C      1  0.5361770000000  0.5547910000000  0.4497770000000 1.0
C      1  0.5572850000000  0.4888430000000  0.4642610000000 1.0
C      1  0.5334350000000  0.4462540000000  0.4683520000000 1.0
C      1  0.4662370000000  0.4374220000000  0.5355740000000 1.0
C      1  0.4344100000000  0.4894460000000  0.5459330000000 1.0
C      1  0.4589330000000  0.5703770000000  0.5478350000000 1.0
C      1  0.5092010000000  0.5553990000000  0.5504470000000 1.0
C      1  0.5718140000000  0.5015340000000  0.5332090000000 1.0
C      1  0.5385960000000  0.4562620000000  0.5471260000000 1.0
C      1  0.4955530000000  0.5180890000000  0.5484910000000 1.0
C      1  0.5277050000000  0.5276360000000  0.5486580000000 1.0
C      1  0.5184030000000  0.4973220000000  0.5593870000000 1.0
C      1  0.5078680000000  0.4699480000000  0.5420030000000 1.0
C      1  0.4750480000000  0.4786990000000  0.5458510000000 1.0
C      1  0.4673190000000  0.5095430000000  0.5565220000000 1.0
C      1  0.4951400000000  0.5283080000000  0.4380560000000 1.0
C      1  0.5198570000000  0.5249590000000  0.4504900000000 1.0
C      1  0.5273060000000  0.4952710000000  0.4495440000000 1.0
C      1  0.5012540000000  0.4776570000000  0.4373620000000 1.0
C      1  0.4712900000000  0.4852370000000  0.4410560000000 1.0
C      1  0.4748880000000  0.5142020000000  0.4503890000000 1.0
C      1  0.5083030000000  0.4255210000000  0.5694790000000 1.0
C      1  0.4288130000000  0.4446000000000  0.5644120000000 1.0
C      1  0.4231540000000  0.5384210000000  0.5621280000000 1.0
C      1  0.4883710000000  0.5904640000000  0.5710380000000 1.0
C      1  0.5759370000000  0.5476720000000  0.5609600000000 1.0
C      1  0.5824550000000  0.4755870000000  0.5755750000000 1.0
C      1  0.5035880000000  0.4061620000000  0.4308570000000 1.0
C      1  0.4268170000000  0.4554120000000  0.4229610000000 1.0
C      1  0.4211840000000  0.5541410000000  0.4450170000000 1.0
C      1  0.5049920000000  0.5930140000000  0.4390230000000 1.0
C      1  0.5676510000000  0.5258440000000  0.4318740000000 1.0
C      1  0.5789550000000  0.4443620000000  0.4396800000000 1.0
C      1  0.4901660000000  0.4939310000000  0.4917890000000 1.0
END
