TITL C-3289332-8317-417 -0.00245555596880657 125000 -531.833950292366 0 0 102 (C1) n - 1
REM
REM in /nfs/bkarasulu/CARBON/AIRSS/Generating-Clusters/AIREBO/with-SteepDescent/Higher-Symm/SD-CG/HFTN-CG
REM
REM
REM
REM
REM
REM ./C.cell (b20cbc046b6831c77cfcea5457e17084)
REM
REM compiler GCC version 9.2.1 20190827 (Red Hat 9.2.1-1)
REM options -cpp -mtune=generic -march=x86-64 -g -O0 -fpre-include=/usr/include/finclude/math-vector-fortran.h
REM seed -196492381 1088303485 -1255529743 1799917752 -431762843 -129978481 -1756244733 751084132 1446164433 -910781351 -1238994036 -1763491248 974073162 -331438799 -2002733876 588774804 -79645107 909125506 -1773205723 -1712078048 1691463626 -1156589479 -9582006 -351705094 235546022 917846826 1396849827 -267917974 -1738926427 -907578397 1825212 -693265607 -1619865630
REM
CELL 1.54180   50.00000   50.00000   50.00000   90.00000   90.00000   90.00000
LATT -1
SFAC C  
C      1  0.5578440000000  0.4696620000000  0.4853050000000 1.0
C      1  0.4389830000000  0.5214170000000  0.4843920000000 1.0
C      1  0.5664700000000  0.4793840000000  0.5142270000000 1.0
C      1  0.4399590000000  0.5222090000000  0.5185460000000 1.0
C      1  0.5616010000000  0.5267140000000  0.4856010000000 1.0
C      1  0.4420240000000  0.4771500000000  0.4837460000000 1.0
C      1  0.5565670000000  0.5270030000000  0.5162940000000 1.0
C      1  0.4338610000000  0.4755460000000  0.5138020000000 1.0
C      1  0.4440960000000  0.5560230000000  0.5382870000000 1.0
C      1  0.5668200000000  0.4531190000000  0.5357090000000 1.0
C      1  0.4350950000000  0.5547420000000  0.4628990000000 1.0
C      1  0.5680910000000  0.4445220000000  0.4661330000000 1.0
C      1  0.4345700000000  0.4426750000000  0.5363070000000 1.0
C      1  0.5725140000000  0.5510100000000  0.5414290000000 1.0
C      1  0.4343180000000  0.4406120000000  0.4647110000000 1.0
C      1  0.5677740000000  0.5586030000000  0.4629080000000 1.0
C      1  0.4416790000000  0.5243360000000  0.5499690000000 1.0
C      1  0.5721560000000  0.4858990000000  0.5471180000000 1.0
C      1  0.4348990000000  0.5237070000000  0.4507040000000 1.0
C      1  0.5739720000000  0.4770140000000  0.4573030000000 1.0
C      1  0.4247810000000  0.4728560000000  0.5449280000000 1.0
C      1  0.5800480000000  0.5175290000000  0.5364750000000 1.0
C      1  0.4261340000000  0.4704400000000  0.4563930000000 1.0
C      1  0.5656550000000  0.5276730000000  0.4533580000000 1.0
C      1  0.5208130000000  0.4514700000000  0.4441440000000 1.0
C      1  0.4936230000000  0.5476080000000  0.4328910000000 1.0
C      1  0.5121300000000  0.4512850000000  0.5573880000000 1.0
C      1  0.4868800000000  0.5481800000000  0.5480780000000 1.0
C      1  0.5177800000000  0.5507060000000  0.4449130000000 1.0
C      1  0.4924640000000  0.4498310000000  0.4420630000000 1.0
C      1  0.5153210000000  0.5521220000000  0.5548150000000 1.0
C      1  0.4829760000000  0.4516800000000  0.5551140000000 1.0
C      1  0.4459060000000  0.4809160000000  0.5931490000000 1.0
C      1  0.5492580000000  0.5160760000000  0.5775810000000 1.0
C      1  0.4434600000000  0.4818640000000  0.4080050000000 1.0
C      1  0.5329700000000  0.5135960000000  0.4227110000000 1.0
C      1  0.4543500000000  0.5130620000000  0.5859800000000 1.0
C      1  0.5418700000000  0.4715510000000  0.5843870000000 1.0
C      1  0.4542260000000  0.5166130000000  0.4241350000000 1.0
C      1  0.5352750000000  0.4747400000000  0.4316340000000 1.0
C      1  0.5972340000000  0.4847390000000  0.5040420000000 1.0
C      1  0.4104960000000  0.5136240000000  0.5111030000000 1.0
C      1  0.5973190000000  0.4902270000000  0.4729780000000 1.0
C      1  0.4055010000000  0.5169380000000  0.4804940000000 1.0
C      1  0.6025460000000  0.5135600000000  0.5149450000000 1.0
C      1  0.4031430000000  0.4852130000000  0.5204830000000 1.0
C      1  0.5922160000000  0.5188990000000  0.4849000000000 1.0
C      1  0.4090760000000  0.4848090000000  0.4838840000000 1.0
C      1  0.5488930000000  0.4260470000000  0.4872710000000 1.0
C      1  0.4515340000000  0.5667560000000  0.4811520000000 1.0
C      1  0.5490910000000  0.4289350000000  0.5194880000000 1.0
C      1  0.4608910000000  0.5685420000000  0.5115000000000 1.0
C      1  0.5462640000000  0.5680100000000  0.4875090000000 1.0
C      1  0.4562480000000  0.4223930000000  0.4832590000000 1.0
C      1  0.5486830000000  0.5592730000000  0.5185530000000 1.0
C      1  0.4556960000000  0.4262890000000  0.5152890000000 1.0
C      1  0.5292970000000  0.5139890000000  0.5212080000000 1.0
C      1  0.4669010000000  0.4831160000000  0.5144080000000 1.0
C      1  0.5277860000000  0.5260820000000  0.4891720000000 1.0
C      1  0.4725130000000  0.4710540000000  0.4828430000000 1.0
C      1  0.5327590000000  0.4818320000000  0.5180370000000 1.0
C      1  0.4709270000000  0.5164830000000  0.5079030000000 1.0
C      1  0.5264270000000  0.4764810000000  0.4844750000000 1.0
C      1  0.4698330000000  0.5315480000000  0.4774420000000 1.0
C      1  0.5034550000000  0.5903290000000  0.5225410000000 1.0
C      1  0.4890570000000  0.4208530000000  0.5196680000000 1.0
C      1  0.5256600000000  0.5926230000000  0.4814760000000 1.0
C      1  0.4892360000000  0.4142440000000  0.4802320000000 1.0
C      1  0.5161280000000  0.4203310000000  0.5218240000000 1.0
C      1  0.4782660000000  0.5938670000000  0.5178870000000 1.0
C      1  0.5166760000000  0.4163040000000  0.4820740000000 1.0
C      1  0.5007270000000  0.5898080000000  0.4788620000000 1.0
C      1  0.4848760000000  0.5125160000000  0.4099810000000 1.0
C      1  0.5057470000000  0.4853930000000  0.4298790000000 1.0
C      1  0.4867400000000  0.5109180000000  0.5961320000000 1.0
C      1  0.5100550000000  0.4816010000000  0.5831140000000 1.0
C      1  0.4737710000000  0.4821480000000  0.4187590000000 1.0
C      1  0.5112120000000  0.5180120000000  0.4074170000000 1.0
C      1  0.4776250000000  0.4810840000000  0.5816490000000 1.0
C      1  0.5165940000000  0.5140530000000  0.5858900000000 1.0
C      1  0.5234820000000  0.5224360000000  0.5536600000000 1.0
C      1  0.4726140000000  0.4826760000000  0.5480550000000 1.0
C      1  0.5330800000000  0.5222810000000  0.4555880000000 1.0
C      1  0.4727010000000  0.4764250000000  0.4498320000000 1.0
C      1  0.5210640000000  0.4827700000000  0.5509570000000 1.0
C      1  0.4728290000000  0.5258830000000  0.5617990000000 1.0
C      1  0.5165000000000  0.4944660000000  0.4609130000000 1.0
C      1  0.4750280000000  0.5270630000000  0.4458560000000 1.0
C      1  0.5178330000000  0.5538510000000  0.4759370000000 1.0
C      1  0.4771700000000  0.4423160000000  0.4692180000000 1.0
C      1  0.5158870000000  0.5635310000000  0.5265520000000 1.0
C      1  0.4744460000000  0.4512880000000  0.5237050000000 1.0
C      1  0.5283720000000  0.4462800000000  0.4722700000000 1.0
C      1  0.4849360000000  0.5609260000000  0.4786350000000 1.0
C      1  0.5275110000000  0.4502490000000  0.5291460000000 1.0
C      1  0.4834550000000  0.5465000000000  0.5188270000000 1.0
C      1  0.4344320000000  0.4942610000000  0.5641400000000 1.0
C      1  0.5595740000000  0.4899640000000  0.5738700000000 1.0
C      1  0.4321710000000  0.4930530000000  0.4362230000000 1.0
C      1  0.5592390000000  0.4979780000000  0.4376440000000 1.0
C      1  0.4865810000000  0.5015450000000  0.4607640000000 1.0
C      1  0.4947840000000  0.5041910000000  0.5539350000000 1.0
END
