TITL C-3289328-6581-629 0.000467447756784184 125000 -1042.62276422573 0 0 187 (C1) n - 1
REM
REM in /nfs/bkarasulu/CARBON/AIRSS/Generating-Clusters/AIREBO/with-SteepDescent/Higher-Symm/SD-CG/HFTN-CG
REM
REM
REM
REM
REM
REM ./C.cell (b20cbc046b6831c77cfcea5457e17084)
REM
REM compiler GCC version 9.2.1 20190827 (Red Hat 9.2.1-1)
REM options -cpp -mtune=generic -march=x86-64 -g -O0 -fpre-include=/usr/include/finclude/math-vector-fortran.h
REM seed -37366031 2141375955 1226540400 407454414 -1535796858 -569291372 227710594 2070742218 241897333 -373596128 2010638404 -443603323 74180268 1050300476 -1469802102 -1076887579 -527673025 1624650781 -827986690 1298638127 -1102136699 1592646171 42687082 -57789010 1109046605 -999427813 -1715056444 -2102934005 896936591 -39331080 -1088370071 484172313 608727113
REM
CELL 1.54180   50.00000   50.00000   50.00000   90.00000   90.00000   90.00000
LATT -1
SFAC C  
C      1  0.5516600000000  0.5626720000000  0.5659800000000 1.0
C      1  0.5493370000000  0.4268500000000  0.4224600000000 1.0
C      1  0.4613080000000  0.4255540000000  0.5648060000000 1.0
C      1  0.4538990000000  0.5746310000000  0.4268580000000 1.0
C      1  0.4343810000000  0.4240770000000  0.5102340000000 1.0
C      1  0.4374090000000  0.5858290000000  0.4931280000000 1.0
C      1  0.5750370000000  0.5820050000000  0.5121610000000 1.0
C      1  0.5667500000000  0.4124820000000  0.4873100000000 1.0
C      1  0.4684010000000  0.6016880000000  0.5231940000000 1.0
C      1  0.4885690000000  0.3756840000000  0.5233930000000 1.0
C      1  0.5258970000000  0.3892160000000  0.5193740000000 1.0
C      1  0.5250130000000  0.6018630000000  0.4799960000000 1.0
C      1  0.4446740000000  0.4923160000000  0.5876590000000 1.0
C      1  0.4418750000000  0.5222890000000  0.3941020000000 1.0
C      1  0.5609320000000  0.5214650000000  0.6016750000000 1.0
C      1  0.5602230000000  0.4778360000000  0.3957750000000 1.0
C      1  0.4784090000000  0.4808520000000  0.3909820000000 1.0
C      1  0.4787030000000  0.5275470000000  0.6031510000000 1.0
C      1  0.5260320000000  0.5179710000000  0.3926970000000 1.0
C      1  0.5323210000000  0.4808410000000  0.5986440000000 1.0
C      1  0.4943410000000  0.5435650000000  0.6184790000000 1.0
C      1  0.4945080000000  0.4565320000000  0.3799960000000 1.0
C      1  0.5135310000000  0.4604640000000  0.6142350000000 1.0
C      1  0.5109850000000  0.5389390000000  0.3764630000000 1.0
C      1  0.5357780000000  0.4886360000000  0.3993370000000 1.0
C      1  0.5357000000000  0.5123700000000  0.5994310000000 1.0
C      1  0.4653710000000  0.5098910000000  0.4000320000000 1.0
C      1  0.4679440000000  0.4784390000000  0.5944940000000 1.0
C      1  0.4754770000000  0.5231440000000  0.5484980000000 1.0
C      1  0.4698720000000  0.4790460000000  0.4419030000000 1.0
C      1  0.5300150000000  0.4828820000000  0.5507630000000 1.0
C      1  0.5328200000000  0.5186760000000  0.4426070000000 1.0
C      1  0.5869560000000  0.5546960000000  0.5191970000000 1.0
C      1  0.5866940000000  0.4401800000000  0.4906890000000 1.0
C      1  0.4137080000000  0.4475110000000  0.5143370000000 1.0
C      1  0.4099720000000  0.5688100000000  0.4860490000000 1.0
C      1  0.5174770000000  0.5483470000000  0.4951360000000 1.0
C      1  0.5160540000000  0.4367000000000  0.4940290000000 1.0
C      1  0.4770000000000  0.4360030000000  0.5018840000000 1.0
C      1  0.4843120000000  0.5555680000000  0.4931330000000 1.0
C      1  0.6056920000000  0.5034400000000  0.4852780000000 1.0
C      1  0.6105890000000  0.4968680000000  0.5187160000000 1.0
C      1  0.3927250000000  0.4979540000000  0.4571980000000 1.0
C      1  0.3920180000000  0.5068330000000  0.5190380000000 1.0
C      1  0.4695520000000  0.5692480000000  0.4021710000000 1.0
C      1  0.4728820000000  0.4317420000000  0.5962050000000 1.0
C      1  0.5380640000000  0.4318850000000  0.3962890000000 1.0
C      1  0.5395010000000  0.5713040000000  0.5961200000000 1.0
C      1  0.5586850000000  0.5711990000000  0.4400550000000 1.0
C      1  0.5780960000000  0.4333160000000  0.5611990000000 1.0
C      1  0.4375960000000  0.4343900000000  0.4406140000000 1.0
C      1  0.4291920000000  0.5695000000000  0.5610200000000 1.0
C      1  0.4924470000000  0.5526560000000  0.3896000000000 1.0
C      1  0.4976400000000  0.4441220000000  0.5990570000000 1.0
C      1  0.5123980000000  0.4445730000000  0.3968680000000 1.0
C      1  0.5156770000000  0.5624570000000  0.6060470000000 1.0
C      1  0.5831820000000  0.4666830000000  0.5085410000000 1.0
C      1  0.5815670000000  0.5324410000000  0.4981020000000 1.0
C      1  0.4049620000000  0.5525310000000  0.5080190000000 1.0
C      1  0.4135430000000  0.4671420000000  0.4889260000000 1.0
C      1  0.5324500000000  0.5894770000000  0.4533470000000 1.0
C      1  0.5413560000000  0.4044170000000  0.5387160000000 1.0
C      1  0.4621420000000  0.4139310000000  0.4522680000000 1.0
C      1  0.4565190000000  0.5883150000000  0.5481160000000 1.0
C      1  0.6046810000000  0.5159460000000  0.5394870000000 1.0
C      1  0.5939690000000  0.4811260000000  0.4624060000000 1.0
C      1  0.3952390000000  0.4831280000000  0.5380120000000 1.0
C      1  0.4048600000000  0.5251870000000  0.4548670000000 1.0
C      1  0.4189000000000  0.4968520000000  0.5574090000000 1.0
C      1  0.4260420000000  0.5066610000000  0.4369830000000 1.0
C      1  0.5834920000000  0.5028510000000  0.5608420000000 1.0
C      1  0.5736940000000  0.4948610000000  0.4407760000000 1.0
C      1  0.4601040000000  0.5163400000000  0.4513160000000 1.0
C      1  0.4770610000000  0.4766630000000  0.5444740000000 1.0
C      1  0.5380320000000  0.4795900000000  0.4488370000000 1.0
C      1  0.5154170000000  0.5288680000000  0.5504630000000 1.0
C      1  0.5799250000000  0.5816530000000  0.4609530000000 1.0
C      1  0.5769570000000  0.4109070000000  0.5445490000000 1.0
C      1  0.4234760000000  0.4095160000000  0.4589960000000 1.0
C      1  0.4175750000000  0.5952390000000  0.5456010000000 1.0
C      1  0.3951340000000  0.5332150000000  0.5285420000000 1.0
C      1  0.4028840000000  0.4710100000000  0.4609560000000 1.0
C      1  0.6037630000000  0.4682130000000  0.5315470000000 1.0
C      1  0.5961200000000  0.5317650000000  0.4690330000000 1.0
C      1  0.4617640000000  0.4839000000000  0.4745770000000 1.0
C      1  0.4529090000000  0.5196550000000  0.5232970000000 1.0
C      1  0.5261260000000  0.5081050000000  0.4716880000000 1.0
C      1  0.5405350000000  0.5020410000000  0.5349500000000 1.0
C      1  0.5627460000000  0.4199620000000  0.5174260000000 1.0
C      1  0.5746990000000  0.5711820000000  0.4850310000000 1.0
C      1  0.4354890000000  0.5791240000000  0.5230250000000 1.0
C      1  0.4444910000000  0.4256510000000  0.4789140000000 1.0
C      1  0.4922170000000  0.6025150000000  0.5585970000000 1.0
C      1  0.5248470000000  0.4159030000000  0.4410760000000 1.0
C      1  0.4906340000000  0.4087170000000  0.5689370000000 1.0
C      1  0.4737840000000  0.5880300000000  0.4441790000000 1.0
C      1  0.4721270000000  0.4921940000000  0.5174980000000 1.0
C      1  0.4771650000000  0.5140200000000  0.4788010000000 1.0
C      1  0.5175500000000  0.5161630000000  0.5189910000000 1.0
C      1  0.5244960000000  0.4771360000000  0.4799340000000 1.0
C      1  0.4923130000000  0.4217160000000  0.5398700000000 1.0
C      1  0.5151400000000  0.5649910000000  0.4682440000000 1.0
C      1  0.5032460000000  0.5816200000000  0.5392490000000 1.0
C      1  0.4840440000000  0.4268400000000  0.4730870000000 1.0
C      1  0.4592310000000  0.4608440000000  0.5146230000000 1.0
C      1  0.4587080000000  0.5332270000000  0.4944460000000 1.0
C      1  0.5405110000000  0.5406790000000  0.5136000000000 1.0
C      1  0.5421160000000  0.4536030000000  0.4891240000000 1.0
C      1  0.5702790000000  0.5232000000000  0.4290360000000 1.0
C      1  0.5818660000000  0.4763700000000  0.5735730000000 1.0
C      1  0.4285930000000  0.4795850000000  0.4235090000000 1.0
C      1  0.4213430000000  0.5212660000000  0.5728600000000 1.0
C      1  0.5093070000000  0.5142320000000  0.4217080000000 1.0
C      1  0.5135700000000  0.4904570000000  0.5744820000000 1.0
C      1  0.4918140000000  0.4857510000000  0.4208690000000 1.0
C      1  0.4877490000000  0.5126500000000  0.5739550000000 1.0
C      1  0.4329890000000  0.4401040000000  0.5758230000000 1.0
C      1  0.4310830000000  0.5571660000000  0.4307610000000 1.0
C      1  0.5793010000000  0.5483940000000  0.5660820000000 1.0
C      1  0.5712350000000  0.4441460000000  0.4303270000000 1.0
C      1  0.4326610000000  0.5466100000000  0.5283160000000 1.0
C      1  0.4434270000000  0.4577870000000  0.4863630000000 1.0
C      1  0.5570550000000  0.4503990000000  0.5154810000000 1.0
C      1  0.5559560000000  0.5452320000000  0.4847720000000 1.0
C      1  0.5867770000000  0.4494300000000  0.4591860000000 1.0
C      1  0.5956310000000  0.5441310000000  0.5428810000000 1.0
C      1  0.4190130000000  0.5532010000000  0.4593660000000 1.0
C      1  0.4196340000000  0.4597560000000  0.5437330000000 1.0
C      1  0.5361940000000  0.4099790000000  0.4722170000000 1.0
C      1  0.5466610000000  0.5888630000000  0.5217940000000 1.0
C      1  0.4654900000000  0.5849610000000  0.4738010000000 1.0
C      1  0.4528810000000  0.3984620000000  0.5068860000000 1.0
C      1  0.4506040000000  0.5257620000000  0.5856120000000 1.0
C      1  0.4559180000000  0.4709490000000  0.4120230000000 1.0
C      1  0.5568910000000  0.4661750000000  0.5849520000000 1.0
C      1  0.5437870000000  0.5328230000000  0.4141200000000 1.0
C      1  0.5046610000000  0.5231520000000  0.4818820000000 1.0
C      1  0.5141470000000  0.4603550000000  0.5167480000000 1.0
C      1  0.4871170000000  0.4644230000000  0.4861900000000 1.0
C      1  0.4894450000000  0.5352800000000  0.5199420000000 1.0
C      1  0.4346410000000  0.5033160000000  0.4697210000000 1.0
C      1  0.4299810000000  0.4989380000000  0.5271030000000 1.0
C      1  0.5579820000000  0.4962340000000  0.4708990000000 1.0
C      1  0.5674010000000  0.5041750000000  0.5317640000000 1.0
C      1  0.5487140000000  0.5612500000000  0.5335730000000 1.0
C      1  0.5559410000000  0.4370500000000  0.4664360000000 1.0
C      1  0.4457110000000  0.4400140000000  0.5379860000000 1.0
C      1  0.4469150000000  0.5569180000000  0.4779530000000 1.0
C      1  0.4288400000000  0.5320540000000  0.4173570000000 1.0
C      1  0.4233080000000  0.4710520000000  0.5755960000000 1.0
C      1  0.5731140000000  0.4712250000000  0.4197210000000 1.0
C      1  0.5783830000000  0.5249230000000  0.5805550000000 1.0
C      1  0.4125240000000  0.5430770000000  0.5551530000000 1.0
C      1  0.4186620000000  0.4594790000000  0.4406300000000 1.0
C      1  0.5941790000000  0.4569800000000  0.5566700000000 1.0
C      1  0.5782160000000  0.5441840000000  0.4472130000000 1.0
C      1  0.4951570000000  0.5560860000000  0.5806740000000 1.0
C      1  0.5064000000000  0.4488230000000  0.4284300000000 1.0
C      1  0.5073360000000  0.4447260000000  0.5689280000000 1.0
C      1  0.4887380000000  0.5532450000000  0.4252600000000 1.0
C      1  0.5055120000000  0.5816530000000  0.4335130000000 1.0
C      1  0.5239580000000  0.4169560000000  0.5638600000000 1.0
C      1  0.4908430000000  0.4200390000000  0.4343660000000 1.0
C      1  0.4753660000000  0.5813010000000  0.5755620000000 1.0
C      1  0.4770560000000  0.5222160000000  0.4264420000000 1.0
C      1  0.4884240000000  0.4727550000000  0.5729310000000 1.0
C      1  0.5220690000000  0.4765180000000  0.4238430000000 1.0
C      1  0.5155700000000  0.5290500000000  0.5844670000000 1.0
C      1  0.5471160000000  0.4417620000000  0.5662650000000 1.0
C      1  0.5289870000000  0.5569310000000  0.4315940000000 1.0
C      1  0.4576110000000  0.5535170000000  0.5672490000000 1.0
C      1  0.4669990000000  0.4426740000000  0.4255780000000 1.0
C      1  0.5166790000000  0.5910660000000  0.5094470000000 1.0
C      1  0.5144190000000  0.4045480000000  0.4963950000000 1.0
C      1  0.4850880000000  0.4051190000000  0.5135830000000 1.0
C      1  0.4835090000000  0.5882730000000  0.5024980000000 1.0
C      1  0.5185740000000  0.5595150000000  0.5587410000000 1.0
C      1  0.5127640000000  0.4402000000000  0.4607140000000 1.0
C      1  0.4959520000000  0.4523000000000  0.5395210000000 1.0
C      1  0.4865480000000  0.5539080000000  0.4591920000000 1.0
C      1  0.4750800000000  0.4515130000000  0.4560000000000 1.0
C      1  0.4818210000000  0.5560480000000  0.5434560000000 1.0
C      1  0.5388450000000  0.5444530000000  0.4616710000000 1.0
C      1  0.5377630000000  0.4557930000000  0.5402170000000 1.0
C      1  0.5754160000000  0.4986780000000  0.5000070000000 1.0
C      1  0.4155840000000  0.4975500000000  0.4973570000000 1.0
C      1  0.5028290000000  0.4893970000000  0.5031220000000 1.0
END
