TITL C-3289320-4661-113 0.00105500517424887 125000 -466.50742469839 0 0 86 (C1) n - 1
REM
REM in /nfs/bkarasulu/CARBON/AIRSS/Generating-Clusters/AIREBO/with-SteepDescent/Higher-Symm/SD-CG/HFTN-CG
REM
REM
REM
REM
REM
REM ./C.cell (b20cbc046b6831c77cfcea5457e17084)
REM
REM compiler GCC version 9.2.1 20190827 (Red Hat 9.2.1-1)
REM options -cpp -mtune=generic -march=x86-64 -g -O0 -fpre-include=/usr/include/finclude/math-vector-fortran.h
REM seed -565913497 2095874263 -794903520 -830142305 1267239131 -282631758 343821514 -2012025 -1553206315 2068107272 -1514815153 -1574705165 38276499 -77007814 -111434573 1111006790 145651222 974525247 -1450482473 -1502168067 1350003860 -759227576 1783633461 1243047870 -1091348024 665485116 1911240603 -1549389526 238481000 -1412948552 -1059624936 251259085 1235892189
REM
CELL 1.54180   50.00000   50.00000   50.00000   90.00000   90.00000   90.00000
LATT -1
SFAC C  
C      1  0.5387610000000  0.4339060000000  0.4528340000000 1.0
C      1  0.5770880000000  0.4933480000000  0.4538160000000 1.0
C      1  0.5414580000000  0.5655140000000  0.4631570000000 1.0
C      1  0.4718180000000  0.5586980000000  0.4485250000000 1.0
C      1  0.4322970000000  0.5272400000000  0.4610340000000 1.0
C      1  0.4448180000000  0.4650510000000  0.4632030000000 1.0
C      1  0.4823400000000  0.4281280000000  0.4582630000000 1.0
C      1  0.5069890000000  0.5676260000000  0.5605710000000 1.0
C      1  0.4592150000000  0.5534630000000  0.5509530000000 1.0
C      1  0.4383710000000  0.5033410000000  0.5508890000000 1.0
C      1  0.4564810000000  0.4602770000000  0.5418770000000 1.0
C      1  0.5131950000000  0.4376600000000  0.5399770000000 1.0
C      1  0.5487820000000  0.4704290000000  0.5504990000000 1.0
C      1  0.5544010000000  0.5285000000000  0.5460580000000 1.0
C      1  0.4297640000000  0.4517780000000  0.4918530000000 1.0
C      1  0.4940610000000  0.4131490000000  0.4929080000000 1.0
C      1  0.5740010000000  0.4439930000000  0.4878790000000 1.0
C      1  0.5802680000000  0.5086570000000  0.4967180000000 1.0
C      1  0.5358090000000  0.5692820000000  0.4964740000000 1.0
C      1  0.4617850000000  0.5797660000000  0.4901570000000 1.0
C      1  0.4207760000000  0.5209520000000  0.5050730000000 1.0
C      1  0.4696530000000  0.5019280000000  0.5624220000000 1.0
C      1  0.4801390000000  0.4779120000000  0.5460290000000 1.0
C      1  0.5097120000000  0.4714170000000  0.5422380000000 1.0
C      1  0.5288750000000  0.4978660000000  0.5470450000000 1.0
C      1  0.5241780000000  0.5263480000000  0.5326940000000 1.0
C      1  0.5001830000000  0.5379730000000  0.5453880000000 1.0
C      1  0.4701170000000  0.5251450000000  0.5404250000000 1.0
C      1  0.4806090000000  0.4381970000000  0.5497520000000 1.0
C      1  0.5414100000000  0.4482900000000  0.5349000000000 1.0
C      1  0.5683740000000  0.4980980000000  0.5521210000000 1.0
C      1  0.5334750000000  0.5476370000000  0.5652360000000 1.0
C      1  0.4777910000000  0.5732780000000  0.5440830000000 1.0
C      1  0.4411230000000  0.5297570000000  0.5673380000000 1.0
C      1  0.4365420000000  0.4792460000000  0.5351700000000 1.0
C      1  0.5649610000000  0.5178220000000  0.4705170000000 1.0
C      1  0.5117920000000  0.5788530000000  0.4763860000000 1.0
C      1  0.4533340000000  0.5511520000000  0.4753830000000 1.0
C      1  0.4171360000000  0.5112850000000  0.4792410000000 1.0
C      1  0.4598920000000  0.4402980000000  0.4810280000000 1.0
C      1  0.5133870000000  0.4270630000000  0.4720980000000 1.0
C      1  0.5762860000000  0.4675050000000  0.4718380000000 1.0
C      1  0.4864830000000  0.4548910000000  0.5780310000000 1.0
C      1  0.5144200000000  0.4620990000000  0.5746080000000 1.0
C      1  0.5443550000000  0.5034700000000  0.5755780000000 1.0
C      1  0.5398190000000  0.5282520000000  0.5855960000000 1.0
C      1  0.4882890000000  0.5437940000000  0.5765480000000 1.0
C      1  0.4648690000000  0.5353400000000  0.5860870000000 1.0
C      1  0.4702630000000  0.4765510000000  0.5846600000000 1.0
C      1  0.5263940000000  0.5236400000000  0.4249370000000 1.0
C      1  0.4990330000000  0.5346230000000  0.4303840000000 1.0
C      1  0.4780610000000  0.5169500000000  0.4317670000000 1.0
C      1  0.4746860000000  0.4903980000000  0.4187840000000 1.0
C      1  0.4944720000000  0.4705000000000  0.4279190000000 1.0
C      1  0.5212240000000  0.4745530000000  0.4228710000000 1.0
C      1  0.5370280000000  0.4999180000000  0.4160220000000 1.0
C      1  0.4648600000000  0.4842180000000  0.4507450000000 1.0
C      1  0.4876840000000  0.4615300000000  0.4617400000000 1.0
C      1  0.5390450000000  0.4623100000000  0.4460260000000 1.0
C      1  0.5581560000000  0.4852770000000  0.4334380000000 1.0
C      1  0.5303480000000  0.5343460000000  0.4551930000000 1.0
C      1  0.5038630000000  0.5557620000000  0.4554380000000 1.0
C      1  0.4615380000000  0.5162470000000  0.4578140000000 1.0
C      1  0.4180440000000  0.4805300000000  0.4773400000000 1.0
C      1  0.4607540000000  0.4115320000000  0.4991400000000 1.0
C      1  0.5446040000000  0.4273160000000  0.4849100000000 1.0
C      1  0.5939040000000  0.4861200000000  0.4892630000000 1.0
C      1  0.5550160000000  0.5435340000000  0.4853320000000 1.0
C      1  0.4901910000000  0.5931300000000  0.4895910000000 1.0
C      1  0.4363490000000  0.5477470000000  0.5041340000000 1.0
C      1  0.4651680000000  0.4973740000000  0.4948530000000 1.0
C      1  0.4847320000000  0.4584690000000  0.4954840000000 1.0
C      1  0.5108250000000  0.4740880000000  0.5096970000000 1.0
C      1  0.5410420000000  0.4860610000000  0.5013820000000 1.0
C      1  0.5341250000000  0.5101050000000  0.4787520000000 1.0
C      1  0.5063240000000  0.5267660000000  0.4869490000000 1.0
C      1  0.4760860000000  0.5275510000000  0.4844040000000 1.0
C      1  0.4783330000000  0.5814440000000  0.5180050000000 1.0
C      1  0.4529150000000  0.5204420000000  0.5161670000000 1.0
C      1  0.4376140000000  0.4820920000000  0.5051020000000 1.0
C      1  0.4806920000000  0.4328630000000  0.5171700000000 1.0
C      1  0.5477940000000  0.4531290000000  0.5064870000000 1.0
C      1  0.5604760000000  0.5065770000000  0.5204250000000 1.0
C      1  0.5280290000000  0.5384380000000  0.5060170000000 1.0
C      1  0.5169060000000  0.4774410000000  0.4641810000000 1.0
C      1  0.4982120000000  0.4946210000000  0.4868210000000 1.0
END
