TITL C-3289334-2237-487 0.000887024827988973 125000 -746.243658032396 0 0 141 (C1) n - 1
REM
REM in /nfs/bkarasulu/CARBON/AIRSS/Generating-Clusters/AIREBO/with-SteepDescent/Higher-Symm/SD-CG/HFTN-CG
REM
REM
REM
REM
REM
REM ./C.cell (b20cbc046b6831c77cfcea5457e17084)
REM
REM compiler GCC version 9.2.1 20190827 (Red Hat 9.2.1-1)
REM options -cpp -mtune=generic -march=x86-64 -g -O0 -fpre-include=/usr/include/finclude/math-vector-fortran.h
REM seed -1485667829 -1884413953 -1700173174 422402296 16353329 -939179717 -762936455 -1493360449 -467848617 -923314407 -1524902057 1395142579 -1576003324 -943310962 88946061 -1088685760 1038084394 1295353181 318311812 456875204 -1737993663 -882169140 -675688192 885676693 -1755604366 2134349641 -1815394010 1961244378 -1046209433 2125363042 766187543 -1022304777 -789085907
REM
CELL 1.54180   50.00000   50.00000   50.00000   90.00000   90.00000   90.00000
LATT -1
SFAC C  
C      1  0.5548150000000  0.4835900000000  0.4623400000000 1.0
C      1  0.4163730000000  0.5156730000000  0.5374420000000 1.0
C      1  0.5616460000000  0.4447410000000  0.4256330000000 1.0
C      1  0.5039360000000  0.5100010000000  0.3998150000000 1.0
C      1  0.5201930000000  0.5384910000000  0.4371860000000 1.0
C      1  0.4742990000000  0.4967310000000  0.4550800000000 1.0
C      1  0.5062770000000  0.4886440000000  0.4604890000000 1.0
C      1  0.5679940000000  0.5523140000000  0.4962230000000 1.0
C      1  0.4233120000000  0.5337460000000  0.4598520000000 1.0
C      1  0.5117260000000  0.4355790000000  0.5334250000000 1.0
C      1  0.4957000000000  0.4451310000000  0.4857640000000 1.0
C      1  0.4290280000000  0.4400970000000  0.4697550000000 1.0
C      1  0.5287540000000  0.4260400000000  0.4554470000000 1.0
C      1  0.5138120000000  0.5328820000000  0.4887010000000 1.0
C      1  0.4854140000000  0.4700850000000  0.5221260000000 1.0
C      1  0.5430800000000  0.5498710000000  0.4151280000000 1.0
C      1  0.5792040000000  0.4458500000000  0.4745140000000 1.0
C      1  0.5460430000000  0.5960590000000  0.5090430000000 1.0
C      1  0.5138590000000  0.4990380000000  0.4919690000000 1.0
C      1  0.4524010000000  0.4479010000000  0.5696460000000 1.0
C      1  0.4318630000000  0.4408010000000  0.5010620000000 1.0
C      1  0.4872380000000  0.4256760000000  0.5119640000000 1.0
C      1  0.5507400000000  0.5320870000000  0.5795520000000 1.0
C      1  0.5392420000000  0.5220070000000  0.5491770000000 1.0
C      1  0.4535700000000  0.5194050000000  0.4530890000000 1.0
C      1  0.5071310000000  0.4860420000000  0.5699900000000 1.0
C      1  0.4685710000000  0.5233690000000  0.5495890000000 1.0
C      1  0.4387160000000  0.5547420000000  0.4430060000000 1.0
C      1  0.5675940000000  0.4842600000000  0.5681080000000 1.0
C      1  0.5290770000000  0.4516120000000  0.4857460000000 1.0
C      1  0.4823190000000  0.4609690000000  0.4077880000000 1.0
C      1  0.5290620000000  0.5539540000000  0.5549350000000 1.0
C      1  0.5414560000000  0.4792820000000  0.5378290000000 1.0
C      1  0.4780430000000  0.4411020000000  0.4272150000000 1.0
C      1  0.5563620000000  0.4313500000000  0.4869810000000 1.0
C      1  0.4773690000000  0.4497140000000  0.4601370000000 1.0
C      1  0.5363800000000  0.5176760000000  0.4064910000000 1.0
C      1  0.4779600000000  0.5849580000000  0.5345260000000 1.0
C      1  0.5373210000000  0.5889360000000  0.4766940000000 1.0
C      1  0.5711730000000  0.4470060000000  0.5299300000000 1.0
C      1  0.4420320000000  0.4562160000000  0.4427390000000 1.0
C      1  0.4665980000000  0.5223150000000  0.5156640000000 1.0
C      1  0.4844370000000  0.4867390000000  0.4270630000000 1.0
C      1  0.4917340000000  0.5631830000000  0.4237780000000 1.0
C      1  0.4073500000000  0.4855870000000  0.4574050000000 1.0
C      1  0.4693050000000  0.4754280000000  0.5633230000000 1.0
C      1  0.4671080000000  0.6006840000000  0.5115620000000 1.0
C      1  0.4105620000000  0.4653400000000  0.5028590000000 1.0
C      1  0.6025220000000  0.5397210000000  0.5151980000000 1.0
C      1  0.4199640000000  0.5443640000000  0.4884310000000 1.0
C      1  0.4848170000000  0.5766460000000  0.4961150000000 1.0
C      1  0.5836410000000  0.5052560000000  0.5140730000000 1.0
C      1  0.4747300000000  0.4259400000000  0.5649410000000 1.0
C      1  0.4133930000000  0.5572520000000  0.5190250000000 1.0
C      1  0.4286030000000  0.5236400000000  0.5114230000000 1.0
C      1  0.4879850000000  0.3990050000000  0.4907680000000 1.0
C      1  0.4998880000000  0.4327080000000  0.5802600000000 1.0
C      1  0.5655140000000  0.4764900000000  0.5139580000000 1.0
C      1  0.4925080000000  0.4865790000000  0.6006810000000 1.0
C      1  0.4318940000000  0.4731180000000  0.4775450000000 1.0
C      1  0.5369500000000  0.4898250000000  0.4350390000000 1.0
C      1  0.3925160000000  0.4787870000000  0.4834180000000 1.0
C      1  0.5261050000000  0.5140840000000  0.4535730000000 1.0
C      1  0.5542420000000  0.5780400000000  0.5361730000000 1.0
C      1  0.4627340000000  0.5559580000000  0.5118210000000 1.0
C      1  0.5437990000000  0.5214030000000  0.4774250000000 1.0
C      1  0.4498940000000  0.5728290000000  0.4619450000000 1.0
C      1  0.4931930000000  0.4082880000000  0.4583520000000 1.0
C      1  0.4899860000000  0.5380770000000  0.4440380000000 1.0
C      1  0.5036620000000  0.5196470000000  0.5311200000000 1.0
C      1  0.5407170000000  0.4642140000000  0.5683100000000 1.0
C      1  0.3669270000000  0.4854470000000  0.4881110000000 1.0
C      1  0.4605850000000  0.4982780000000  0.6009890000000 1.0
C      1  0.5604920000000  0.5614790000000  0.5654990000000 1.0
C      1  0.4265700000000  0.5695320000000  0.5370690000000 1.0
C      1  0.4812760000000  0.4949810000000  0.5013850000000 1.0
C      1  0.5743510000000  0.4599020000000  0.4478450000000 1.0
C      1  0.5202220000000  0.4590220000000  0.4541860000000 1.0
C      1  0.5505540000000  0.5503430000000  0.5214480000000 1.0
C      1  0.4815570000000  0.4957660000000  0.5412100000000 1.0
C      1  0.6050330000000  0.4808720000000  0.5104860000000 1.0
C      1  0.5396550000000  0.5657080000000  0.4442210000000 1.0
C      1  0.4570920000000  0.5643180000000  0.5447100000000 1.0
C      1  0.5222450000000  0.5920320000000  0.4471500000000 1.0
C      1  0.4615490000000  0.4480870000000  0.5159810000000 1.0
C      1  0.4404720000000  0.5979980000000  0.5045190000000 1.0
C      1  0.4872620000000  0.4828190000000  0.3875030000000 1.0
C      1  0.5054390000000  0.5697080000000  0.5722720000000 1.0
C      1  0.4766050000000  0.3728530000000  0.4991060000000 1.0
C      1  0.5347750000000  0.5131750000000  0.5958180000000 1.0
C      1  0.5314340000000  0.5057520000000  0.5202990000000 1.0
C      1  0.5898060000000  0.4623870000000  0.4939140000000 1.0
C      1  0.4219070000000  0.5137250000000  0.5619200000000 1.0
C      1  0.5060130000000  0.5177370000000  0.6026020000000 1.0
C      1  0.5189080000000  0.5461500000000  0.5171370000000 1.0
C      1  0.4622720000000  0.5250540000000  0.4837490000000 1.0
C      1  0.4609900000000  0.5382240000000  0.4262820000000 1.0
C      1  0.5728400000000  0.5192700000000  0.4622550000000 1.0
C      1  0.4392790000000  0.5694280000000  0.4911030000000 1.0
C      1  0.4404480000000  0.5012910000000  0.4945480000000 1.0
C      1  0.5175600000000  0.4119330000000  0.4817830000000 1.0
C      1  0.4658150000000  0.4756660000000  0.4775760000000 1.0
C      1  0.5392310000000  0.4836960000000  0.5961480000000 1.0
C      1  0.4799730000000  0.5731230000000  0.4650610000000 1.0
C      1  0.4499090000000  0.5156290000000  0.5737660000000 1.0
C      1  0.5154090000000  0.4820790000000  0.4154800000000 1.0
C      1  0.4623090000000  0.5534190000000  0.5749260000000 1.0
C      1  0.4521830000000  0.4761170000000  0.4289700000000 1.0
C      1  0.5828500000000  0.4920850000000  0.4444400000000 1.0
C      1  0.5943750000000  0.5236910000000  0.4882030000000 1.0
C      1  0.5593850000000  0.5143620000000  0.4314060000000 1.0
C      1  0.5088660000000  0.5152980000000  0.5629010000000 1.0
C      1  0.5157740000000  0.5829580000000  0.5007810000000 1.0
C      1  0.5287180000000  0.4528700000000  0.4223470000000 1.0
C      1  0.5104360000000  0.4683140000000  0.5426640000000 1.0
C      1  0.5181350000000  0.4209260000000  0.4173850000000 1.0
C      1  0.5464150000000  0.4187390000000  0.4322630000000 1.0
C      1  0.5201080000000  0.4730120000000  0.6151840000000 1.0
C      1  0.4911130000000  0.5431880000000  0.5608770000000 1.0
C      1  0.5056140000000  0.5746270000000  0.5301310000000 1.0
C      1  0.5228200000000  0.4378270000000  0.5647200000000 1.0
C      1  0.5578460000000  0.5662500000000  0.4688030000000 1.0
C      1  0.4027400000000  0.4397400000000  0.5644040000000 1.0
C      1  0.5687790000000  0.5052610000000  0.5510290000000 1.0
C      1  0.4871050000000  0.5359320000000  0.4044560000000 1.0
C      1  0.5259020000000  0.5876830000000  0.5519210000000 1.0
C      1  0.4937260000000  0.4169250000000  0.4318300000000 1.0
C      1  0.5737740000000  0.5316590000000  0.5315200000000 1.0
C      1  0.4826300000000  0.4570570000000  0.5886480000000 1.0
C      1  0.4471890000000  0.4783060000000  0.5139750000000 1.0
C      1  0.5270850000000  0.4265230000000  0.5086060000000 1.0
C      1  0.4693560000000  0.4155510000000  0.5390540000000 1.0
C      1  0.5420750000000  0.4801920000000  0.4895980000000 1.0
C      1  0.4397190000000  0.4268870000000  0.5311760000000 1.0
C      1  0.4878000000000  0.5413330000000  0.4742930000000 1.0
C      1  0.5661300000000  0.4259550000000  0.5162380000000 1.0
C      1  0.4532920000000  0.4265770000000  0.4537280000000 1.0
C      1  0.4747140000000  0.5278180000000  0.5937160000000 1.0
C      1  0.4956030000000  0.5857070000000  0.4411810000000 1.0
C      1  0.4274790000000  0.4388100000000  0.5566210000000 1.0
C      1  0.5860640000000  0.5501620000000  0.4674530000000 1.0
END
