TITL C-3289321-8710-711 0.00614077377488442 125000 -865.724283875464 0 0 171 (C1) n - 1
REM
REM in /nfs/bkarasulu/CARBON/AIRSS/Generating-Clusters/AIREBO/with-SteepDescent/Higher-Symm/SD-CG/HFTN-CG
REM
REM
REM
REM
REM
REM ./C.cell (b20cbc046b6831c77cfcea5457e17084)
REM
REM compiler GCC version 9.2.1 20190827 (Red Hat 9.2.1-1)
REM options -cpp -mtune=generic -march=x86-64 -g -O0 -fpre-include=/usr/include/finclude/math-vector-fortran.h
REM seed -896568117 1338526382 -1223604513 1718619824 1114982765 -887892342 1848813005 261776548 670733524 -68150069 -320625643 1851905687 -58240164 1141969606 -177913783 2003802834 -311730085 -1394157349 670139066 851426489 526530523 -867750505 -1116788335 -921644470 583487691 -115005469 2000309367 -1038637727 -2036694596 -1975046519 2119802610 437594846 -991280535
REM
CELL 1.54180   50.00000   50.00000   50.00000   90.00000   90.00000   90.00000
LATT -1
SFAC C  
C      1  0.5911050000000  0.5653600000000  0.4740250000000 1.0
C      1  0.5812290000000  0.4370740000000  0.4827110000000 1.0
C      1  0.4549790000000  0.3945440000000  0.4675350000000 1.0
C      1  0.3898530000000  0.5133780000000  0.4732550000000 1.0
C      1  0.4765950000000  0.5972130000000  0.4794470000000 1.0
C      1  0.5267290000000  0.4445440000000  0.5487460000000 1.0
C      1  0.4570250000000  0.4635090000000  0.5347840000000 1.0
C      1  0.4451780000000  0.5274450000000  0.5387210000000 1.0
C      1  0.5128800000000  0.5489450000000  0.5547990000000 1.0
C      1  0.5595810000000  0.4975280000000  0.5284800000000 1.0
C      1  0.5676560000000  0.4912370000000  0.5905390000000 1.0
C      1  0.5179040000000  0.4345410000000  0.5862760000000 1.0
C      1  0.4415820000000  0.4741350000000  0.5887930000000 1.0
C      1  0.4476120000000  0.5570530000000  0.5893510000000 1.0
C      1  0.5236720000000  0.5565460000000  0.5923310000000 1.0
C      1  0.5536720000000  0.5233850000000  0.4754720000000 1.0
C      1  0.5358460000000  0.4640670000000  0.4650140000000 1.0
C      1  0.4633890000000  0.4458510000000  0.4767570000000 1.0
C      1  0.4492720000000  0.5189330000000  0.4789590000000 1.0
C      1  0.4905020000000  0.5545090000000  0.4741560000000 1.0
C      1  0.5908820000000  0.5024880000000  0.5726930000000 1.0
C      1  0.5313960000000  0.4179650000000  0.5652200000000 1.0
C      1  0.4425950000000  0.4535920000000  0.5639380000000 1.0
C      1  0.4361650000000  0.5466760000000  0.5591560000000 1.0
C      1  0.5277490000000  0.5739490000000  0.5665240000000 1.0
C      1  0.4803880000000  0.4146630000000  0.4572490000000 1.0
C      1  0.4156920000000  0.4955930000000  0.4601330000000 1.0
C      1  0.4656340000000  0.5828800000000  0.4509790000000 1.0
C      1  0.5680730000000  0.5530300000000  0.4530290000000 1.0
C      1  0.5808900000000  0.4566720000000  0.4551620000000 1.0
C      1  0.5059440000000  0.5549670000000  0.4105430000000 1.0
C      1  0.5629100000000  0.5119340000000  0.4119170000000 1.0
C      1  0.5374130000000  0.4455320000000  0.4101210000000 1.0
C      1  0.4583380000000  0.4587850000000  0.4089760000000 1.0
C      1  0.4481570000000  0.5232700000000  0.4134910000000 1.0
C      1  0.4200470000000  0.4971660000000  0.5543920000000 1.0
C      1  0.4646110000000  0.5831700000000  0.5569500000000 1.0
C      1  0.5643720000000  0.5606630000000  0.5559900000000 1.0
C      1  0.5766260000000  0.4602600000000  0.5553100000000 1.0
C      1  0.4851500000000  0.4208530000000  0.5513370000000 1.0
C      1  0.4710210000000  0.5103970000000  0.5510090000000 1.0
C      1  0.5320330000000  0.5252300000000  0.5556120000000 1.0
C      1  0.5252690000000  0.4979740000000  0.5682890000000 1.0
C      1  0.5078790000000  0.4700690000000  0.5596320000000 1.0
C      1  0.4822130000000  0.4803690000000  0.5423630000000 1.0
C      1  0.5224370000000  0.5042960000000  0.4366170000000 1.0
C      1  0.5157780000000  0.4713720000000  0.4312010000000 1.0
C      1  0.4824920000000  0.4774010000000  0.4346580000000 1.0
C      1  0.4715040000000  0.5048070000000  0.4410860000000 1.0
C      1  0.4954470000000  0.5244140000000  0.4370520000000 1.0
C      1  0.4093640000000  0.5276730000000  0.4504460000000 1.0
C      1  0.4970950000000  0.5925290000000  0.4457650000000 1.0
C      1  0.5854120000000  0.5235990000000  0.4512630000000 1.0
C      1  0.5636940000000  0.4272880000000  0.4563760000000 1.0
C      1  0.4478900000000  0.4216760000000  0.4491900000000 1.0
C      1  0.5430610000000  0.4712020000000  0.5368040000000 1.0
C      1  0.4945110000000  0.4530280000000  0.5262800000000 1.0
C      1  0.4445990000000  0.4994740000000  0.5230870000000 1.0
C      1  0.4814950000000  0.5424080000000  0.5455220000000 1.0
C      1  0.5451520000000  0.5242170000000  0.5292240000000 1.0
C      1  0.5379850000000  0.5683110000000  0.4100660000000 1.0
C      1  0.5792040000000  0.4897900000000  0.3972280000000 1.0
C      1  0.5130670000000  0.4361990000000  0.3987050000000 1.0
C      1  0.4238800000000  0.4622770000000  0.4110570000000 1.0
C      1  0.4440420000000  0.5516990000000  0.3986240000000 1.0
C      1  0.5502590000000  0.5419260000000  0.5767510000000 1.0
C      1  0.5492260000000  0.4739050000000  0.5701720000000 1.0
C      1  0.4917060000000  0.4424700000000  0.5713030000000 1.0
C      1  0.4468760000000  0.5042470000000  0.5741940000000 1.0
C      1  0.4763570000000  0.5581800000000  0.5752140000000 1.0
C      1  0.4582980000000  0.4234430000000  0.5374220000000 1.0
C      1  0.4055190000000  0.5235300000000  0.5385600000000 1.0
C      1  0.4880640000000  0.5891200000000  0.5341400000000 1.0
C      1  0.5854280000000  0.5452600000000  0.5388130000000 1.0
C      1  0.5684650000000  0.4312540000000  0.5395070000000 1.0
C      1  0.5559270000000  0.5083770000000  0.4450060000000 1.0
C      1  0.5298810000000  0.4420000000000  0.4411450000000 1.0
C      1  0.4420960000000  0.4533910000000  0.4383660000000 1.0
C      1  0.4491300000000  0.5300130000000  0.4468140000000 1.0
C      1  0.5196960000000  0.5681080000000  0.4387350000000 1.0
C      1  0.5662760000000  0.4563080000000  0.5169100000000 1.0
C      1  0.4801800000000  0.4256970000000  0.5119740000000 1.0
C      1  0.4114200000000  0.4999670000000  0.5155110000000 1.0
C      1  0.4681610000000  0.5640230000000  0.5226870000000 1.0
C      1  0.5629510000000  0.5481870000000  0.5156310000000 1.0
C      1  0.5502690000000  0.5723290000000  0.4747080000000 1.0
C      1  0.5927400000000  0.4778570000000  0.4780950000000 1.0
C      1  0.5055000000000  0.4057240000000  0.4736690000000 1.0
C      1  0.4110250000000  0.4675570000000  0.4782210000000 1.0
C      1  0.4438190000000  0.5751640000000  0.4759230000000 1.0
C      1  0.5703710000000  0.5227150000000  0.5876650000000 1.0
C      1  0.5295410000000  0.4586580000000  0.5936990000000 1.0
C      1  0.4682870000000  0.4532430000000  0.5862680000000 1.0
C      1  0.4306320000000  0.5300330000000  0.5881700000000 1.0
C      1  0.4970870000000  0.5473330000000  0.5945770000000 1.0
C      1  0.4249990000000  0.4311910000000  0.4974510000000 1.0
C      1  0.4110280000000  0.5557290000000  0.4932680000000 1.0
C      1  0.5245650000000  0.6021230000000  0.4936650000000 1.0
C      1  0.6067820000000  0.5199850000000  0.4988360000000 1.0
C      1  0.5440220000000  0.4034170000000  0.4944490000000 1.0
C      1  0.5299490000000  0.3817510000000  0.5165540000000 1.0
C      1  0.3984330000000  0.4345430000000  0.5184100000000 1.0
C      1  0.4060030000000  0.5829640000000  0.5129950000000 1.0
C      1  0.5459500000000  0.6109620000000  0.5181530000000 1.0
C      1  0.6193570000000  0.4951600000000  0.5185710000000 1.0
C      1  0.4854440000000  0.4476980000000  0.4509430000000 1.0
C      1  0.4453680000000  0.4851250000000  0.4503510000000 1.0
C      1  0.4755320000000  0.5511980000000  0.4435650000000 1.0
C      1  0.5359130000000  0.5419070000000  0.4531160000000 1.0
C      1  0.5591620000000  0.4763000000000  0.4434960000000 1.0
C      1  0.5533180000000  0.4727930000000  0.4117370000000 1.0
C      1  0.4857880000000  0.4418880000000  0.4167790000000 1.0
C      1  0.4386010000000  0.4921810000000  0.4177820000000 1.0
C      1  0.4734680000000  0.5538930000000  0.4097800000000 1.0
C      1  0.5397350000000  0.5356600000000  0.4193980000000 1.0
C      1  0.5102850000000  0.5516870000000  0.5009040000000 1.0
C      1  0.5582460000000  0.4990490000000  0.4963050000000 1.0
C      1  0.5255720000000  0.4513920000000  0.4948460000000 1.0
C      1  0.4498590000000  0.4620020000000  0.5027580000000 1.0
C      1  0.4438010000000  0.5360440000000  0.5078340000000 1.0
C      1  0.5299240000000  0.5107460000000  0.5053050000000 1.0
C      1  0.5186190000000  0.4740250000000  0.5162580000000 1.0
C      1  0.4812390000000  0.4689750000000  0.5034250000000 1.0
C      1  0.4701790000000  0.4985180000000  0.5080180000000 1.0
C      1  0.5001340000000  0.5326270000000  0.5201740000000 1.0
C      1  0.5993030000000  0.5074320000000  0.4711290000000 1.0
C      1  0.5338750000000  0.4179130000000  0.4648430000000 1.0
C      1  0.4246300000000  0.4417030000000  0.4651170000000 1.0
C      1  0.4272680000000  0.5500220000000  0.4635040000000 1.0
C      1  0.5274510000000  0.5915240000000  0.4621510000000 1.0
C      1  0.4299950000000  0.4343610000000  0.5310580000000 1.0
C      1  0.4132080000000  0.5529020000000  0.5271580000000 1.0
C      1  0.5168620000000  0.5953350000000  0.5262810000000 1.0
C      1  0.6000890000000  0.5195680000000  0.5318070000000 1.0
C      1  0.5440460000000  0.4103420000000  0.5283910000000 1.0
C      1  0.5812590000000  0.5388250000000  0.4880150000000 1.0
C      1  0.5515010000000  0.4336170000000  0.4969430000000 1.0
C      1  0.4550060000000  0.4183790000000  0.4902930000000 1.0
C      1  0.4175650000000  0.5224560000000  0.4907450000000 1.0
C      1  0.5003330000000  0.5828560000000  0.4901660000000 1.0
C      1  0.5027440000000  0.4709680000000  0.4687320000000 1.0
C      1  0.4700580000000  0.4793540000000  0.4730280000000 1.0
C      1  0.4810420000000  0.5113560000000  0.4792580000000 1.0
C      1  0.5086100000000  0.5267400000000  0.4666050000000 1.0
C      1  0.5181970000000  0.4968760000000  0.4789230000000 1.0
C      1  0.5558730000000  0.5806570000000  0.5067740000000 1.0
C      1  0.5956800000000  0.4725840000000  0.5116890000000 1.0
C      1  0.5038150000000  0.4007510000000  0.5072630000000 1.0
C      1  0.4028290000000  0.4672970000000  0.5115540000000 1.0
C      1  0.4395130000000  0.5783860000000  0.5095120000000 1.0
C      1  0.5013490000000  0.4353650000000  0.4876390000000 1.0
C      1  0.4335510000000  0.4855440000000  0.4941010000000 1.0
C      1  0.4641860000000  0.5540270000000  0.4908300000000 1.0
C      1  0.5377390000000  0.5479100000000  0.4928200000000 1.0
C      1  0.5610660000000  0.4710820000000  0.4867180000000 1.0
C      1  0.5125190000000  0.5234840000000  0.4010650000000 1.0
C      1  0.5327100000000  0.4987220000000  0.4058920000000 1.0
C      1  0.4954990000000  0.4717580000000  0.4037540000000 1.0
C      1  0.4676910000000  0.4910060000000  0.4002210000000 1.0
C      1  0.4798050000000  0.5218100000000  0.4003890000000 1.0
C      1  0.5118140000000  0.4088100000000  0.5393150000000 1.0
C      1  0.4234120000000  0.4668440000000  0.5387080000000 1.0
C      1  0.4351210000000  0.5737170000000  0.5429040000000 1.0
C      1  0.5428230000000  0.5764980000000  0.5378940000000 1.0
C      1  0.5876100000000  0.4896390000000  0.5420710000000 1.0
C      1  0.4703680000000  0.5029760000000  0.5987570000000 1.0
C      1  0.4929900000000  0.5205620000000  0.6002930000000 1.0
C      1  0.5157040000000  0.5038260000000  0.5972240000000 1.0
C      1  0.5104090000000  0.4765710000000  0.6059350000000 1.0
C      1  0.4804640000000  0.4763360000000  0.6038590000000 1.0
C      1  0.5009300000000  0.5018960000000  0.5145340000000 1.0
END
