TITL C-3289323-3850-61 0.0018731710176729 125000 -401.871960174419 0 0 74 (C1) n - 1
REM
REM in /nfs/bkarasulu/CARBON/AIRSS/Generating-Clusters/AIREBO/with-SteepDescent/Higher-Symm/SD-CG/HFTN-CG
REM
REM
REM
REM
REM
REM ./C.cell (b20cbc046b6831c77cfcea5457e17084)
REM
REM compiler GCC version 9.2.1 20190827 (Red Hat 9.2.1-1)
REM options -cpp -mtune=generic -march=x86-64 -g -O0 -fpre-include=/usr/include/finclude/math-vector-fortran.h
REM seed -2025410044 1770139683 1711995754 -1691437053 742123274 1117430572 501337882 -1990896052 -1202656145 -544374224 308365264 504942213 -1436900265 56372641 -1767612799 424534734 -878383446 592440727 1337938473 2003530378 1984799711 -1694282136 -1432135951 -1974521416 1072510201 970369016 -1971940465 611970833 736429022 -726616270 -888960764 -1533759866 1685523169
REM
CELL 1.54180   50.00000   50.00000   50.00000   90.00000   90.00000   90.00000
LATT -1
SFAC C  
C      1  0.4567170000000  0.4943200000000  0.5734780000000 1.0
C      1  0.4150890000000  0.5120230000000  0.5124650000000 1.0
C      1  0.5230210000000  0.5620850000000  0.4550340000000 1.0
C      1  0.5332570000000  0.5059480000000  0.4358900000000 1.0
C      1  0.5602210000000  0.5550160000000  0.4835890000000 1.0
C      1  0.4782470000000  0.4413110000000  0.4586630000000 1.0
C      1  0.4812440000000  0.4644970000000  0.5081300000000 1.0
C      1  0.5277930000000  0.4815900000000  0.5015350000000 1.0
C      1  0.5553590000000  0.5686350000000  0.5068170000000 1.0
C      1  0.5984280000000  0.5083660000000  0.5034050000000 1.0
C      1  0.5226670000000  0.4370190000000  0.5190000000000 1.0
C      1  0.5287850000000  0.5578550000000  0.5212930000000 1.0
C      1  0.5274850000000  0.4541720000000  0.5467800000000 1.0
C      1  0.5264720000000  0.5558240000000  0.5513100000000 1.0
C      1  0.4991340000000  0.5461300000000  0.5627760000000 1.0
C      1  0.4997300000000  0.5643610000000  0.4792490000000 1.0
C      1  0.5442550000000  0.5346970000000  0.5675480000000 1.0
C      1  0.4699370000000  0.4771040000000  0.4430530000000 1.0
C      1  0.4998880000000  0.4756700000000  0.4531940000000 1.0
C      1  0.5546700000000  0.4669140000000  0.5443540000000 1.0
C      1  0.4954470000000  0.5342880000000  0.4687650000000 1.0
C      1  0.4766180000000  0.5081480000000  0.5378330000000 1.0
C      1  0.5129850000000  0.4901590000000  0.4266240000000 1.0
C      1  0.4503280000000  0.5203880000000  0.5652430000000 1.0
C      1  0.5095080000000  0.4493750000000  0.4673590000000 1.0
C      1  0.4843210000000  0.5815440000000  0.5229940000000 1.0
C      1  0.5002730000000  0.5164530000000  0.4976260000000 1.0
C      1  0.5574970000000  0.4244110000000  0.5004760000000 1.0
C      1  0.4735460000000  0.4972120000000  0.5061180000000 1.0
C      1  0.5558830000000  0.4745710000000  0.4900260000000 1.0
C      1  0.4478330000000  0.5498810000000  0.4484870000000 1.0
C      1  0.5062450000000  0.5738380000000  0.5083760000000 1.0
C      1  0.4401650000000  0.4913010000000  0.5019330000000 1.0
C      1  0.5060730000000  0.4995870000000  0.5471690000000 1.0
C      1  0.4927910000000  0.4274830000000  0.5203970000000 1.0
C      1  0.5279550000000  0.5017080000000  0.5252020000000 1.0
C      1  0.4145140000000  0.5107420000000  0.4787160000000 1.0
C      1  0.4892600000000  0.4733580000000  0.4151920000000 1.0
C      1  0.4733190000000  0.5340690000000  0.4473010000000 1.0
C      1  0.5086830000000  0.4571000000000  0.4975880000000 1.0
C      1  0.5493770000000  0.5498200000000  0.4558110000000 1.0
C      1  0.4274530000000  0.4797580000000  0.4732090000000 1.0
C      1  0.4219230000000  0.5364880000000  0.4574760000000 1.0
C      1  0.4636450000000  0.5582200000000  0.5290490000000 1.0
C      1  0.4448100000000  0.4968640000000  0.5337110000000 1.0
C      1  0.4265200000000  0.5242820000000  0.5410770000000 1.0
C      1  0.4738810000000  0.5382760000000  0.5497460000000 1.0
C      1  0.4328660000000  0.5548160000000  0.5334590000000 1.0
C      1  0.5540790000000  0.4645080000000  0.4515520000000 1.0
C      1  0.4618270000000  0.5056740000000  0.4432050000000 1.0
C      1  0.4760000000000  0.4207660000000  0.4997270000000 1.0
C      1  0.4578240000000  0.4467830000000  0.4925200000000 1.0
C      1  0.5577120000000  0.5235500000000  0.4451720000000 1.0
C      1  0.4426730000000  0.4504250000000  0.5223980000000 1.0
C      1  0.5765320000000  0.5084830000000  0.4903470000000 1.0
C      1  0.4460990000000  0.4685870000000  0.5432840000000 1.0
C      1  0.4620730000000  0.5245450000000  0.4894660000000 1.0
C      1  0.5248980000000  0.5176750000000  0.4664940000000 1.0
C      1  0.4797500000000  0.4484650000000  0.5372750000000 1.0
C      1  0.5534410000000  0.4942060000000  0.5422070000000 1.0
C      1  0.5527450000000  0.4526100000000  0.5158690000000 1.0
C      1  0.4745810000000  0.5516470000000  0.4983210000000 1.0
C      1  0.4733250000000  0.4664930000000  0.5633600000000 1.0
C      1  0.5058160000000  0.4705680000000  0.5569220000000 1.0
C      1  0.4521020000000  0.4621430000000  0.4649950000000 1.0
C      1  0.5854920000000  0.4623260000000  0.4954310000000 1.0
C      1  0.5276890000000  0.5286450000000  0.5100340000000 1.0
C      1  0.5619570000000  0.4952750000000  0.4636990000000 1.0
C      1  0.4450130000000  0.5149620000000  0.4676600000000 1.0
C      1  0.5382170000000  0.4436560000000  0.4597400000000 1.0
C      1  0.5159240000000  0.5210270000000  0.5672670000000 1.0
C      1  0.5494560000000  0.5251210000000  0.4870730000000 1.0
C      1  0.5501120000000  0.4225600000000  0.4740730000000 1.0
C      1  0.5085450000000  0.4916220000000  0.4773860000000 1.0
END
