TITL C-3289334-2237-635 -0.00140369968054185 125000 -265.219435022949 0 0 48 (C1) n - 1
REM
REM in /nfs/bkarasulu/CARBON/AIRSS/Generating-Clusters/AIREBO/with-SteepDescent/Higher-Symm/SD-CG/HFTN-CG
REM
REM
REM
REM
REM
REM ./C.cell (b20cbc046b6831c77cfcea5457e17084)
REM
REM compiler GCC version 9.2.1 20190827 (Red Hat 9.2.1-1)
REM options -cpp -mtune=generic -march=x86-64 -g -O0 -fpre-include=/usr/include/finclude/math-vector-fortran.h
REM seed -929718404 -1700220364 -797544100 -476332556 180888783 -1712626959 45730057 880986956 -747132748 -384590223 -873770686 238740434 -939536335 487038282 2018639698 -610651462 -2021779630 -1560551465 -1905626057 1332468735 -1382408656 735962327 -994963682 -784289716 -1044183019 -531819616 406038399 246950038 -501655943 764099080 489721737 1644923937 550387679
REM
CELL 1.54180   50.00000   50.00000   50.00000   90.00000   90.00000   90.00000
LATT -1
SFAC C  
C      1  0.4565620000000  0.5275520000000  0.4750200000000 1.0
C      1  0.4659650000000  0.5401960000000  0.5406840000000 1.0
C      1  0.5329900000000  0.5334440000000  0.5419430000000 1.0
C      1  0.5536870000000  0.5352080000000  0.4881350000000 1.0
C      1  0.5035990000000  0.5280660000000  0.4512080000000 1.0
C      1  0.4490370000000  0.4793490000000  0.4897680000000 1.0
C      1  0.4640870000000  0.4939320000000  0.5689090000000 1.0
C      1  0.5322470000000  0.4797310000000  0.5424530000000 1.0
C      1  0.5666920000000  0.4907980000000  0.4642090000000 1.0
C      1  0.4951500000000  0.4869530000000  0.4305560000000 1.0
C      1  0.5317080000000  0.5537200000000  0.4974990000000 1.0
C      1  0.4926320000000  0.5550450000000  0.4607750000000 1.0
C      1  0.4731090000000  0.5541040000000  0.4890750000000 1.0
C      1  0.4864200000000  0.5570190000000  0.5204380000000 1.0
C      1  0.5158450000000  0.5547130000000  0.5244030000000 1.0
C      1  0.4587880000000  0.5219280000000  0.4435020000000 1.0
C      1  0.4480870000000  0.5135540000000  0.5278950000000 1.0
C      1  0.4985910000000  0.4999460000000  0.5496110000000 1.0
C      1  0.5596360000000  0.5022560000000  0.5098910000000 1.0
C      1  0.5180560000000  0.5077670000000  0.4723550000000 1.0
C      1  0.5234810000000  0.4840090000000  0.4269650000000 1.0
C      1  0.4530540000000  0.4693460000000  0.4646610000000 1.0
C      1  0.4457360000000  0.4900070000000  0.5474900000000 1.0
C      1  0.5161070000000  0.4777790000000  0.5685310000000 1.0
C      1  0.5654500000000  0.4802220000000  0.4934930000000 1.0
C      1  0.5106340000000  0.5151990000000  0.5252430000000 1.0
C      1  0.5303620000000  0.5141500000000  0.5011200000000 1.0
C      1  0.4944710000000  0.4852870000000  0.4820170000000 1.0
C      1  0.4831670000000  0.5154990000000  0.4896300000000 1.0
C      1  0.4799360000000  0.5177810000000  0.5192740000000 1.0
C      1  0.4782080000000  0.5199940000000  0.5636740000000 1.0
C      1  0.5470890000000  0.5043420000000  0.5370230000000 1.0
C      1  0.5715010000000  0.5226560000000  0.4716920000000 1.0
C      1  0.4854370000000  0.5139100000000  0.4346450000000 1.0
C      1  0.4448070000000  0.5063510000000  0.4962030000000 1.0
C      1  0.5563260000000  0.4777870000000  0.4342270000000 1.0
C      1  0.4633020000000  0.4455860000000  0.4471110000000 1.0
C      1  0.4473420000000  0.4648940000000  0.5346020000000 1.0
C      1  0.4833390000000  0.4711480000000  0.5723470000000 1.0
C      1  0.5495190000000  0.4579990000000  0.5018690000000 1.0
C      1  0.4612770000000  0.4643100000000  0.5102310000000 1.0
C      1  0.4902780000000  0.4682080000000  0.5403830000000 1.0
C      1  0.5269860000000  0.4628610000000  0.5191110000000 1.0
C      1  0.5355620000000  0.4924790000000  0.4551670000000 1.0
C      1  0.4844690000000  0.4714520000000  0.4540330000000 1.0
C      1  0.5046540000000  0.5418340000000  0.4884070000000 1.0
C      1  0.4950970000000  0.4623620000000  0.5072370000000 1.0
C      1  0.4969180000000  0.4344260000000  0.4956940000000 1.0
END
