TITL C-3289320-4661-538 -0.00153466084272803 125000 -154.633394715027 0 0 27 (C1) n - 1
REM
REM in /nfs/bkarasulu/CARBON/AIRSS/Generating-Clusters/AIREBO/with-SteepDescent/Higher-Symm/SD-CG/HFTN-CG
REM
REM
REM
REM
REM
REM ./C.cell (b20cbc046b6831c77cfcea5457e17084)
REM
REM compiler GCC version 9.2.1 20190827 (Red Hat 9.2.1-1)
REM options -cpp -mtune=generic -march=x86-64 -g -O0 -fpre-include=/usr/include/finclude/math-vector-fortran.h
REM seed -453186940 -10732737 1357368741 -1437237894 1086484213 646188621 -1701933621 1355413821 1060036934 119797559 -315281960 1471206416 -1546970094 -1298458408 1203524980 1754951143 -2019303514 -472175818 865470850 973527611 1592907183 -582224242 916725323 284596559 1440819009 -792381932 1944488984 1939837853 774580385 -586417205 1363605387 -1463210524 -2033933851
REM
CELL 1.54180   50.00000   50.00000   50.00000   90.00000   90.00000   90.00000
LATT -1
SFAC C  
C      1  0.5017640000000  0.4573170000000  0.4572940000000 1.0
C      1  0.5237490000000  0.4669440000000  0.4461900000000 1.0
C      1  0.5367690000000  0.4891570000000  0.4528710000000 1.0
C      1  0.5408750000000  0.5212640000000  0.4550820000000 1.0
C      1  0.5165040000000  0.5444510000000  0.4579360000000 1.0
C      1  0.4847020000000  0.5355760000000  0.4567910000000 1.0
C      1  0.4664290000000  0.5194150000000  0.4469400000000 1.0
C      1  0.4598980000000  0.4947260000000  0.4547250000000 1.0
C      1  0.4695790000000  0.4635760000000  0.4582100000000 1.0
C      1  0.4648680000000  0.5101410000000  0.5034180000000 1.0
C      1  0.4646480000000  0.4865670000000  0.4858430000000 1.0
C      1  0.4876370000000  0.4624360000000  0.4876390000000 1.0
C      1  0.5065610000000  0.4664850000000  0.5100010000000 1.0
C      1  0.5299640000000  0.4780170000000  0.5026240000000 1.0
C      1  0.5377490000000  0.4991770000000  0.4837880000000 1.0
C      1  0.5312140000000  0.5314770000000  0.4862700000000 1.0
C      1  0.4983540000000  0.5396120000000  0.4876200000000 1.0
C      1  0.4828050000000  0.5292960000000  0.5101510000000 1.0
C      1  0.5233490000000  0.4698960000000  0.5543010000000 1.0
C      1  0.5363560000000  0.4935340000000  0.5588840000000 1.0
C      1  0.5292560000000  0.5197220000000  0.5609080000000 1.0
C      1  0.5119250000000  0.5369560000000  0.5487810000000 1.0
C      1  0.4864990000000  0.5333240000000  0.5373070000000 1.0
C      1  0.4670230000000  0.5207900000000  0.5536950000000 1.0
C      1  0.4642870000000  0.4938260000000  0.5577890000000 1.0
C      1  0.4759440000000  0.4712710000000  0.5477360000000 1.0
C      1  0.5012930000000  0.4650470000000  0.5372060000000 1.0
END
