TITL C-3289335-9438-575 0.00125028819141019 125000 -617.204393309081 0 0 102 (C1) n - 1
REM
REM in /nfs/bkarasulu/CARBON/AIRSS/Generating-Clusters/AIREBO/with-SteepDescent/Higher-Symm/SD-CG/HFTN-CG
REM
REM
REM
REM
REM
REM ./C.cell (b20cbc046b6831c77cfcea5457e17084)
REM
REM compiler GCC version 9.2.1 20190827 (Red Hat 9.2.1-1)
REM options -cpp -mtune=generic -march=x86-64 -g -O0 -fpre-include=/usr/include/finclude/math-vector-fortran.h
REM seed 725658638 -302555031 -1506805983 -1791836760 1525203961 -1571358643 1204386534 1670928420 -747799198 -346235337 1059371912 451764206 1550158159 -1511116041 -1219014051 -1853348305 -1465514616 -873801548 -47501071 -1400273266 630755142 -580903285 -194430254 -131335982 -1546216347 -674801324 -1432300179 1828549222 1621933270 1324200821 1408512902 1021393949 -180462728
REM
CELL 1.54180   50.00000   50.00000   50.00000   90.00000   90.00000   90.00000
LATT -1
SFAC C  
C      1  0.5011310000000  0.5104560000000  0.5354060000000 1.0
C      1  0.5175730000000  0.4896570000000  0.5484960000000 1.0
C      1  0.5026840000000  0.4647870000000  0.5382560000000 1.0
C      1  0.5169200000000  0.4508490000000  0.5134060000000 1.0
C      1  0.5323910000000  0.4485310000000  0.4880850000000 1.0
C      1  0.5276710000000  0.4591920000000  0.4622600000000 1.0
C      1  0.5094590000000  0.4850640000000  0.4568810000000 1.0
C      1  0.5169050000000  0.5093080000000  0.4694600000000 1.0
C      1  0.5147820000000  0.5420300000000  0.4727040000000 1.0
C      1  0.5260440000000  0.5297830000000  0.5023670000000 1.0
C      1  0.5161980000000  0.5324340000000  0.5278550000000 1.0
C      1  0.5416720000000  0.5037460000000  0.5662370000000 1.0
C      1  0.5411190000000  0.4657570000000  0.5540570000000 1.0
C      1  0.5442120000000  0.4336480000000  0.5231720000000 1.0
C      1  0.5486190000000  0.4216280000000  0.4847580000000 1.0
C      1  0.5465680000000  0.4415660000000  0.4401590000000 1.0
C      1  0.5385720000000  0.4806130000000  0.4395910000000 1.0
C      1  0.5539130000000  0.5155830000000  0.4277000000000 1.0
C      1  0.5199020000000  0.5481450000000  0.4395620000000 1.0
C      1  0.5398010000000  0.5623190000000  0.4836070000000 1.0
C      1  0.5475790000000  0.5734120000000  0.5419810000000 1.0
C      1  0.5332760000000  0.5434950000000  0.5499820000000 1.0
C      1  0.5718480000000  0.4464370000000  0.4836560000000 1.0
C      1  0.5672500000000  0.4588840000000  0.4570650000000 1.0
C      1  0.5682210000000  0.4906190000000  0.4461990000000 1.0
C      1  0.5704440000000  0.5236040000000  0.4541740000000 1.0
C      1  0.5657700000000  0.5436720000000  0.4714710000000 1.0
C      1  0.5674480000000  0.5547400000000  0.5018960000000 1.0
C      1  0.5660570000000  0.5526280000000  0.5293540000000 1.0
C      1  0.5621150000000  0.5264980000000  0.5507510000000 1.0
C      1  0.5708540000000  0.4940080000000  0.5529540000000 1.0
C      1  0.5661240000000  0.4691430000000  0.5370130000000 1.0
C      1  0.5667690000000  0.4501210000000  0.5145480000000 1.0
C      1  0.4432670000000  0.5353360000000  0.5561010000000 1.0
C      1  0.4468590000000  0.5068090000000  0.5577050000000 1.0
C      1  0.4396810000000  0.4552490000000  0.5456350000000 1.0
C      1  0.4409560000000  0.4348790000000  0.5232520000000 1.0
C      1  0.4364300000000  0.4341160000000  0.4895530000000 1.0
C      1  0.4395180000000  0.4569430000000  0.4617690000000 1.0
C      1  0.4475400000000  0.4879400000000  0.4483020000000 1.0
C      1  0.4426030000000  0.5217660000000  0.4460940000000 1.0
C      1  0.4486400000000  0.5476170000000  0.4673870000000 1.0
C      1  0.4407910000000  0.5666350000000  0.4944660000000 1.0
C      1  0.4414780000000  0.5563350000000  0.5295050000000 1.0
C      1  0.4694930000000  0.4627430000000  0.5311030000000 1.0
C      1  0.4867080000000  0.4414060000000  0.5109740000000 1.0
C      1  0.4642100000000  0.4489530000000  0.4939330000000 1.0
C      1  0.4678470000000  0.4667320000000  0.4748250000000 1.0
C      1  0.4801410000000  0.4874900000000  0.4580250000000 1.0
C      1  0.4719610000000  0.5167020000000  0.4600990000000 1.0
C      1  0.4817840000000  0.5416500000000  0.4748390000000 1.0
C      1  0.4690410000000  0.5516390000000  0.5009980000000 1.0
C      1  0.4657800000000  0.5350210000000  0.5231820000000 1.0
C      1  0.4751610000000  0.5112440000000  0.5298180000000 1.0
C      1  0.4530940000000  0.4901110000000  0.5316330000000 1.0
C      1  0.4746640000000  0.4737720000000  0.5823040000000 1.0
C      1  0.4747660000000  0.4262090000000  0.5574730000000 1.0
C      1  0.4735060000000  0.4039230000000  0.5079150000000 1.0
C      1  0.4755780000000  0.4197120000000  0.4593040000000 1.0
C      1  0.4750170000000  0.4560910000000  0.4236520000000 1.0
C      1  0.4791850000000  0.5076350000000  0.4142160000000 1.0
C      1  0.4726750000000  0.5584960000000  0.4265310000000 1.0
C      1  0.4755310000000  0.5893300000000  0.4675350000000 1.0
C      1  0.4776040000000  0.5904550000000  0.5171460000000 1.0
C      1  0.4755610000000  0.5700770000000  0.5628860000000 1.0
C      1  0.4756340000000  0.5251500000000  0.5891260000000 1.0
C      1  0.4612740000000  0.4510280000000  0.5684070000000 1.0
C      1  0.4616600000000  0.4164160000000  0.5314960000000 1.0
C      1  0.4603360000000  0.4108830000000  0.4828040000000 1.0
C      1  0.4630730000000  0.4408520000000  0.4447020000000 1.0
C      1  0.4651080000000  0.4830020000000  0.4213630000000 1.0
C      1  0.4654110000000  0.5310470000000  0.4234130000000 1.0
C      1  0.4627430000000  0.5702850000000  0.4501870000000 1.0
C      1  0.4629030000000  0.5901990000000  0.4929230000000 1.0
C      1  0.4635920000000  0.5780170000000  0.5385260000000 1.0
C      1  0.4624450000000  0.5473420000000  0.5748880000000 1.0
C      1  0.4628040000000  0.5000050000000  0.5805340000000 1.0
C      1  0.5278590000000  0.5240900000000  0.4235300000000 1.0
C      1  0.5160550000000  0.5818980000000  0.4430580000000 1.0
C      1  0.5189770000000  0.5851250000000  0.4906600000000 1.0
C      1  0.5187430000000  0.5817080000000  0.5413970000000 1.0
C      1  0.5163440000000  0.5473060000000  0.5761860000000 1.0
C      1  0.5174850000000  0.5007480000000  0.5868220000000 1.0
C      1  0.5199660000000  0.4543470000000  0.5725210000000 1.0
C      1  0.5204800000000  0.4164940000000  0.5331000000000 1.0
C      1  0.5193490000000  0.4115640000000  0.4807210000000 1.0
C      1  0.5172370000000  0.4325330000000  0.4345400000000 1.0
C      1  0.5170010000000  0.4783240000000  0.4174830000000 1.0
C      1  0.5030790000000  0.4534150000000  0.4197030000000 1.0
C      1  0.5080790000000  0.5052600000000  0.4133100000000 1.0
C      1  0.4989940000000  0.5660950000000  0.4218380000000 1.0
C      1  0.5042460000000  0.5915210000000  0.4668710000000 1.0
C      1  0.5062780000000  0.5879470000000  0.5162750000000 1.0
C      1  0.5036670000000  0.5706350000000  0.5634290000000 1.0
C      1  0.5040440000000  0.5255160000000  0.5891250000000 1.0
C      1  0.5040810000000  0.4749180000000  0.5848950000000 1.0
C      1  0.5039590000000  0.4341220000000  0.5528970000000 1.0
C      1  0.5036630000000  0.4122610000000  0.5065940000000 1.0
C      1  0.5045390000000  0.4182220000000  0.4569590000000 1.0
C      1  0.5417880000000  0.5069040000000  0.5005140000000 1.0
C      1  0.5582300000000  0.4867610000000  0.5000950000000 1.0
C      1  0.4313310000000  0.4913590000000  0.5137900000000 1.0
END
