TITL C-3289333-7213-526 -4.09970551271321e-05 125000 -112.51307723794 0 0 21 (C1) n - 1
REM
REM in /nfs/bkarasulu/CARBON/AIRSS/Generating-Clusters/AIREBO/with-SteepDescent/Higher-Symm/SD-CG/HFTN-CG
REM
REM
REM
REM
REM
REM ./C.cell (b20cbc046b6831c77cfcea5457e17084)
REM
REM compiler GCC version 9.2.1 20190827 (Red Hat 9.2.1-1)
REM options -cpp -mtune=generic -march=x86-64 -g -O0 -fpre-include=/usr/include/finclude/math-vector-fortran.h
REM seed 1315339546 576849395 295453370 1423649452 -1033694136 285670726 -238160530 1414654800 1210426218 -1010096723 944658347 -695831521 -561177101 -1076968354 -2134955833 -1480542372 -1497890927 -8285796 1238975297 -313999464 1949464301 698657698 -1378761424 577496270 1694889305 -712219139 -714374561 1812308862 -844136991 602030681 -1192758766 2073140950 -825416816
REM
CELL 1.54180   50.00000   50.00000   50.00000   90.00000   90.00000   90.00000
LATT -1
SFAC C  
C      1  0.5074090000000  0.5818870000000  0.5163480000000 1.0
C      1  0.5020350000000  0.4135040000000  0.4908100000000 1.0
C      1  0.5004990000000  0.5861410000000  0.4909100000000 1.0
C      1  0.5078610000000  0.4181410000000  0.5164410000000 1.0
C      1  0.4994460000000  0.4641520000000  0.4800540000000 1.0
C      1  0.4998090000000  0.5301640000000  0.5099170000000 1.0
C      1  0.4984610000000  0.4700450000000  0.5098300000000 1.0
C      1  0.5014060000000  0.5356970000000  0.4801590000000 1.0
C      1  0.5163150000000  0.5767350000000  0.5467910000000 1.0
C      1  0.4948530000000  0.4083350000000  0.4599200000000 1.0
C      1  0.4918750000000  0.5908780000000  0.4602230000000 1.0
C      1  0.5154850000000  0.4241410000000  0.5472150000000 1.0
C      1  0.4970960000000  0.5608210000000  0.4714970000000 1.0
C      1  0.5067370000000  0.4480580000000  0.5272510000000 1.0
C      1  0.5090700000000  0.5518220000000  0.5274130000000 1.0
C      1  0.4974080000000  0.4387260000000  0.4713820000000 1.0
C      1  0.5057910000000  0.5130480000000  0.4647740000000 1.0
C      1  0.4733670000000  0.4880320000000  0.5196010000000 1.0
C      1  0.4739590000000  0.5131990000000  0.5198010000000 1.0
C      1  0.4991370000000  0.4868510000000  0.4640870000000 1.0
C      1  0.5114610000000  0.4997670000000  0.5169110000000 1.0
END
