TITL C-3289324-3781-123 -0.00138521242182698 125000 -436.168192419934 0 0 79 (C1) n - 1
REM
REM in /nfs/bkarasulu/CARBON/AIRSS/Generating-Clusters/AIREBO/with-SteepDescent/Higher-Symm/SD-CG/HFTN-CG
REM
REM
REM
REM
REM
REM ./C.cell (b20cbc046b6831c77cfcea5457e17084)
REM
REM compiler GCC version 9.2.1 20190827 (Red Hat 9.2.1-1)
REM options -cpp -mtune=generic -march=x86-64 -g -O0 -fpre-include=/usr/include/finclude/math-vector-fortran.h
REM seed -2052927821 -262467708 455389344 1662146801 763382830 -1736095336 1472520796 1901461133 2103769285 92853641 -1223659154 700954937 1802975377 1925856259 1466812459 1987506602 -1123751903 -175264299 -1724864246 1023929587 2101871949 -622820852 -726737806 1832157185 699116820 -1458299117 -1127654178 1453179376 -1350002488 1073655711 -1549762252 -1119202583 -273089770
REM
CELL 1.54180   50.00000   50.00000   50.00000   90.00000   90.00000   90.00000
LATT -1
SFAC C  
C      1  0.5278680000000  0.4492050000000  0.4513810000000 1.0
C      1  0.4721440000000  0.4486790000000  0.5480550000000 1.0
C      1  0.5253910000000  0.5556100000000  0.4517110000000 1.0
C      1  0.4744610000000  0.5558770000000  0.5486140000000 1.0
C      1  0.4776310000000  0.4288180000000  0.5301160000000 1.0
C      1  0.5231050000000  0.4293350000000  0.4695090000000 1.0
C      1  0.4704970000000  0.5701860000000  0.5227800000000 1.0
C      1  0.5288320000000  0.5700270000000  0.4778090000000 1.0
C      1  0.4480750000000  0.4833810000000  0.4741570000000 1.0
C      1  0.5504910000000  0.4833250000000  0.5259000000000 1.0
C      1  0.4598530000000  0.5129900000000  0.4737150000000 1.0
C      1  0.5399870000000  0.5138150000000  0.5262780000000 1.0
C      1  0.5817630000000  0.4875550000000  0.4856090000000 1.0
C      1  0.4181860000000  0.4878060000000  0.5147220000000 1.0
C      1  0.5676760000000  0.5165640000000  0.4791400000000 1.0
C      1  0.4278960000000  0.5183690000000  0.5235770000000 1.0
C      1  0.5220630000000  0.5105960000000  0.4325000000000 1.0
C      1  0.4768540000000  0.5112800000000  0.5675160000000 1.0
C      1  0.4988960000000  0.4845860000000  0.4211700000000 1.0
C      1  0.4994730000000  0.4848270000000  0.5789110000000 1.0
C      1  0.5407320000000  0.4616880000000  0.5012400000000 1.0
C      1  0.4585690000000  0.4620620000000  0.4987660000000 1.0
C      1  0.5369540000000  0.5311670000000  0.4999540000000 1.0
C      1  0.4619270000000  0.5300430000000  0.4999840000000 1.0
C      1  0.4720580000000  0.4342790000000  0.4734990000000 1.0
C      1  0.5279990000000  0.4338020000000  0.5267680000000 1.0
C      1  0.4708280000000  0.5615490000000  0.4770510000000 1.0
C      1  0.5288030000000  0.5622130000000  0.5237250000000 1.0
C      1  0.5409030000000  0.5292180000000  0.5555680000000 1.0
C      1  0.4587510000000  0.5289500000000  0.4449380000000 1.0
C      1  0.5393640000000  0.4719110000000  0.5527160000000 1.0
C      1  0.4590960000000  0.4715480000000  0.4473040000000 1.0
C      1  0.4947420000000  0.4737340000000  0.5471190000000 1.0
C      1  0.5048430000000  0.4735480000000  0.4527770000000 1.0
C      1  0.4926690000000  0.5293520000000  0.5436140000000 1.0
C      1  0.5072010000000  0.5293080000000  0.4565510000000 1.0
C      1  0.4495090000000  0.5168690000000  0.5480770000000 1.0
C      1  0.5488660000000  0.5175260000000  0.4522410000000 1.0
C      1  0.4576100000000  0.4873040000000  0.5424010000000 1.0
C      1  0.5416230000000  0.4877080000000  0.4585470000000 1.0
C      1  0.4682260000000  0.4872650000000  0.4257250000000 1.0
C      1  0.5302000000000  0.4874690000000  0.5742130000000 1.0
C      1  0.4563360000000  0.5124210000000  0.4227970000000 1.0
C      1  0.5425070000000  0.5123680000000  0.5775490000000 1.0
C      1  0.4437970000000  0.4356030000000  0.4833170000000 1.0
C      1  0.5564460000000  0.4350580000000  0.5175450000000 1.0
C      1  0.4419630000000  0.5523670000000  0.4838760000000 1.0
C      1  0.5575250000000  0.5525430000000  0.5165760000000 1.0
C      1  0.5153120000000  0.4392740000000  0.4983180000000 1.0
C      1  0.4853110000000  0.4384020000000  0.5013190000000 1.0
C      1  0.5141510000000  0.5727560000000  0.5013350000000 1.0
C      1  0.4852720000000  0.5727170000000  0.4992400000000 1.0
C      1  0.4795410000000  0.5465040000000  0.4550750000000 1.0
C      1  0.5200800000000  0.5467960000000  0.5454690000000 1.0
C      1  0.4790520000000  0.4524090000000  0.4544840000000 1.0
C      1  0.5203780000000  0.4514770000000  0.5459800000000 1.0
C      1  0.5277510000000  0.5053830000000  0.4030380000000 1.0
C      1  0.4716480000000  0.5068190000000  0.5972370000000 1.0
C      1  0.5135570000000  0.4842520000000  0.3926530000000 1.0
C      1  0.4851850000000  0.4852610000000  0.6076130000000 1.0
C      1  0.5552380000000  0.5482840000000  0.4769430000000 1.0
C      1  0.4448010000000  0.5478710000000  0.5233350000000 1.0
C      1  0.5664920000000  0.4647470000000  0.4796630000000 1.0
C      1  0.4331480000000  0.4649300000000  0.5202570000000 1.0
C      1  0.4789060000000  0.4814310000000  0.5180070000000 1.0
C      1  0.5200510000000  0.4809370000000  0.4823000000000 1.0
C      1  0.4854940000000  0.5205880000000  0.5139290000000 1.0
C      1  0.5141690000000  0.5202750000000  0.4860500000000 1.0
C      1  0.5759740000000  0.4991240000000  0.5137920000000 1.0
C      1  0.4244400000000  0.5006210000000  0.4880970000000 1.0
C      1  0.5755260000000  0.5296840000000  0.5095230000000 1.0
C      1  0.4230060000000  0.5306550000000  0.4916830000000 1.0
C      1  0.4462310000000  0.5479030000000  0.5583800000000 1.0
C      1  0.5547200000000  0.5484700000000  0.4429410000000 1.0
C      1  0.4442990000000  0.4600540000000  0.5483070000000 1.0
C      1  0.5554380000000  0.4610810000000  0.4514800000000 1.0
C      1  0.4871140000000  0.5019590000000  0.4587240000000 1.0
C      1  0.5127410000000  0.5020020000000  0.5413000000000 1.0
C      1  0.4999380000000  0.4960260000000  0.5003580000000 1.0
END
