TITL C-3289323-3850-254 0.000405845690806408 125000 -705.175280695407 0 0 132 (C1) n - 1
REM
REM in /nfs/bkarasulu/CARBON/AIRSS/Generating-Clusters/AIREBO/with-SteepDescent/Higher-Symm/SD-CG/HFTN-CG
REM
REM
REM
REM
REM
REM ./C.cell (b20cbc046b6831c77cfcea5457e17084)
REM
REM compiler GCC version 9.2.1 20190827 (Red Hat 9.2.1-1)
REM options -cpp -mtune=generic -march=x86-64 -g -O0 -fpre-include=/usr/include/finclude/math-vector-fortran.h
REM seed 1015135013 648630200 -2010200200 1389205872 -576938706 107311074 1730235379 1884279272 854344324 -674551399 788316933 -1994330954 1326354642 -1251408022 -1516674679 313857674 198200491 1933315078 784893452 525035668 -436146024 -613135790 1972650330 1424635921 1004732251 -1977172669 -1914183987 -513291478 -2009609011 -1237650996 -312930234 947845964 -1049153750
REM
CELL 1.54180   50.00000   50.00000   50.00000   90.00000   90.00000   90.00000
LATT -1
SFAC C  
C      1  0.4812180000000  0.4182940000000  0.4906530000000 1.0
C      1  0.4932290000000  0.5488500000000  0.4329530000000 1.0
C      1  0.4892330000000  0.5381470000000  0.5857790000000 1.0
C      1  0.5302800000000  0.4592490000000  0.4223460000000 1.0
C      1  0.5254240000000  0.5944320000000  0.4866900000000 1.0
C      1  0.5318370000000  0.4526580000000  0.5775910000000 1.0
C      1  0.5391280000000  0.4877810000000  0.5437240000000 1.0
C      1  0.5356530000000  0.4784050000000  0.4735870000000 1.0
C      1  0.5303650000000  0.5426960000000  0.4998030000000 1.0
C      1  0.5503030000000  0.5651870000000  0.5522220000000 1.0
C      1  0.5500510000000  0.4259350000000  0.5275180000000 1.0
C      1  0.5503010000000  0.5108690000000  0.4244650000000 1.0
C      1  0.4326550000000  0.4804920000000  0.4795280000000 1.0
C      1  0.4227650000000  0.5293450000000  0.5073170000000 1.0
C      1  0.4308310000000  0.4807210000000  0.5284650000000 1.0
C      1  0.4865380000000  0.5421730000000  0.5106030000000 1.0
C      1  0.4822780000000  0.4737670000000  0.5273310000000 1.0
C      1  0.4816180000000  0.4985840000000  0.4634640000000 1.0
C      1  0.5930000000000  0.5403050000000  0.5174060000000 1.0
C      1  0.5836090000000  0.4656760000000  0.5181420000000 1.0
C      1  0.5970820000000  0.4917530000000  0.4606140000000 1.0
C      1  0.4802860000000  0.5004930000000  0.5466110000000 1.0
C      1  0.4773640000000  0.4653680000000  0.4693830000000 1.0
C      1  0.4792640000000  0.5517340000000  0.4810410000000 1.0
C      1  0.4362800000000  0.5234930000000  0.5563580000000 1.0
C      1  0.4287270000000  0.4301950000000  0.4877770000000 1.0
C      1  0.4270700000000  0.5328830000000  0.4571310000000 1.0
C      1  0.3992130000000  0.4716260000000  0.5283280000000 1.0
C      1  0.4022820000000  0.4864370000000  0.4652380000000 1.0
C      1  0.3944450000000  0.5463220000000  0.5154290000000 1.0
C      1  0.4901090000000  0.5692910000000  0.5771770000000 1.0
C      1  0.4911910000000  0.3971560000000  0.5110960000000 1.0
C      1  0.5019340000000  0.5307580000000  0.4111800000000 1.0
C      1  0.5873900000000  0.5155200000000  0.4520160000000 1.0
C      1  0.5786970000000  0.5312550000000  0.5402680000000 1.0
C      1  0.5836810000000  0.4376870000000  0.5092910000000 1.0
C      1  0.5782080000000  0.5461860000000  0.4937160000000 1.0
C      1  0.5784030000000  0.4814990000000  0.5395140000000 1.0
C      1  0.5795260000000  0.4706120000000  0.4676180000000 1.0
C      1  0.5153570000000  0.5617590000000  0.4525730000000 1.0
C      1  0.5173250000000  0.5248830000000  0.5775800000000 1.0
C      1  0.5073610000000  0.4322570000000  0.4753270000000 1.0
C      1  0.4416560000000  0.4788310000000  0.5749950000000 1.0
C      1  0.4438510000000  0.4460460000000  0.4410040000000 1.0
C      1  0.4396220000000  0.5773590000000  0.4793850000000 1.0
C      1  0.5185530000000  0.5414240000000  0.5504150000000 1.0
C      1  0.5117340000000  0.4366420000000  0.5087740000000 1.0
C      1  0.5164540000000  0.5203540000000  0.4478440000000 1.0
C      1  0.5091640000000  0.5059760000000  0.4840460000000 1.0
C      1  0.5070340000000  0.5221350000000  0.5262610000000 1.0
C      1  0.5059470000000  0.4666140000000  0.5122270000000 1.0
C      1  0.5425710000000  0.5108810000000  0.4790750000000 1.0
C      1  0.5364900000000  0.5123080000000  0.5124070000000 1.0
C      1  0.5342360000000  0.4788910000000  0.5132600000000 1.0
C      1  0.4511520000000  0.5488970000000  0.5546110000000 1.0
C      1  0.4349350000000  0.4011140000000  0.4978650000000 1.0
C      1  0.4491530000000  0.5332640000000  0.4338250000000 1.0
C      1  0.4167840000000  0.4683160000000  0.5564220000000 1.0
C      1  0.4280420000000  0.4739450000000  0.4473950000000 1.0
C      1  0.4221560000000  0.5628990000000  0.5047230000000 1.0
C      1  0.5312350000000  0.4014110000000  0.5370570000000 1.0
C      1  0.5280750000000  0.5136420000000  0.3998580000000 1.0
C      1  0.5298400000000  0.5902810000000  0.5465230000000 1.0
C      1  0.4600790000000  0.4251160000000  0.5908440000000 1.0
C      1  0.4825310000000  0.4490650000000  0.3838660000000 1.0
C      1  0.4680420000000  0.6369110000000  0.4977970000000 1.0
C      1  0.4549900000000  0.4623410000000  0.5189880000000 1.0
C      1  0.4577390000000  0.5017780000000  0.4874670000000 1.0
C      1  0.4689800000000  0.5137280000000  0.5173790000000 1.0
C      1  0.5079570000000  0.4926430000000  0.6152970000000 1.0
C      1  0.5012460000000  0.3984330000000  0.4478050000000 1.0
C      1  0.5033490000000  0.5963640000000  0.4309030000000 1.0
C      1  0.4785290000000  0.5911340000000  0.4406120000000 1.0
C      1  0.4836170000000  0.4913910000000  0.6016490000000 1.0
C      1  0.4796530000000  0.4136710000000  0.4509840000000 1.0
C      1  0.5058840000000  0.4737410000000  0.4828720000000 1.0
C      1  0.5100470000000  0.5388120000000  0.4756750000000 1.0
C      1  0.5136990000000  0.5019080000000  0.5527660000000 1.0
C      1  0.4681140000000  0.5151300000000  0.5934740000000 1.0
C      1  0.4571710000000  0.4067900000000  0.4725290000000 1.0
C      1  0.4641510000000  0.5636420000000  0.4367160000000 1.0
C      1  0.5471160000000  0.5666490000000  0.4464680000000 1.0
C      1  0.5500700000000  0.5159120000000  0.5794730000000 1.0
C      1  0.5389180000000  0.4248790000000  0.4685470000000 1.0
C      1  0.5641270000000  0.5378230000000  0.4400360000000 1.0
C      1  0.5640030000000  0.5420620000000  0.5625430000000 1.0
C      1  0.5542520000000  0.4316640000000  0.4942570000000 1.0
C      1  0.5375780000000  0.4232150000000  0.5615560000000 1.0
C      1  0.5388160000000  0.4821780000000  0.4064720000000 1.0
C      1  0.5188820000000  0.5934900000000  0.5144920000000 1.0
C      1  0.5485130000000  0.4551640000000  0.5415230000000 1.0
C      1  0.5421400000000  0.4899290000000  0.4450180000000 1.0
C      1  0.5423900000000  0.5621230000000  0.5214120000000 1.0
C      1  0.5254040000000  0.3973140000000  0.4602410000000 1.0
C      1  0.5298980000000  0.5889710000000  0.4274280000000 1.0
C      1  0.5278500000000  0.5071890000000  0.6046390000000 1.0
C      1  0.4194520000000  0.4567130000000  0.5882140000000 1.0
C      1  0.4319950000000  0.4650420000000  0.4152720000000 1.0
C      1  0.4255760000000  0.5964700000000  0.5026030000000 1.0
C      1  0.4750040000000  0.4784790000000  0.5720070000000 1.0
C      1  0.4768730000000  0.4460020000000  0.4414330000000 1.0
C      1  0.4722970000000  0.5842010000000  0.4733290000000 1.0
C      1  0.5636270000000  0.5078710000000  0.5325950000000 1.0
C      1  0.5592300000000  0.4655350000000  0.4944420000000 1.0
C      1  0.5663860000000  0.5281200000000  0.4725450000000 1.0
C      1  0.5614690000000  0.5676050000000  0.4975390000000 1.0
C      1  0.5677080000000  0.4684960000000  0.5637860000000 1.0
C      1  0.5615870000000  0.4651880000000  0.4464230000000 1.0
C      1  0.4751720000000  0.5321620000000  0.5580590000000 1.0
C      1  0.4727460000000  0.4482430000000  0.4952310000000 1.0
C      1  0.4757060000000  0.5302240000000  0.4549930000000 1.0
C      1  0.4803300000000  0.4478700000000  0.4092710000000 1.0
C      1  0.4709540000000  0.6135200000000  0.4880090000000 1.0
C      1  0.4726310000000  0.4441370000000  0.5798530000000 1.0
C      1  0.4334110000000  0.4246280000000  0.4581180000000 1.0
C      1  0.4368240000000  0.5624820000000  0.4537740000000 1.0
C      1  0.4453790000000  0.5087790000000  0.5781750000000 1.0
C      1  0.4336220000000  0.4557850000000  0.4964320000000 1.0
C      1  0.4306640000000  0.5186490000000  0.4804150000000 1.0
C      1  0.4368660000000  0.5112120000000  0.5282740000000 1.0
C      1  0.5087320000000  0.5632330000000  0.5262480000000 1.0
C      1  0.5170040000000  0.4423850000000  0.5418970000000 1.0
C      1  0.5082180000000  0.4874570000000  0.4453820000000 1.0
C      1  0.5016240000000  0.4972920000000  0.4139460000000 1.0
C      1  0.5008730000000  0.5800560000000  0.5550590000000 1.0
C      1  0.5116580000000  0.3873680000000  0.5260700000000 1.0
C      1  0.5055180000000  0.5857160000000  0.4695650000000 1.0
C      1  0.5002870000000  0.4566560000000  0.5655640000000 1.0
C      1  0.5092680000000  0.4535490000000  0.4485210000000 1.0
C      1  0.5486240000000  0.4819620000000  0.5821220000000 1.0
C      1  0.5471230000000  0.4402970000000  0.4431040000000 1.0
C      1  0.5496380000000  0.5814980000000  0.4771740000000 1.0
END
