TITL C-3289325-7307-393 -0.00101485741225971 125000 -562.889395299322 0 0 100 (C1) n - 1
REM
REM in /nfs/bkarasulu/CARBON/AIRSS/Generating-Clusters/AIREBO/with-SteepDescent/Higher-Symm/SD-CG/HFTN-CG
REM
REM
REM
REM
REM
REM ./C.cell (b20cbc046b6831c77cfcea5457e17084)
REM
REM compiler GCC version 9.2.1 20190827 (Red Hat 9.2.1-1)
REM options -cpp -mtune=generic -march=x86-64 -g -O0 -fpre-include=/usr/include/finclude/math-vector-fortran.h
REM seed -1682105985 -1304920426 1022097118 1647531419 -764524154 -124555331 2047296325 2131146273 -191785536 284809881 473048803 461302668 -1992789035 960925393 969944233 -410978953 1894176671 -793764764 -283101552 -581565158 -2052709490 -2104326658 -1876544444 -2068530945 1774973873 -1660439708 -296789802 999202680 -202337209 697779472 -803471081 541729597 -1573027025
REM
CELL 1.54180   50.00000   50.00000   50.00000   90.00000   90.00000   90.00000
LATT -1
SFAC C  
C      1  0.5070560000000  0.4923710000000  0.4120830000000 1.0
C      1  0.4922690000000  0.4236370000000  0.4469000000000 1.0
C      1  0.4729680000000  0.5075620000000  0.4973640000000 1.0
C      1  0.5529200000000  0.4932910000000  0.5228240000000 1.0
C      1  0.5431580000000  0.5330090000000  0.5531800000000 1.0
C      1  0.4148310000000  0.5241480000000  0.5287100000000 1.0
C      1  0.4385250000000  0.4680060000000  0.5617680000000 1.0
C      1  0.5544560000000  0.4693970000000  0.5548240000000 1.0
C      1  0.5715390000000  0.5215550000000  0.5193500000000 1.0
C      1  0.5611960000000  0.5448800000000  0.5322490000000 1.0
C      1  0.4109720000000  0.4539820000000  0.5131980000000 1.0
C      1  0.4970980000000  0.5359640000000  0.5715840000000 1.0
C      1  0.5080090000000  0.5922180000000  0.4905870000000 1.0
C      1  0.5267230000000  0.5076180000000  0.5376380000000 1.0
C      1  0.4729050000000  0.5013650000000  0.4665500000000 1.0
C      1  0.5347880000000  0.4648830000000  0.5274200000000 1.0
C      1  0.5414470000000  0.5657740000000  0.5175530000000 1.0
C      1  0.5469100000000  0.5144020000000  0.5780470000000 1.0
C      1  0.4365890000000  0.5355810000000  0.5440670000000 1.0
C      1  0.5364460000000  0.4244180000000  0.5411310000000 1.0
C      1  0.4564040000000  0.5339520000000  0.5021150000000 1.0
C      1  0.4280380000000  0.4798270000000  0.4481710000000 1.0
C      1  0.4354940000000  0.5005380000000  0.5551140000000 1.0
C      1  0.5270320000000  0.4503730000000  0.4985020000000 1.0
C      1  0.4343960000000  0.4512980000000  0.5342720000000 1.0
C      1  0.5150640000000  0.5446810000000  0.5136250000000 1.0
C      1  0.4817070000000  0.4743690000000  0.4772730000000 1.0
C      1  0.4564070000000  0.4320150000000  0.5247400000000 1.0
C      1  0.4851460000000  0.5041900000000  0.5696670000000 1.0
C      1  0.5701320000000  0.4481110000000  0.5084730000000 1.0
C      1  0.5238480000000  0.5834450000000  0.4691780000000 1.0
C      1  0.5382010000000  0.4439990000000  0.5612990000000 1.0
C      1  0.5602250000000  0.5346130000000  0.4726110000000 1.0
C      1  0.5013100000000  0.4589340000000  0.5277780000000 1.0
C      1  0.5776790000000  0.4827670000000  0.4379530000000 1.0
C      1  0.5592720000000  0.4665970000000  0.4816260000000 1.0
C      1  0.5295450000000  0.4792020000000  0.4259760000000 1.0
C      1  0.5004290000000  0.5141100000000  0.5163220000000 1.0
C      1  0.5484670000000  0.5227470000000  0.4453560000000 1.0
C      1  0.4574660000000  0.4512330000000  0.4739900000000 1.0
C      1  0.5047600000000  0.4697920000000  0.4450190000000 1.0
C      1  0.4923710000000  0.5686130000000  0.5052570000000 1.0
C      1  0.4612420000000  0.5189440000000  0.5587580000000 1.0
C      1  0.4474180000000  0.5613060000000  0.4626190000000 1.0
C      1  0.4841110000000  0.4317110000000  0.5386940000000 1.0
C      1  0.4857180000000  0.4518830000000  0.5637430000000 1.0
C      1  0.4752490000000  0.5541780000000  0.5742370000000 1.0
C      1  0.4512550000000  0.4997380000000  0.4418370000000 1.0
C      1  0.5836610000000  0.4769640000000  0.4643150000000 1.0
C      1  0.4669390000000  0.4889870000000  0.5220680000000 1.0
C      1  0.5523970000000  0.4937890000000  0.4328420000000 1.0
C      1  0.5451480000000  0.5632830000000  0.4843100000000 1.0
C      1  0.4909240000000  0.5478910000000  0.4675800000000 1.0
C      1  0.4844790000000  0.4810620000000  0.5474740000000 1.0
C      1  0.4688240000000  0.5574280000000  0.4864780000000 1.0
C      1  0.5101930000000  0.4121260000000  0.5397130000000 1.0
C      1  0.5893960000000  0.4916160000000  0.4896540000000 1.0
C      1  0.4806950000000  0.5260860000000  0.4477530000000 1.0
C      1  0.4580420000000  0.4569340000000  0.5781030000000 1.0
C      1  0.5429310000000  0.4930450000000  0.4906560000000 1.0
C      1  0.5143260000000  0.5110520000000  0.5862040000000 1.0
C      1  0.4733400000000  0.5303200000000  0.5299690000000 1.0
C      1  0.4579770000000  0.4271790000000  0.4966480000000 1.0
C      1  0.5809390000000  0.5190980000000  0.4923750000000 1.0
C      1  0.5210840000000  0.5419400000000  0.4743160000000 1.0
C      1  0.4748790000000  0.4793140000000  0.4318820000000 1.0
C      1  0.4873150000000  0.4537220000000  0.5007300000000 1.0
C      1  0.5165690000000  0.5443190000000  0.4146220000000 1.0
C      1  0.4568530000000  0.5548800000000  0.4337160000000 1.0
C      1  0.4873170000000  0.4270210000000  0.4863360000000 1.0
C      1  0.5177180000000  0.5146300000000  0.4573880000000 1.0
C      1  0.4874020000000  0.5535120000000  0.4284410000000 1.0
C      1  0.4174090000000  0.5011520000000  0.5046200000000 1.0
C      1  0.5072880000000  0.5703510000000  0.4502900000000 1.0
C      1  0.4411080000000  0.5288910000000  0.4405200000000 1.0
C      1  0.5147330000000  0.5444300000000  0.5476380000000 1.0
C      1  0.5108460000000  0.4998540000000  0.4872390000000 1.0
C      1  0.4632340000000  0.5571530000000  0.5475800000000 1.0
C      1  0.4831640000000  0.4808990000000  0.4000330000000 1.0
C      1  0.4812390000000  0.5793610000000  0.5330980000000 1.0
C      1  0.5420700000000  0.4412090000000  0.4684840000000 1.0
C      1  0.4695190000000  0.6072570000000  0.5338360000000 1.0
C      1  0.5206360000000  0.4890630000000  0.5625890000000 1.0
C      1  0.4157870000000  0.4720710000000  0.4934660000000 1.0
C      1  0.5385990000000  0.5261800000000  0.4974600000000 1.0
C      1  0.4365380000000  0.4843790000000  0.5257310000000 1.0
C      1  0.4302910000000  0.4649500000000  0.4708390000000 1.0
C      1  0.5808720000000  0.4761920000000  0.5137490000000 1.0
C      1  0.5596920000000  0.4907880000000  0.5720640000000 1.0
C      1  0.5150660000000  0.5767530000000  0.5370840000000 1.0
C      1  0.5037940000000  0.5174150000000  0.4268570000000 1.0
C      1  0.5531410000000  0.4276260000000  0.5182670000000 1.0
C      1  0.5373670000000  0.4184000000000  0.4932580000000 1.0
C      1  0.5137190000000  0.4219860000000  0.4708000000000 1.0
C      1  0.5153580000000  0.4618100000000  0.5661340000000 1.0
C      1  0.4289580000000  0.5270200000000  0.4915350000000 1.0
C      1  0.5144690000000  0.4690800000000  0.4760720000000 1.0
C      1  0.5432890000000  0.5444750000000  0.4227910000000 1.0
C      1  0.4775610000000  0.4490620000000  0.4467780000000 1.0
C      1  0.4257150000000  0.5387650000000  0.4663850000000 1.0
END
