TITL C-3289321-8710-166 -339.571707999964 125000 -774.23949215217 0 0 135 (C1) n - 1
REM
REM in /nfs/bkarasulu/CARBON/AIRSS/Generating-Clusters/AIREBO/with-SteepDescent/Higher-Symm/SD-CG/HFTN-CG
REM
REM
REM
REM
REM
REM ./C.cell (b20cbc046b6831c77cfcea5457e17084)
REM
REM compiler GCC version 9.2.1 20190827 (Red Hat 9.2.1-1)
REM options -cpp -mtune=generic -march=x86-64 -g -O0 -fpre-include=/usr/include/finclude/math-vector-fortran.h
REM seed -1490050829 1714159036 -1374747374 -1377558180 642957242 1637212365 -1805389369 -471980037 -915339164 1619196161 1039162802 972603130 551445849 163029076 -1175646707 -95709777 2005679149 -1262747376 434907647 -919127642 -1852790215 -109805204 -1269923715 -334910071 923588731 -646341947 -121563276 1381584742 -2076232913 -170562392 1026035190 11068733 -265776281
REM
CELL 1.54180   50.00000   50.00000   50.00000   90.00000   90.00000   90.00000
LATT -1
SFAC C  
C      1  0.3727120000000  0.5130220000000  0.5437660000000 1.0
C      1  0.3811280000000  0.4874610000000  0.5463150000000 1.0
C      1  0.3961520000000  0.4700470000000  0.5265270000000 1.0
C      1  0.3807730000000  0.4666210000000  0.4979620000000 1.0
C      1  0.3860240000000  0.4833600000000  0.4757500000000 1.0
C      1  0.3702590000000  0.5060680000000  0.4708400000000 1.0
C      1  0.3717720000000  0.5315430000000  0.4803660000000 1.0
C      1  0.3910400000000  0.5410870000000  0.5045400000000 1.0
C      1  0.3797100000000  0.5365770000000  0.5324250000000 1.0
C      1  0.4116460000000  0.5303840000000  0.4795410000000 1.0
C      1  0.4244870000000  0.5438610000000  0.5054480000000 1.0
C      1  0.4414320000000  0.5232550000000  0.5224210000000 1.0
C      1  0.4439520000000  0.4992730000000  0.5307750000000 1.0
C      1  0.4292530000000  0.4711410000000  0.5313640000000 1.0
C      1  0.4185700000000  0.4558810000000  0.5049900000000 1.0
C      1  0.4289270000000  0.4643390000000  0.4806070000000 1.0
C      1  0.4135290000000  0.4843860000000  0.4684840000000 1.0
C      1  0.4243160000000  0.5099930000000  0.4666150000000 1.0
C      1  0.5931280000000  0.4857940000000  0.5468300000000 1.0
C      1  0.5836900000000  0.4660360000000  0.5251490000000 1.0
C      1  0.5903750000000  0.4521360000000  0.4979130000000 1.0
C      1  0.5877610000000  0.4711910000000  0.4749110000000 1.0
C      1  0.5917670000000  0.4925340000000  0.4571560000000 1.0
C      1  0.5846170000000  0.5203450000000  0.4686680000000 1.0
C      1  0.5885500000000  0.5394040000000  0.4914890000000 1.0
C      1  0.5845160000000  0.5337380000000  0.5220490000000 1.0
C      1  0.5900100000000  0.5135760000000  0.5440570000000 1.0
C      1  0.5339210000000  0.4500260000000  0.5848100000000 1.0
C      1  0.5411670000000  0.4085730000000  0.5329040000000 1.0
C      1  0.5227110000000  0.4238900000000  0.4594800000000 1.0
C      1  0.5323890000000  0.4710220000000  0.4113040000000 1.0
C      1  0.5438210000000  0.5242810000000  0.4049770000000 1.0
C      1  0.5357280000000  0.5718290000000  0.4400650000000 1.0
C      1  0.5310450000000  0.5893890000000  0.4993270000000 1.0
C      1  0.5262490000000  0.5633980000000  0.5575170000000 1.0
C      1  0.5302840000000  0.5073370000000  0.5917220000000 1.0
C      1  0.5086880000000  0.4460090000000  0.5540720000000 1.0
C      1  0.5077850000000  0.4309770000000  0.4992190000000 1.0
C      1  0.5035370000000  0.4501000000000  0.4514880000000 1.0
C      1  0.5076110000000  0.4969660000000  0.4286350000000 1.0
C      1  0.4944150000000  0.5423540000000  0.4347670000000 1.0
C      1  0.5030780000000  0.5703010000000  0.4780910000000 1.0
C      1  0.5080930000000  0.5643570000000  0.5198350000000 1.0
C      1  0.5000730000000  0.5342520000000  0.5629120000000 1.0
C      1  0.5012390000000  0.4884800000000  0.5720440000000 1.0
C      1  0.4977990000000  0.4599260000000  0.5248940000000 1.0
C      1  0.5125780000000  0.4623630000000  0.4961330000000 1.0
C      1  0.4976890000000  0.4723200000000  0.4715400000000 1.0
C      1  0.5073930000000  0.4992930000000  0.4589410000000 1.0
C      1  0.4940290000000  0.5261610000000  0.4641100000000 1.0
C      1  0.5084730000000  0.5415770000000  0.4870610000000 1.0
C      1  0.4921730000000  0.5380110000000  0.5158270000000 1.0
C      1  0.4989150000000  0.5133510000000  0.5378620000000 1.0
C      1  0.5124480000000  0.4841140000000  0.5426240000000 1.0
C      1  0.4702050000000  0.4836130000000  0.4282350000000 1.0
C      1  0.4514210000000  0.5233180000000  0.4272020000000 1.0
C      1  0.4719650000000  0.5715010000000  0.4532020000000 1.0
C      1  0.4680480000000  0.5816940000000  0.5140950000000 1.0
C      1  0.4634610000000  0.5497510000000  0.5636740000000 1.0
C      1  0.4615340000000  0.4870310000000  0.5758960000000 1.0
C      1  0.4675710000000  0.4402630000000  0.5566970000000 1.0
C      1  0.4593910000000  0.4183970000000  0.5060110000000 1.0
C      1  0.4668590000000  0.4363680000000  0.4582170000000 1.0
C      1  0.5380680000000  0.4930240000000  0.3930580000000 1.0
C      1  0.5400570000000  0.5572590000000  0.4117100000000 1.0
C      1  0.5375060000000  0.5918060000000  0.4675520000000 1.0
C      1  0.5275540000000  0.5866060000000  0.5331420000000 1.0
C      1  0.5282520000000  0.5398930000000  0.5820190000000 1.0
C      1  0.5353980000000  0.4763380000000  0.6005330000000 1.0
C      1  0.5375980000000  0.4286220000000  0.5583080000000 1.0
C      1  0.5364090000000  0.4180040000000  0.5020270000000 1.0
C      1  0.5280010000000  0.4433800000000  0.4310130000000 1.0
C      1  0.4690960000000  0.5834950000000  0.5436990000000 1.0
C      1  0.4684580000000  0.5303340000000  0.5870420000000 1.0
C      1  0.4723120000000  0.4645490000000  0.5880510000000 1.0
C      1  0.4809700000000  0.4184160000000  0.5458430000000 1.0
C      1  0.4667920000000  0.4052930000000  0.4827740000000 1.0
C      1  0.4781160000000  0.4446940000000  0.4303450000000 1.0
C      1  0.4832700000000  0.5081070000000  0.4086000000000 1.0
C      1  0.4670210000000  0.5456660000000  0.4232110000000 1.0
C      1  0.4631300000000  0.5971200000000  0.4681180000000 1.0
C      1  0.5527440000000  0.4979690000000  0.5706670000000 1.0
C      1  0.5640620000000  0.4466850000000  0.5694620000000 1.0
C      1  0.5697460000000  0.4194950000000  0.5240230000000 1.0
C      1  0.5530670000000  0.4219560000000  0.4750320000000 1.0
C      1  0.5502300000000  0.4755160000000  0.4377150000000 1.0
C      1  0.5691620000000  0.5179230000000  0.4225770000000 1.0
C      1  0.5546660000000  0.5550790000000  0.4588690000000 1.0
C      1  0.5557810000000  0.5722650000000  0.5089420000000 1.0
C      1  0.5524070000000  0.5442130000000  0.5509430000000 1.0
C      1  0.5548920000000  0.4449230000000  0.4502870000000 1.0
C      1  0.5756240000000  0.4920690000000  0.4327490000000 1.0
C      1  0.5749260000000  0.5373830000000  0.4422930000000 1.0
C      1  0.5713700000000  0.5612890000000  0.4846900000000 1.0
C      1  0.5726090000000  0.5628760000000  0.5349210000000 1.0
C      1  0.5692940000000  0.5224640000000  0.5628360000000 1.0
C      1  0.5757340000000  0.4758910000000  0.5691110000000 1.0
C      1  0.5784530000000  0.4398690000000  0.5416800000000 1.0
C      1  0.5762510000000  0.4267580000000  0.4973550000000 1.0
C      1  0.4935080000000  0.4182210000000  0.4734390000000 1.0
C      1  0.4990900000000  0.4673080000000  0.4160010000000 1.0
C      1  0.5125070000000  0.5254180000000  0.4133550000000 1.0
C      1  0.5054130000000  0.5702990000000  0.4471310000000 1.0
C      1  0.4971470000000  0.5903860000000  0.5017750000000 1.0
C      1  0.4927330000000  0.5661440000000  0.5566510000000 1.0
C      1  0.4979300000000  0.5160350000000  0.5884820000000 1.0
C      1  0.5023790000000  0.4592640000000  0.5830990000000 1.0
C      1  0.5094940000000  0.4210460000000  0.5311520000000 1.0
C      1  0.4717310000000  0.4943380000000  0.5457370000000 1.0
C      1  0.4600600000000  0.4633740000000  0.5372890000000 1.0
C      1  0.4694670000000  0.4508030000000  0.5083560000000 1.0
C      1  0.4591610000000  0.4601420000000  0.4773090000000 1.0
C      1  0.4693570000000  0.4872700000000  0.4600800000000 1.0
C      1  0.4523200000000  0.5150450000000  0.4571160000000 1.0
C      1  0.4654670000000  0.5432650000000  0.4710910000000 1.0
C      1  0.4561490000000  0.5533110000000  0.5007530000000 1.0
C      1  0.4645830000000  0.5422220000000  0.5318390000000 1.0
C      1  0.5546530000000  0.4759890000000  0.5209490000000 1.0
C      1  0.5423680000000  0.4683620000000  0.4976780000000 1.0
C      1  0.5585420000000  0.4626600000000  0.4762790000000 1.0
C      1  0.5381470000000  0.4986240000000  0.4549470000000 1.0
C      1  0.5523520000000  0.5160580000000  0.4673400000000 1.0
C      1  0.5388730000000  0.5380030000000  0.4840720000000 1.0
C      1  0.5522490000000  0.5385350000000  0.5114380000000 1.0
C      1  0.5291340000000  0.5279200000000  0.5322330000000 1.0
C      1  0.5416910000000  0.4849290000000  0.5433980000000 1.0
C      1  0.4606120000000  0.6033940000000  0.4920980000000 1.0
C      1  0.4466160000000  0.5792880000000  0.5638050000000 1.0
C      1  0.4510460000000  0.5092710000000  0.5892660000000 1.0
C      1  0.4566400000000  0.4399250000000  0.5843830000000 1.0
C      1  0.4632590000000  0.4040450000000  0.5296760000000 1.0
C      1  0.4485830000000  0.4077120000000  0.4594880000000 1.0
C      1  0.4577090000000  0.4594670000000  0.4114450000000 1.0
C      1  0.4497280000000  0.5067750000000  0.4031680000000 1.0
C      1  0.4563920000000  0.5722770000000  0.4241330000000 1.0
END
