TITL C-3289325-7307-682 0.000441189019222745 125000 -696.145237803345 0 0 129 (C1) n - 1
REM
REM in /nfs/bkarasulu/CARBON/AIRSS/Generating-Clusters/AIREBO/with-SteepDescent/Higher-Symm/SD-CG/HFTN-CG
REM
REM
REM
REM
REM
REM ./C.cell (b20cbc046b6831c77cfcea5457e17084)
REM
REM compiler GCC version 9.2.1 20190827 (Red Hat 9.2.1-1)
REM options -cpp -mtune=generic -march=x86-64 -g -O0 -fpre-include=/usr/include/finclude/math-vector-fortran.h
REM seed -434275761 -396734798 1238457114 1172288605 -2070280211 125767068 1677022133 -1915727431 -1689446742 -369869039 -575713499 297518839 -233256992 -1821554555 499105458 2008748343 1622425275 -2133275301 2116207597 -1259284717 -731593264 -2045274154 -1667065847 1521885348 1132800367 1496553448 -1647207063 -2124331163 1450942818 -718196237 -1349634617 418005910 337176771
REM
CELL 1.54180   50.00000   50.00000   50.00000   90.00000   90.00000   90.00000
LATT -1
SFAC C  
C      1  0.6035960000000  0.4912410000000  0.4715960000000 1.0
C      1  0.4501150000000  0.4169870000000  0.4755200000000 1.0
C      1  0.4592350000000  0.5910820000000  0.4757870000000 1.0
C      1  0.5991240000000  0.4833160000000  0.5234800000000 1.0
C      1  0.4369740000000  0.4243710000000  0.5223100000000 1.0
C      1  0.4519870000000  0.5809220000000  0.5207720000000 1.0
C      1  0.3928510000000  0.4919070000000  0.4743140000000 1.0
C      1  0.5597360000000  0.4145270000000  0.4767230000000 1.0
C      1  0.5341390000000  0.5957840000000  0.4773350000000 1.0
C      1  0.4032390000000  0.4800680000000  0.5292270000000 1.0
C      1  0.5491200000000  0.4113360000000  0.5270430000000 1.0
C      1  0.5466640000000  0.5919140000000  0.5279340000000 1.0
C      1  0.4852560000000  0.4268640000000  0.5107900000000 1.0
C      1  0.4402150000000  0.5501400000000  0.5126120000000 1.0
C      1  0.5819320000000  0.5109460000000  0.5149070000000 1.0
C      1  0.4773880000000  0.4226600000000  0.4796340000000 1.0
C      1  0.4476180000000  0.5595040000000  0.4807080000000 1.0
C      1  0.5815220000000  0.5123120000000  0.4811200000000 1.0
C      1  0.5188680000000  0.4235980000000  0.5175330000000 1.0
C      1  0.5559270000000  0.5648930000000  0.5147030000000 1.0
C      1  0.4228430000000  0.5213180000000  0.5100940000000 1.0
C      1  0.5293040000000  0.4234860000000  0.4847360000000 1.0
C      1  0.5517620000000  0.5671460000000  0.4825360000000 1.0
C      1  0.4139770000000  0.5164290000000  0.4786420000000 1.0
C      1  0.5182180000000  0.4317430000000  0.5505750000000 1.0
C      1  0.4287920000000  0.5273330000000  0.5432570000000 1.0
C      1  0.5536900000000  0.5469130000000  0.5430960000000 1.0
C      1  0.5185740000000  0.4297740000000  0.4530140000000 1.0
C      1  0.4282730000000  0.5224290000000  0.4487360000000 1.0
C      1  0.5544840000000  0.5494300000000  0.4535640000000 1.0
C      1  0.4881220000000  0.4270060000000  0.5448050000000 1.0
C      1  0.5718420000000  0.5221310000000  0.5449000000000 1.0
C      1  0.4501090000000  0.5498430000000  0.5451900000000 1.0
C      1  0.4899520000000  0.4386420000000  0.4544820000000 1.0
C      1  0.5600600000000  0.5191060000000  0.4553970000000 1.0
C      1  0.4506750000000  0.5422220000000  0.4514640000000 1.0
C      1  0.4342390000000  0.4991070000000  0.4322270000000 1.0
C      1  0.5329940000000  0.5558410000000  0.4352660000000 1.0
C      1  0.5333660000000  0.4439870000000  0.4304610000000 1.0
C      1  0.4330860000000  0.5065400000000  0.5623470000000 1.0
C      1  0.5413280000000  0.5621760000000  0.5712540000000 1.0
C      1  0.5394080000000  0.4383940000000  0.5763460000000 1.0
C      1  0.5629610000000  0.4990780000000  0.4280220000000 1.0
C      1  0.4695880000000  0.5569210000000  0.4273150000000 1.0
C      1  0.4685640000000  0.4460270000000  0.4291040000000 1.0
C      1  0.5647310000000  0.5019000000000  0.5638260000000 1.0
C      1  0.4656170000000  0.5657710000000  0.5710190000000 1.0
C      1  0.4717930000000  0.4417940000000  0.5631200000000 1.0
C      1  0.5434700000000  0.4981550000000  0.5881030000000 1.0
C      1  0.4742460000000  0.4691160000000  0.5832480000000 1.0
C      1  0.4872890000000  0.5426570000000  0.5833620000000 1.0
C      1  0.5440510000000  0.4953750000000  0.4077380000000 1.0
C      1  0.4743880000000  0.4654180000000  0.4093910000000 1.0
C      1  0.4843910000000  0.5404190000000  0.4099410000000 1.0
C      1  0.4546650000000  0.4968160000000  0.5867920000000 1.0
C      1  0.5281160000000  0.4679890000000  0.5892200000000 1.0
C      1  0.5174010000000  0.5427080000000  0.5855730000000 1.0
C      1  0.4606180000000  0.4948500000000  0.4141310000000 1.0
C      1  0.5264990000000  0.4667980000000  0.4082600000000 1.0
C      1  0.5157720000000  0.5366640000000  0.4164460000000 1.0
C      1  0.4898030000000  0.4765130000000  0.5550690000000 1.0
C      1  0.4764920000000  0.5316790000000  0.5542670000000 1.0
C      1  0.5255230000000  0.4950840000000  0.5599870000000 1.0
C      1  0.4937990000000  0.4714840000000  0.4465220000000 1.0
C      1  0.4777860000000  0.5238990000000  0.4479520000000 1.0
C      1  0.5295650000000  0.5055380000000  0.4488190000000 1.0
C      1  0.5167830000000  0.4638270000000  0.5575750000000 1.0
C      1  0.5325220000000  0.5266690000000  0.5598270000000 1.0
C      1  0.4727850000000  0.5022470000000  0.5611490000000 1.0
C      1  0.5185850000000  0.4813870000000  0.4351020000000 1.0
C      1  0.5078590000000  0.5271540000000  0.4471830000000 1.0
C      1  0.4717150000000  0.4935410000000  0.4447990000000 1.0
C      1  0.4823600000000  0.5968760000000  0.5177840000000 1.0
C      1  0.5941900000000  0.4586440000000  0.5118410000000 1.0
C      1  0.4159170000000  0.4343460000000  0.5074490000000 1.0
C      1  0.4803600000000  0.6042030000000  0.4870700000000 1.0
C      1  0.5898210000000  0.4618160000000  0.4802370000000 1.0
C      1  0.4268100000000  0.4402360000000  0.4782030000000 1.0
C      1  0.5149780000000  0.5936550000000  0.5214570000000 1.0
C      1  0.3979190000000  0.4579090000000  0.5139380000000 1.0
C      1  0.5702000000000  0.4355600000000  0.5187570000000 1.0
C      1  0.5114830000000  0.6034500000000  0.4913930000000 1.0
C      1  0.4050670000000  0.4648970000000  0.4844000000000 1.0
C      1  0.5789690000000  0.4309480000000  0.4882090000000 1.0
C      1  0.4449680000000  0.4504510000000  0.4444390000000 1.0
C      1  0.4845450000000  0.5700400000000  0.4481200000000 1.0
C      1  0.5695930000000  0.4757740000000  0.4429710000000 1.0
C      1  0.4460450000000  0.4530780000000  0.5531480000000 1.0
C      1  0.4902650000000  0.5691570000000  0.5535990000000 1.0
C      1  0.5676200000000  0.4756820000000  0.5520120000000 1.0
C      1  0.5504710000000  0.4548930000000  0.4503500000000 1.0
C      1  0.5125920000000  0.5715030000000  0.4484250000000 1.0
C      1  0.4321930000000  0.4764530000000  0.4482020000000 1.0
C      1  0.5543380000000  0.4510560000000  0.5530410000000 1.0
C      1  0.5174000000000  0.5656910000000  0.5529080000000 1.0
C      1  0.4337810000000  0.4769880000000  0.5544990000000 1.0
C      1  0.5222920000000  0.5576760000000  0.4756450000000 1.0
C      1  0.5380420000000  0.4541530000000  0.4779740000000 1.0
C      1  0.4323580000000  0.4878250000000  0.4786100000000 1.0
C      1  0.5229080000000  0.5604550000000  0.5214970000000 1.0
C      1  0.5397950000000  0.4502990000000  0.5226670000000 1.0
C      1  0.4344350000000  0.4927090000000  0.5243520000000 1.0
C      1  0.4791580000000  0.5564290000000  0.4752680000000 1.0
C      1  0.4566010000000  0.4563910000000  0.4754250000000 1.0
C      1  0.5644960000000  0.4838540000000  0.4740280000000 1.0
C      1  0.4809960000000  0.5634340000000  0.5238370000000 1.0
C      1  0.4615950000000  0.4477980000000  0.5233750000000 1.0
C      1  0.5586630000000  0.4904140000000  0.5245150000000 1.0
C      1  0.4841370000000  0.4731790000000  0.4767970000000 1.0
C      1  0.4808100000000  0.5250880000000  0.4876440000000 1.0
C      1  0.5335830000000  0.4972540000000  0.4786850000000 1.0
C      1  0.4843270000000  0.4715990000000  0.5254050000000 1.0
C      1  0.4832870000000  0.5296140000000  0.5210140000000 1.0
C      1  0.5289420000000  0.5025520000000  0.5282050000000 1.0
C      1  0.5138400000000  0.4740140000000  0.4875000000000 1.0
C      1  0.5141350000000  0.5250730000000  0.4808420000000 1.0
C      1  0.4639560000000  0.5005720000000  0.4771540000000 1.0
C      1  0.5153960000000  0.4735940000000  0.5180960000000 1.0
C      1  0.5167870000000  0.5275040000000  0.5155670000000 1.0
C      1  0.4674850000000  0.4999120000000  0.5281810000000 1.0
C      1  0.5313840000000  0.5174930000000  0.3985160000000 1.0
C      1  0.4978800000000  0.4636980000000  0.3953320000000 1.0
C      1  0.4990520000000  0.4667550000000  0.6033680000000 1.0
C      1  0.4700340000000  0.5218130000000  0.6015730000000 1.0
C      1  0.4714960000000  0.5191660000000  0.3987840000000 1.0
C      1  0.5329070000000  0.5217850000000  0.6046060000000 1.0
C      1  0.5000980000000  0.5655740000000  0.4967910000000 1.0
C      1  0.4423030000000  0.4669750000000  0.5035700000000 1.0
C      1  0.5569540000000  0.4691990000000  0.5018960000000 1.0
END
