TITL C-3289323-3850-530 -0.000117451646484861 125000 -592.229950395613 0 0 109 (C1) n - 1
REM
REM in /nfs/bkarasulu/CARBON/AIRSS/Generating-Clusters/AIREBO/with-SteepDescent/Higher-Symm/SD-CG/HFTN-CG
REM
REM
REM
REM
REM
REM ./C.cell (b20cbc046b6831c77cfcea5457e17084)
REM
REM compiler GCC version 9.2.1 20190827 (Red Hat 9.2.1-1)
REM options -cpp -mtune=generic -march=x86-64 -g -O0 -fpre-include=/usr/include/finclude/math-vector-fortran.h
REM seed -1466937111 1188271717 163735985 -2018746950 -1763390748 -98370184 381446562 -1822294833 2049336411 -70304659 946911098 1947795252 287631369 738592907 1155867210 -226551367 -922153926 -677721636 -1868387112 -2100174868 977287442 -1709057280 -1472425600 -421671272 1558834825 -950121764 -1278273928 -2124801615 999263645 683191980 1252166427 -1019851953 -1528342155
REM
CELL 1.54180   50.00000   50.00000   50.00000   90.00000   90.00000   90.00000
LATT -1
SFAC C  
C      1  0.5190800000000  0.5693290000000  0.4436310000000 1.0
C      1  0.5362260000000  0.5529960000000  0.4940100000000 1.0
C      1  0.5107140000000  0.5619630000000  0.5441130000000 1.0
C      1  0.4566990000000  0.5604200000000  0.5313190000000 1.0
C      1  0.4722640000000  0.5439430000000  0.4810680000000 1.0
C      1  0.5527100000000  0.4472310000000  0.5376300000000 1.0
C      1  0.4797310000000  0.4520780000000  0.5745990000000 1.0
C      1  0.4276240000000  0.4605970000000  0.5228900000000 1.0
C      1  0.4651040000000  0.4474990000000  0.4373830000000 1.0
C      1  0.5416850000000  0.4591640000000  0.4468830000000 1.0
C      1  0.4666580000000  0.5210700000000  0.5685700000000 1.0
C      1  0.4333860000000  0.5071730000000  0.4923460000000 1.0
C      1  0.4851680000000  0.5180200000000  0.4173880000000 1.0
C      1  0.5687420000000  0.5270000000000  0.4637460000000 1.0
C      1  0.5599840000000  0.5207810000000  0.5549520000000 1.0
C      1  0.5196680000000  0.5033880000000  0.4380700000000 1.0
C      1  0.5658940000000  0.4891910000000  0.5037180000000 1.0
C      1  0.4954810000000  0.5098260000000  0.5541930000000 1.0
C      1  0.4564300000000  0.5019130000000  0.5350980000000 1.0
C      1  0.4588590000000  0.4925040000000  0.4629960000000 1.0
C      1  0.5359670000000  0.4493470000000  0.5659370000000 1.0
C      1  0.4532970000000  0.4354080000000  0.5630220000000 1.0
C      1  0.4194890000000  0.4357140000000  0.4548840000000 1.0
C      1  0.5163920000000  0.4417650000000  0.4155650000000 1.0
C      1  0.5685060000000  0.4395890000000  0.4937410000000 1.0
C      1  0.5668600000000  0.4707980000000  0.5525880000000 1.0
C      1  0.4740010000000  0.4763990000000  0.5922680000000 1.0
C      1  0.4157610000000  0.4716700000000  0.5008130000000 1.0
C      1  0.4675120000000  0.4708620000000  0.4213900000000 1.0
C      1  0.5639570000000  0.4793190000000  0.4509690000000 1.0
C      1  0.4461580000000  0.4640730000000  0.5498720000000 1.0
C      1  0.4420990000000  0.4511420000000  0.4589520000000 1.0
C      1  0.5216860000000  0.4718350000000  0.4248380000000 1.0
C      1  0.5696520000000  0.4596400000000  0.5133410000000 1.0
C      1  0.5095920000000  0.4550290000000  0.5634400000000 1.0
C      1  0.5378250000000  0.4249910000000  0.5219670000000 1.0
C      1  0.4846550000000  0.4253410000000  0.5541730000000 1.0
C      1  0.4587630000000  0.4098130000000  0.5002210000000 1.0
C      1  0.4832800000000  0.4284400000000  0.4474110000000 1.0
C      1  0.5315890000000  0.4297040000000  0.4585880000000 1.0
C      1  0.5159210000000  0.5267730000000  0.4878350000000 1.0
C      1  0.5383280000000  0.5241870000000  0.5216120000000 1.0
C      1  0.4880480000000  0.5522720000000  0.5209470000000 1.0
C      1  0.4632940000000  0.5170520000000  0.4957170000000 1.0
C      1  0.5090530000000  0.5454830000000  0.4656970000000 1.0
C      1  0.4606390000000  0.4580800000000  0.5204430000000 1.0
C      1  0.4712120000000  0.4570500000000  0.4755760000000 1.0
C      1  0.5250740000000  0.4662620000000  0.4727910000000 1.0
C      1  0.5284900000000  0.4598460000000  0.5055190000000 1.0
C      1  0.5029930000000  0.4643890000000  0.5353420000000 1.0
C      1  0.5201060000000  0.5798790000000  0.4950750000000 1.0
C      1  0.5099590000000  0.5857310000000  0.5213620000000 1.0
C      1  0.4773800000000  0.5894120000000  0.5306470000000 1.0
C      1  0.4805470000000  0.5761000000000  0.4737050000000 1.0
C      1  0.5068600000000  0.5848290000000  0.4695870000000 1.0
C      1  0.6052750000000  0.5184550000000  0.4975060000000 1.0
C      1  0.5355520000000  0.5342340000000  0.5950830000000 1.0
C      1  0.4277970000000  0.5130200000000  0.5507700000000 1.0
C      1  0.4266840000000  0.5221040000000  0.4429160000000 1.0
C      1  0.5264050000000  0.5293830000000  0.3936550000000 1.0
C      1  0.5446320000000  0.5529950000000  0.5250150000000 1.0
C      1  0.4896600000000  0.5663840000000  0.5675900000000 1.0
C      1  0.4375070000000  0.5706350000000  0.5051350000000 1.0
C      1  0.4814480000000  0.5427300000000  0.4483530000000 1.0
C      1  0.5497540000000  0.5698090000000  0.4497610000000 1.0
C      1  0.4436750000000  0.5622010000000  0.4786380000000 1.0
C      1  0.5079680000000  0.5418980000000  0.4268310000000 1.0
C      1  0.5560970000000  0.5529590000000  0.4709840000000 1.0
C      1  0.5352200000000  0.5437020000000  0.5562620000000 1.0
C      1  0.4655610000000  0.5528890000000  0.5624680000000 1.0
C      1  0.4576600000000  0.4883420000000  0.5662620000000 1.0
C      1  0.4363280000000  0.4764130000000  0.4781500000000 1.0
C      1  0.4931410000000  0.4872330000000  0.4285830000000 1.0
C      1  0.5534650000000  0.4986490000000  0.4748530000000 1.0
C      1  0.5487350000000  0.4924490000000  0.5451970000000 1.0
C      1  0.5083970000000  0.4310120000000  0.5315280000000 1.0
C      1  0.4695150000000  0.4287950000000  0.5237460000000 1.0
C      1  0.4765780000000  0.4204460000000  0.4753120000000 1.0
C      1  0.5101360000000  0.4258510000000  0.4387240000000 1.0
C      1  0.5371780000000  0.4316330000000  0.4886190000000 1.0
C      1  0.5585420000000  0.5298310000000  0.5855950000000 1.0
C      1  0.4343630000000  0.5201010000000  0.5792040000000 1.0
C      1  0.4170680000000  0.5083190000000  0.4640590000000 1.0
C      1  0.5013470000000  0.5261510000000  0.3906900000000 1.0
C      1  0.5985230000000  0.5261650000000  0.4722960000000 1.0
C      1  0.4861590000000  0.5198020000000  0.5963930000000 1.0
C      1  0.4146900000000  0.5158510000000  0.5194030000000 1.0
C      1  0.4538470000000  0.5252030000000  0.4223390000000 1.0
C      1  0.5650440000000  0.5207610000000  0.4330960000000 1.0
C      1  0.5873830000000  0.5091780000000  0.5437190000000 1.0
C      1  0.5338260000000  0.4922010000000  0.5146270000000 1.0
C      1  0.5020090000000  0.4964040000000  0.5258930000000 1.0
C      1  0.4735730000000  0.4875720000000  0.5094720000000 1.0
C      1  0.4880650000000  0.4864320000000  0.4787150000000 1.0
C      1  0.5195740000000  0.4989970000000  0.4718630000000 1.0
C      1  0.4830860000000  0.4956970000000  0.6086440000000 1.0
C      1  0.3986430000000  0.4924110000000  0.5053440000000 1.0
C      1  0.4545730000000  0.4946700000000  0.4347580000000 1.0
C      1  0.5742290000000  0.4945960000000  0.4306390000000 1.0
C      1  0.5923200000000  0.4834170000000  0.5569650000000 1.0
C      1  0.4432300000000  0.5319840000000  0.5272950000000 1.0
C      1  0.4484340000000  0.5443310000000  0.4499250000000 1.0
C      1  0.5371570000000  0.5247440000000  0.4236360000000 1.0
C      1  0.5873900000000  0.5074700000000  0.5156790000000 1.0
C      1  0.5102000000000  0.5305970000000  0.5752240000000 1.0
C      1  0.4939230000000  0.5244710000000  0.5084810000000 1.0
C      1  0.4959210000000  0.4227670000000  0.5031770000000 1.0
C      1  0.5011480000000  0.4496940000000  0.4871340000000 1.0
C      1  0.4765010000000  0.5777210000000  0.5015690000000 1.0
END
