TITL C-3289323-3850-347 -0.00109023635881735 125000 -389.204727272051 0 0 67 (C1) n - 1
REM
REM in /nfs/bkarasulu/CARBON/AIRSS/Generating-Clusters/AIREBO/with-SteepDescent/Higher-Symm/SD-CG/HFTN-CG
REM
REM
REM
REM
REM
REM ./C.cell (b20cbc046b6831c77cfcea5457e17084)
REM
REM compiler GCC version 9.2.1 20190827 (Red Hat 9.2.1-1)
REM options -cpp -mtune=generic -march=x86-64 -g -O0 -fpre-include=/usr/include/finclude/math-vector-fortran.h
REM seed 1396170593 1585997349 -1949566917 629825790 -1646418281 1919965421 -1542903337 -1532456215 456251740 1843599220 -329960704 1662131259 -960830456 129927639 -807046909 -1467652043 1271678785 -488109444 400735504 -1029518281 1622286615 -763785263 -605211673 1519443478 460046659 -1683699020 1566640207 898643357 -255824852 -1549634790 1299782143 -1067011208 1432016982
REM
CELL 1.54180   50.00000   50.00000   50.00000   90.00000   90.00000   90.00000
LATT -1
SFAC C  
C      1  0.5006500000000  0.5257470000000  0.4749970000000 1.0
C      1  0.4741190000000  0.4838440000000  0.4744010000000 1.0
C      1  0.5275030000000  0.4862440000000  0.4667610000000 1.0
C      1  0.4994160000000  0.4707200000000  0.4622070000000 1.0
C      1  0.4740400000000  0.5136120000000  0.4697300000000 1.0
C      1  0.5284370000000  0.5152530000000  0.4680590000000 1.0
C      1  0.5005030000000  0.5492560000000  0.4937120000000 1.0
C      1  0.4546770000000  0.4741740000000  0.4958190000000 1.0
C      1  0.5402790000000  0.4734840000000  0.4900260000000 1.0
C      1  0.4945700000000  0.4517670000000  0.4859760000000 1.0
C      1  0.4559880000000  0.5239150000000  0.4925030000000 1.0
C      1  0.5465920000000  0.5221310000000  0.4939280000000 1.0
C      1  0.5292490000000  0.5300430000000  0.5723790000000 1.0
C      1  0.4527670000000  0.5130730000000  0.5727600000000 1.0
C      1  0.5092380000000  0.4623410000000  0.5703810000000 1.0
C      1  0.5323850000000  0.4715260000000  0.5689470000000 1.0
C      1  0.4550840000000  0.4882040000000  0.5745450000000 1.0
C      1  0.5059440000000  0.5389350000000  0.5716570000000 1.0
C      1  0.5052650000000  0.4868890000000  0.4336720000000 1.0
C      1  0.5417090000000  0.5302870000000  0.4425010000000 1.0
C      1  0.4640080000000  0.5175680000000  0.4391090000000 1.0
C      1  0.5122340000000  0.5365290000000  0.4383770000000 1.0
C      1  0.5329890000000  0.4685030000000  0.4410300000000 1.0
C      1  0.4392730000000  0.4955070000000  0.4371570000000 1.0
C      1  0.4383590000000  0.5300330000000  0.4571710000000 1.0
C      1  0.5082870000000  0.4231510000000  0.4813180000000 1.0
C      1  0.5594190000000  0.5495630000000  0.4522410000000 1.0
C      1  0.4245230000000  0.4856880000000  0.4548700000000 1.0
C      1  0.5082850000000  0.5601090000000  0.4560310000000 1.0
C      1  0.5500710000000  0.4482560000000  0.4493260000000 1.0
C      1  0.5016320000000  0.5288940000000  0.5186840000000 1.0
C      1  0.4723190000000  0.4834330000000  0.5227630000000 1.0
C      1  0.5266090000000  0.4813690000000  0.5155200000000 1.0
C      1  0.4995600000000  0.4680320000000  0.5154210000000 1.0
C      1  0.4728300000000  0.5142800000000  0.5198680000000 1.0
C      1  0.5280330000000  0.5137980000000  0.5196130000000 1.0
C      1  0.5527080000000  0.4441950000000  0.4827870000000 1.0
C      1  0.5243520000000  0.5684060000000  0.4848410000000 1.0
C      1  0.4258410000000  0.4843430000000  0.4870280000000 1.0
C      1  0.5525110000000  0.5527410000000  0.4823080000000 1.0
C      1  0.5324470000000  0.4220870000000  0.4942110000000 1.0
C      1  0.4246780000000  0.5169160000000  0.4833140000000 1.0
C      1  0.5443600000000  0.5185510000000  0.5489130000000 1.0
C      1  0.4592270000000  0.5304270000000  0.5498460000000 1.0
C      1  0.4906180000000  0.4572300000000  0.5467090000000 1.0
C      1  0.5428730000000  0.4867850000000  0.5448850000000 1.0
C      1  0.4614530000000  0.4694260000000  0.5517810000000 1.0
C      1  0.4884040000000  0.5413200000000  0.5467840000000 1.0
C      1  0.5833400000000  0.4894000000000  0.5179670000000 1.0
C      1  0.4756600000000  0.5668000000000  0.5064640000000 1.0
C      1  0.4547020000000  0.4442620000000  0.5103710000000 1.0
C      1  0.5750460000000  0.5153840000000  0.5106630000000 1.0
C      1  0.4807490000000  0.4334620000000  0.5083830000000 1.0
C      1  0.4520190000000  0.5529030000000  0.5066760000000 1.0
C      1  0.5535350000000  0.4470750000000  0.5166900000000 1.0
C      1  0.5219590000000  0.5706230000000  0.5197730000000 1.0
C      1  0.4241580000000  0.4816830000000  0.5205100000000 1.0
C      1  0.5483860000000  0.5565310000000  0.5144350000000 1.0
C      1  0.5281040000000  0.4273360000000  0.5241180000000 1.0
C      1  0.4257550000000  0.5121390000000  0.5156960000000 1.0
C      1  0.4956800000000  0.5670530000000  0.5290300000000 1.0
C      1  0.4400920000000  0.4612040000000  0.5306560000000 1.0
C      1  0.5634300000000  0.4708780000000  0.5270330000000 1.0
C      1  0.4998120000000  0.4309960000000  0.5303080000000 1.0
C      1  0.4391830000000  0.5343770000000  0.5272130000000 1.0
C      1  0.5609290000000  0.5357130000000  0.5285570000000 1.0
C      1  0.4954750000000  0.5136850000000  0.4334290000000 1.0
END
