TITL C-3289320-4661-172 -0.00467029846180179 125000 -740.647038506228 0 0 134 (C1) n - 1
REM
REM in /nfs/bkarasulu/CARBON/AIRSS/Generating-Clusters/AIREBO/with-SteepDescent/Higher-Symm/SD-CG/HFTN-CG
REM
REM
REM
REM
REM
REM ./C.cell (b20cbc046b6831c77cfcea5457e17084)
REM
REM compiler GCC version 9.2.1 20190827 (Red Hat 9.2.1-1)
REM options -cpp -mtune=generic -march=x86-64 -g -O0 -fpre-include=/usr/include/finclude/math-vector-fortran.h
REM seed -1159493056 -827560405 -1910827700 2135240651 -1934286502 78872896 -467426560 94269481 -380189791 165068088 1484490042 763072963 -353950646 1429499087 1725940513 1736738822 30087222 39159521 377735382 -2055968588 -91455059 46365254 -1244538879 -1616675110 -1683035583 -2138649789 1842913352 1163305670 66530151 1872499692 -780940358 475792872 968855481
REM
CELL 1.54180   50.00000   50.00000   50.00000   90.00000   90.00000   90.00000
LATT -1
SFAC C  
C      1  0.5527270000000  0.6070560000000  0.5235580000000 1.0
C      1  0.4533300000000  0.4032860000000  0.4623840000000 1.0
C      1  0.4996970000000  0.5621020000000  0.5720800000000 1.0
C      1  0.5167150000000  0.4475740000000  0.4329750000000 1.0
C      1  0.4609930000000  0.5156070000000  0.4103270000000 1.0
C      1  0.5376370000000  0.4846230000000  0.5843190000000 1.0
C      1  0.5818780000000  0.4672780000000  0.4668000000000 1.0
C      1  0.4153750000000  0.5313480000000  0.5315180000000 1.0
C      1  0.4200100000000  0.5935620000000  0.5017620000000 1.0
C      1  0.5517420000000  0.4059600000000  0.4763160000000 1.0
C      1  0.4243460000000  0.5160050000000  0.4479240000000 1.0
C      1  0.5771800000000  0.4882270000000  0.5526660000000 1.0
C      1  0.5070400000000  0.5304930000000  0.5039390000000 1.0
C      1  0.4966400000000  0.4730300000000  0.4996640000000 1.0
C      1  0.4666800000000  0.5690110000000  0.4360480000000 1.0
C      1  0.5340210000000  0.4308500000000  0.5655130000000 1.0
C      1  0.5688640000000  0.4876220000000  0.5258180000000 1.0
C      1  0.4437700000000  0.5088180000000  0.4735540000000 1.0
C      1  0.5130930000000  0.4616180000000  0.5511310000000 1.0
C      1  0.4819660000000  0.5246050000000  0.4486270000000 1.0
C      1  0.5145940000000  0.4691670000000  0.5799210000000 1.0
C      1  0.4862330000000  0.5264210000000  0.4198750000000 1.0
C      1  0.4630390000000  0.4491730000000  0.4334430000000 1.0
C      1  0.5416350000000  0.5548540000000  0.5509580000000 1.0
C      1  0.4307350000000  0.4382240000000  0.5239560000000 1.0
C      1  0.5549990000000  0.5644120000000  0.4718360000000 1.0
C      1  0.4875930000000  0.4425450000000  0.4762510000000 1.0
C      1  0.5287870000000  0.5774080000000  0.5347660000000 1.0
C      1  0.5920960000000  0.4934080000000  0.4720810000000 1.0
C      1  0.4111400000000  0.5057330000000  0.5168780000000 1.0
C      1  0.5156640000000  0.5354690000000  0.5423490000000 1.0
C      1  0.4811840000000  0.4685680000000  0.4546960000000 1.0
C      1  0.5057680000000  0.5164270000000  0.5659380000000 1.0
C      1  0.4869360000000  0.4792040000000  0.4228950000000 1.0
C      1  0.5321030000000  0.4296110000000  0.4647120000000 1.0
C      1  0.4622710000000  0.5556460000000  0.5370270000000 1.0
C      1  0.5185980000000  0.4512180000000  0.4872320000000 1.0
C      1  0.4911570000000  0.5500880000000  0.5237040000000 1.0
C      1  0.5795130000000  0.5152510000000  0.4588670000000 1.0
C      1  0.4318260000000  0.4963810000000  0.5416460000000 1.0
C      1  0.5341600000000  0.4163230000000  0.5022800000000 1.0
C      1  0.4513120000000  0.5853530000000  0.5040450000000 1.0
C      1  0.4381340000000  0.5475080000000  0.5175020000000 1.0
C      1  0.5682570000000  0.4558380000000  0.4877610000000 1.0
C      1  0.6008980000000  0.4662970000000  0.5151440000000 1.0
C      1  0.3929900000000  0.5299300000000  0.4735520000000 1.0
C      1  0.4389440000000  0.5287030000000  0.4229070000000 1.0
C      1  0.5598570000000  0.4737840000000  0.5701180000000 1.0
C      1  0.5434550000000  0.5168590000000  0.4139550000000 1.0
C      1  0.4608880000000  0.4899340000000  0.5900300000000 1.0
C      1  0.5434520000000  0.4992270000000  0.4820850000000 1.0
C      1  0.4805750000000  0.5041280000000  0.5230490000000 1.0
C      1  0.4337030000000  0.5340820000000  0.5548050000000 1.0
C      1  0.5662320000000  0.4627840000000  0.4425230000000 1.0
C      1  0.5126040000000  0.4073720000000  0.5243400000000 1.0
C      1  0.4714580000000  0.5829520000000  0.4794660000000 1.0
C      1  0.4726060000000  0.3895520000000  0.5453190000000 1.0
C      1  0.4841120000000  0.5924360000000  0.4428320000000 1.0
C      1  0.5094020000000  0.4893710000000  0.5334700000000 1.0
C      1  0.4940000000000  0.4990570000000  0.4626500000000 1.0
C      1  0.5610180000000  0.5116870000000  0.4350760000000 1.0
C      1  0.4397310000000  0.4932550000000  0.5734350000000 1.0
C      1  0.5959120000000  0.5091680000000  0.5548760000000 1.0
C      1  0.4151090000000  0.4850990000000  0.4602770000000 1.0
C      1  0.4782700000000  0.5538860000000  0.4642080000000 1.0
C      1  0.5103720000000  0.4299250000000  0.5439540000000 1.0
C      1  0.4740000000000  0.4629170000000  0.5163360000000 1.0
C      1  0.5357250000000  0.5487280000000  0.5030810000000 1.0
C      1  0.5252230000000  0.5483460000000  0.5788230000000 1.0
C      1  0.4889150000000  0.4394800000000  0.4187270000000 1.0
C      1  0.5375110000000  0.4927220000000  0.5145540000000 1.0
C      1  0.4949420000000  0.5033920000000  0.4929740000000 1.0
C      1  0.4645100000000  0.4434420000000  0.5634660000000 1.0
C      1  0.5234370000000  0.5628420000000  0.4301290000000 1.0
C      1  0.4744460000000  0.5409420000000  0.5636250000000 1.0
C      1  0.5220670000000  0.4800710000000  0.4415630000000 1.0
C      1  0.4840930000000  0.5783870000000  0.5093900000000 1.0
C      1  0.5009380000000  0.4166210000000  0.4939900000000 1.0
C      1  0.4414850000000  0.4676920000000  0.4148290000000 1.0
C      1  0.5616810000000  0.5332410000000  0.5850340000000 1.0
C      1  0.5600470000000  0.4478330000000  0.5305110000000 1.0
C      1  0.4548610000000  0.5374980000000  0.4796870000000 1.0
C      1  0.4624080000000  0.4875620000000  0.4107660000000 1.0
C      1  0.5331660000000  0.5156620000000  0.5858020000000 1.0
C      1  0.5670670000000  0.5345840000000  0.4790010000000 1.0
C      1  0.4365000000000  0.4671830000000  0.5291230000000 1.0
C      1  0.5336030000000  0.5307370000000  0.4742930000000 1.0
C      1  0.4641370000000  0.4736230000000  0.5470710000000 1.0
C      1  0.5115390000000  0.5899300000000  0.5082580000000 1.0
C      1  0.4721790000000  0.4015600000000  0.4906310000000 1.0
C      1  0.4316420000000  0.4521560000000  0.4411140000000 1.0
C      1  0.5676440000000  0.5446800000000  0.5601480000000 1.0
C      1  0.4602180000000  0.4176280000000  0.5409950000000 1.0
C      1  0.5126000000000  0.5855740000000  0.4516610000000 1.0
C      1  0.4956250000000  0.3842460000000  0.5358540000000 1.0
C      1  0.4712820000000  0.6106640000000  0.4614500000000 1.0
C      1  0.4278670000000  0.5633120000000  0.4936550000000 1.0
C      1  0.5670530000000  0.4249130000000  0.4988120000000 1.0
C      1  0.4124730000000  0.5065770000000  0.4865060000000 1.0
C      1  0.5909210000000  0.4964730000000  0.5029910000000 1.0
C      1  0.4873760000000  0.5291680000000  0.5906530000000 1.0
C      1  0.5139530000000  0.4800570000000  0.4101700000000 1.0
C      1  0.5543390000000  0.4485650000000  0.5580530000000 1.0
C      1  0.4441620000000  0.5567560000000  0.4247520000000 1.0
C      1  0.4545940000000  0.4341410000000  0.4766150000000 1.0
C      1  0.5498140000000  0.5793490000000  0.5078450000000 1.0
C      1  0.4621530000000  0.5272040000000  0.5089090000000 1.0
C      1  0.5415140000000  0.4600670000000  0.5067680000000 1.0
C      1  0.5337630000000  0.4955780000000  0.3970420000000 1.0
C      1  0.4723940000000  0.5112620000000  0.6046250000000 1.0
C      1  0.4474390000000  0.4663780000000  0.4985280000000 1.0
C      1  0.5738260000000  0.5252370000000  0.5110650000000 1.0
C      1  0.5871900000000  0.4427050000000  0.5199250000000 1.0
C      1  0.4222790000000  0.5421210000000  0.4710010000000 1.0
C      1  0.5203060000000  0.5134550000000  0.4481840000000 1.0
C      1  0.4879900000000  0.4909440000000  0.5598370000000 1.0
C      1  0.4807800000000  0.4665900000000  0.5824560000000 1.0
C      1  0.5178400000000  0.5338070000000  0.4215230000000 1.0
C      1  0.4827970000000  0.4403080000000  0.5362250000000 1.0
C      1  0.5120720000000  0.5527980000000  0.4606900000000 1.0
C      1  0.5848530000000  0.5322940000000  0.5424500000000 1.0
C      1  0.4294070000000  0.4565630000000  0.4720270000000 1.0
C      1  0.5505540000000  0.4881930000000  0.4536010000000 1.0
C      1  0.4595280000000  0.5154540000000  0.5467750000000 1.0
C      1  0.5297360000000  0.5821680000000  0.4805500000000 1.0
C      1  0.4514440000000  0.4219550000000  0.5083910000000 1.0
C      1  0.5486380000000  0.4417290000000  0.4389650000000 1.0
C      1  0.4406380000000  0.5619160000000  0.5625070000000 1.0
C      1  0.5210380000000  0.6105160000000  0.5343570000000 1.0
C      1  0.4859170000000  0.4042800000000  0.4592320000000 1.0
C      1  0.5060610000000  0.5873070000000  0.5580470000000 1.0
C      1  0.5058120000000  0.4191360000000  0.4482720000000 1.0
C      1  0.4582190000000  0.4838350000000  0.4745870000000 1.0
C      1  0.5427410000000  0.5245550000000  0.5249110000000 1.0
END
