TITL C-3289332-8317-354 0.000299325529828423 125000 -596.164624030464 0 0 112 (C1) n - 1
REM
REM in /nfs/bkarasulu/CARBON/AIRSS/Generating-Clusters/AIREBO/with-SteepDescent/Higher-Symm/SD-CG/HFTN-CG
REM
REM
REM
REM
REM
REM ./C.cell (b20cbc046b6831c77cfcea5457e17084)
REM
REM compiler GCC version 9.2.1 20190827 (Red Hat 9.2.1-1)
REM options -cpp -mtune=generic -march=x86-64 -g -O0 -fpre-include=/usr/include/finclude/math-vector-fortran.h
REM seed 613466388 1003612010 140182877 1384715684 1570877163 659934739 -1636545642 1519779041 -1730403946 -521427043 -1885045273 646131348 -854251271 -1186227888 950300817 1066404990 -1909623848 1469391774 1508192775 -593166713 766697391 262842672 1230584393 638470337 836599220 1732992587 -1783536173 -1644819571 -304584055 -1399802494 -200164646 1702126708 1879198699
REM
CELL 1.54180   50.00000   50.00000   50.00000   90.00000   90.00000   90.00000
LATT -1
SFAC C  
C      1  0.5425800000000  0.5400880000000  0.5393400000000 1.0
C      1  0.5841140000000  0.4998620000000  0.4979940000000 1.0
C      1  0.5476510000000  0.5113860000000  0.5252500000000 1.0
C      1  0.4850470000000  0.4995300000000  0.5664100000000 1.0
C      1  0.4668530000000  0.4800420000000  0.5316870000000 1.0
C      1  0.4783470000000  0.4662870000000  0.5690060000000 1.0
C      1  0.5227010000000  0.4468030000000  0.4359400000000 1.0
C      1  0.4974680000000  0.5257790000000  0.4110790000000 1.0
C      1  0.4308160000000  0.5112750000000  0.4890140000000 1.0
C      1  0.5466550000000  0.5876620000000  0.5206810000000 1.0
C      1  0.5268920000000  0.4916160000000  0.5150220000000 1.0
C      1  0.4370110000000  0.4914670000000  0.5647280000000 1.0
C      1  0.5102000000000  0.5366560000000  0.5372000000000 1.0
C      1  0.5040370000000  0.4170090000000  0.5348450000000 1.0
C      1  0.4633780000000  0.5229510000000  0.5664550000000 1.0
C      1  0.4739870000000  0.4781540000000  0.4403670000000 1.0
C      1  0.4943060000000  0.4505220000000  0.5059270000000 1.0
C      1  0.5131380000000  0.4792150000000  0.4686950000000 1.0
C      1  0.5491900000000  0.4293540000000  0.4481900000000 1.0
C      1  0.4227430000000  0.5243070000000  0.5326230000000 1.0
C      1  0.5780710000000  0.5239050000000  0.5479450000000 1.0
C      1  0.4736150000000  0.5079200000000  0.4568100000000 1.0
C      1  0.4249520000000  0.4602040000000  0.4825080000000 1.0
C      1  0.4692300000000  0.5757160000000  0.4884950000000 1.0
C      1  0.5590210000000  0.5148650000000  0.4811720000000 1.0
C      1  0.5814590000000  0.5169450000000  0.4557110000000 1.0
C      1  0.5155280000000  0.5421690000000  0.5052280000000 1.0
C      1  0.4445890000000  0.4973260000000  0.4617740000000 1.0
C      1  0.5191190000000  0.4887600000000  0.4397850000000 1.0
C      1  0.5500000000000  0.4651260000000  0.4308950000000 1.0
C      1  0.4717660000000  0.5274440000000  0.4320160000000 1.0
C      1  0.4982840000000  0.5817150000000  0.5261520000000 1.0
C      1  0.5005580000000  0.4759730000000  0.5297900000000 1.0
C      1  0.5673760000000  0.4738250000000  0.4545940000000 1.0
C      1  0.5216110000000  0.5919010000000  0.5042420000000 1.0
C      1  0.4756340000000  0.4254090000000  0.5368220000000 1.0
C      1  0.5108000000000  0.4694310000000  0.5615930000000 1.0
C      1  0.5224890000000  0.5415190000000  0.4255610000000 1.0
C      1  0.5110650000000  0.4144110000000  0.5077840000000 1.0
C      1  0.5524380000000  0.4285410000000  0.5357140000000 1.0
C      1  0.4851630000000  0.4211760000000  0.4908220000000 1.0
C      1  0.5616630000000  0.5482110000000  0.4873000000000 1.0
C      1  0.4941960000000  0.5088100000000  0.5360440000000 1.0
C      1  0.5071150000000  0.5025420000000  0.5882130000000 1.0
C      1  0.4718290000000  0.5180210000000  0.5127920000000 1.0
C      1  0.5218490000000  0.5754400000000  0.4744850000000 1.0
C      1  0.5454890000000  0.4837490000000  0.4786500000000 1.0
C      1  0.5217190000000  0.4417650000000  0.5706160000000 1.0
C      1  0.4365470000000  0.4681940000000  0.5322580000000 1.0
C      1  0.4949690000000  0.5626120000000  0.5025720000000 1.0
C      1  0.5259620000000  0.4238100000000  0.5507400000000 1.0
C      1  0.4969130000000  0.4601720000000  0.4228130000000 1.0
C      1  0.4748130000000  0.4764690000000  0.4992740000000 1.0
C      1  0.5651440000000  0.4357450000000  0.4663960000000 1.0
C      1  0.4939410000000  0.5497210000000  0.4366480000000 1.0
C      1  0.5493960000000  0.5552180000000  0.4386370000000 1.0
C      1  0.5315340000000  0.4961490000000  0.5654310000000 1.0
C      1  0.4017180000000  0.4783930000000  0.4994050000000 1.0
C      1  0.5775810000000  0.4475670000000  0.5212220000000 1.0
C      1  0.5114240000000  0.5016690000000  0.4893990000000 1.0
C      1  0.4412600000000  0.4814520000000  0.5016070000000 1.0
C      1  0.4443200000000  0.5183280000000  0.4241270000000 1.0
C      1  0.5274030000000  0.5268090000000  0.4773120000000 1.0
C      1  0.4367870000000  0.4482050000000  0.5507520000000 1.0
C      1  0.4336250000000  0.5739150000000  0.5304000000000 1.0
C      1  0.5745520000000  0.5127230000000  0.4318740000000 1.0
C      1  0.5607860000000  0.4589790000000  0.5483580000000 1.0
C      1  0.4559930000000  0.4463650000000  0.4811730000000 1.0
C      1  0.4551090000000  0.5490260000000  0.5662320000000 1.0
C      1  0.5497780000000  0.5648460000000  0.4667160000000 1.0
C      1  0.5517080000000  0.5234640000000  0.5675670000000 1.0
C      1  0.5766070000000  0.5048920000000  0.5247410000000 1.0
C      1  0.4447010000000  0.5343200000000  0.5098050000000 1.0
C      1  0.4640030000000  0.4411280000000  0.5571310000000 1.0
C      1  0.3971270000000  0.5091760000000  0.4883770000000 1.0
C      1  0.4644210000000  0.4299700000000  0.4551610000000 1.0
C      1  0.4956720000000  0.4946360000000  0.4199900000000 1.0
C      1  0.4529910000000  0.4812900000000  0.5818730000000 1.0
C      1  0.4871960000000  0.4092280000000  0.4604410000000 1.0
C      1  0.5043140000000  0.5491510000000  0.4661730000000 1.0
C      1  0.5413900000000  0.4644220000000  0.5226410000000 1.0
C      1  0.4928250000000  0.5992560000000  0.4876960000000 1.0
C      1  0.4458410000000  0.5647760000000  0.5075860000000 1.0
C      1  0.5478430000000  0.4967950000000  0.4285070000000 1.0
C      1  0.4392720000000  0.4623790000000  0.4285390000000 1.0
C      1  0.4661980000000  0.4465680000000  0.4304310000000 1.0
C      1  0.5299560000000  0.5259650000000  0.5914240000000 1.0
C      1  0.5904750000000  0.4773720000000  0.4786880000000 1.0
C      1  0.4626880000000  0.5471870000000  0.4760080000000 1.0
C      1  0.4833190000000  0.4628440000000  0.4692930000000 1.0
C      1  0.4465720000000  0.4910010000000  0.4223390000000 1.0
C      1  0.5078610000000  0.6036370000000  0.4612410000000 1.0
C      1  0.4872220000000  0.5247000000000  0.4830240000000 1.0
C      1  0.5196690000000  0.4396050000000  0.4866250000000 1.0
C      1  0.5603280000000  0.5570810000000  0.5158180000000 1.0
C      1  0.4322180000000  0.5524880000000  0.5494310000000 1.0
C      1  0.4771530000000  0.5665800000000  0.5672470000000 1.0
C      1  0.4520270000000  0.5083880000000  0.5393410000000 1.0
C      1  0.5384560000000  0.5233090000000  0.4453410000000 1.0
C      1  0.4615660000000  0.4280410000000  0.5096680000000 1.0
C      1  0.5822440000000  0.5493720000000  0.5381210000000 1.0
C      1  0.5495710000000  0.4724900000000  0.5722050000000 1.0
C      1  0.4969880000000  0.5636170000000  0.5476820000000 1.0
C      1  0.5430880000000  0.4379450000000  0.5042710000000 1.0
C      1  0.4996960000000  0.4903680000000  0.6148340000000 1.0
C      1  0.5656270000000  0.4587640000000  0.4914200000000 1.0
C      1  0.4029250000000  0.5055420000000  0.5199330000000 1.0
C      1  0.4272930000000  0.5331030000000  0.4415180000000 1.0
C      1  0.5040290000000  0.4376160000000  0.4597530000000 1.0
C      1  0.4374350000000  0.5365040000000  0.4677070000000 1.0
C      1  0.5435840000000  0.5732070000000  0.5480800000000 1.0
C      1  0.4326040000000  0.4726710000000  0.4550200000000 1.0
END
