TITL C-3289329-2751-170 -2.98459424146935e-05 125000 -180.923150364343 0 0 32 (C1) n - 1
REM
REM in /nfs/bkarasulu/CARBON/AIRSS/Generating-Clusters/AIREBO/with-SteepDescent/Higher-Symm/SD-CG/HFTN-CG
REM
REM
REM
REM
REM
REM ./C.cell (b20cbc046b6831c77cfcea5457e17084)
REM
REM compiler GCC version 9.2.1 20190827 (Red Hat 9.2.1-1)
REM options -cpp -mtune=generic -march=x86-64 -g -O0 -fpre-include=/usr/include/finclude/math-vector-fortran.h
REM seed -259189118 -1056232788 -710838568 -1276562150 -1585291490 -1626765771 -1147585636 1268076377 -479751267 -1913669757 1338027496 183160713 -894367882 185957848 980762042 -1174698427 -1610563859 -1912991420 -1002076280 560676567 -888422940 -1025818239 554957142 -505806406 1611555712 -1869088382 -1891811481 1363703692 32863539 1345953639 116975442 -483675406 2106262820
REM
CELL 1.54180   50.00000   50.00000   50.00000   90.00000   90.00000   90.00000
LATT -1
SFAC C  
C      1  0.4419840000000  0.5417250000000  0.5256500000000 1.0
C      1  0.5635070000000  0.4728790000000  0.5368520000000 1.0
C      1  0.5437100000000  0.5161650000000  0.5552300000000 1.0
C      1  0.4949060000000  0.4561170000000  0.4586890000000 1.0
C      1  0.4925540000000  0.5595030000000  0.4739090000000 1.0
C      1  0.4679020000000  0.4570520000000  0.4680360000000 1.0
C      1  0.4230550000000  0.5390050000000  0.4796800000000 1.0
C      1  0.5602310000000  0.4263090000000  0.5193100000000 1.0
C      1  0.5651360000000  0.5551220000000  0.5329140000000 1.0
C      1  0.5584200000000  0.5720470000000  0.5112270000000 1.0
C      1  0.4244030000000  0.5203150000000  0.4584310000000 1.0
C      1  0.5454390000000  0.4136030000000  0.4987540000000 1.0
C      1  0.5446250000000  0.5348110000000  0.5360370000000 1.0
C      1  0.4395540000000  0.5298690000000  0.5017670000000 1.0
C      1  0.5531230000000  0.4544310000000  0.5204650000000 1.0
C      1  0.5093000000000  0.4799270000000  0.4654470000000 1.0
C      1  0.4847480000000  0.5385420000000  0.4901260000000 1.0
C      1  0.4666450000000  0.4606180000000  0.4964220000000 1.0
C      1  0.4483540000000  0.4732650000000  0.4552320000000 1.0
C      1  0.5109890000000  0.4331770000000  0.4636780000000 1.0
C      1  0.5158350000000  0.5729130000000  0.4802960000000 1.0
C      1  0.5284380000000  0.4330670000000  0.4859200000000 1.0
C      1  0.5334470000000  0.5632430000000  0.4998580000000 1.0
C      1  0.4416240000000  0.4984770000000  0.4661220000000 1.0
C      1  0.5175900000000  0.4806220000000  0.4925840000000 1.0
C      1  0.5027330000000  0.5252680000000  0.5072380000000 1.0
C      1  0.4703320000000  0.4875760000000  0.5044690000000 1.0
C      1  0.5252850000000  0.5393490000000  0.5150540000000 1.0
C      1  0.4517480000000  0.5052130000000  0.4931880000000 1.0
C      1  0.5331100000000  0.4586430000000  0.5001810000000 1.0
C      1  0.5042470000000  0.4889280000000  0.5391060000000 1.0
C      1  0.4990620000000  0.4956110000000  0.5119280000000 1.0
END
