TITL C-3289334-2237-202 0.00102544872935853 125000 -681.01625233409 0 0 125 (C1) n - 1
REM
REM in /nfs/bkarasulu/CARBON/AIRSS/Generating-Clusters/AIREBO/with-SteepDescent/Higher-Symm/SD-CG/HFTN-CG
REM
REM
REM
REM
REM
REM ./C.cell (b20cbc046b6831c77cfcea5457e17084)
REM
REM compiler GCC version 9.2.1 20190827 (Red Hat 9.2.1-1)
REM options -cpp -mtune=generic -march=x86-64 -g -O0 -fpre-include=/usr/include/finclude/math-vector-fortran.h
REM seed -422178396 537673122 -649886987 1297502507 -432198655 -899646819 1504995874 -887333016 -970734280 -634108274 -1356628873 1539146592 -940416220 1007633157 -1328283425 2059099426 1568439345 -424426669 1583514173 173259171 1339744763 -1048720848 -861623362 -174247074 -328791064 2004406097 1561221056 -1587144020 -1105378234 -1660841942 -1636104000 2110295514 1653554220
REM
CELL 1.54180   50.00000   50.00000   50.00000   90.00000   90.00000   90.00000
LATT -1
SFAC C  
C      1  0.4522480000000  0.4394030000000  0.5596270000000 1.0
C      1  0.5749340000000  0.4844020000000  0.5652630000000 1.0
C      1  0.4810110000000  0.5697390000000  0.5645650000000 1.0
C      1  0.4578920000000  0.4438310000000  0.4291860000000 1.0
C      1  0.5671140000000  0.4907420000000  0.4333990000000 1.0
C      1  0.4764240000000  0.5605160000000  0.4322700000000 1.0
C      1  0.4576460000000  0.5109190000000  0.4272730000000 1.0
C      1  0.5105120000000  0.4551600000000  0.4267580000000 1.0
C      1  0.5332890000000  0.5307790000000  0.4246790000000 1.0
C      1  0.4426490000000  0.5067820000000  0.5715440000000 1.0
C      1  0.5227300000000  0.4366410000000  0.5728190000000 1.0
C      1  0.5423890000000  0.5567900000000  0.5704290000000 1.0
C      1  0.5319300000000  0.5382450000000  0.5194520000000 1.0
C      1  0.4542620000000  0.5063300000000  0.5154780000000 1.0
C      1  0.5148240000000  0.4585410000000  0.5185770000000 1.0
C      1  0.5343150000000  0.5350270000000  0.4857280000000 1.0
C      1  0.4461080000000  0.5070710000000  0.4841250000000 1.0
C      1  0.5158630000000  0.4508440000000  0.4851650000000 1.0
C      1  0.4661980000000  0.4377460000000  0.4722330000000 1.0
C      1  0.5619220000000  0.5065880000000  0.4796410000000 1.0
C      1  0.4635130000000  0.5532490000000  0.4781150000000 1.0
C      1  0.4757620000000  0.4491740000000  0.5286950000000 1.0
C      1  0.5620770000000  0.5055910000000  0.5339770000000 1.0
C      1  0.4607040000000  0.5647110000000  0.5278670000000 1.0
C      1  0.4804710000000  0.4673360000000  0.5556300000000 1.0
C      1  0.5420050000000  0.5066980000000  0.5621030000000 1.0
C      1  0.4800990000000  0.5257910000000  0.5610090000000 1.0
C      1  0.4827850000000  0.4617050000000  0.4547060000000 1.0
C      1  0.5364360000000  0.5073580000000  0.4567720000000 1.0
C      1  0.4768560000000  0.5281390000000  0.4575670000000 1.0
C      1  0.5055270000000  0.5336470000000  0.4052460000000 1.0
C      1  0.4713640000000  0.4871140000000  0.4068440000000 1.0
C      1  0.5289240000000  0.4767770000000  0.4080390000000 1.0
C      1  0.5217690000000  0.5519670000000  0.5892830000000 1.0
C      1  0.4639440000000  0.4909820000000  0.5831960000000 1.0
C      1  0.5400900000000  0.4579400000000  0.5916630000000 1.0
C      1  0.4199880000000  0.4932460000000  0.5554740000000 1.0
C      1  0.5491710000000  0.4371290000000  0.5513520000000 1.0
C      1  0.5313350000000  0.5707570000000  0.5468810000000 1.0
C      1  0.4268360000000  0.4994210000000  0.4376460000000 1.0
C      1  0.5374060000000  0.4380820000000  0.4400070000000 1.0
C      1  0.5354330000000  0.5620740000000  0.4386650000000 1.0
C      1  0.5757860000000  0.5631840000000  0.4867300000000 1.0
C      1  0.4104150000000  0.5371090000000  0.4876920000000 1.0
C      1  0.5127070000000  0.4040910000000  0.4843630000000 1.0
C      1  0.5754490000000  0.5622620000000  0.5173310000000 1.0
C      1  0.4140740000000  0.5368520000000  0.5183350000000 1.0
C      1  0.5186530000000  0.4075460000000  0.5136020000000 1.0
C      1  0.5103860000000  0.5842200000000  0.4791850000000 1.0
C      1  0.4189950000000  0.4664250000000  0.4797640000000 1.0
C      1  0.5688290000000  0.4494150000000  0.4823130000000 1.0
C      1  0.5081860000000  0.5872830000000  0.5075830000000 1.0
C      1  0.4205600000000  0.4665380000000  0.5096920000000 1.0
C      1  0.5712730000000  0.4512620000000  0.5107800000000 1.0
C      1  0.4667030000000  0.4154700000000  0.4308970000000 1.0
C      1  0.5870910000000  0.5126570000000  0.4326050000000 1.0
C      1  0.4475310000000  0.5678150000000  0.4316710000000 1.0
C      1  0.4719960000000  0.4193780000000  0.5619280000000 1.0
C      1  0.5842910000000  0.5102590000000  0.5668870000000 1.0
C      1  0.4538280000000  0.5653430000000  0.5672110000000 1.0
C      1  0.5495030000000  0.4069740000000  0.5145550000000 1.0
C      1  0.5577800000000  0.5880160000000  0.5117910000000 1.0
C      1  0.3976410000000  0.5101760000000  0.5136690000000 1.0
C      1  0.5440270000000  0.4063050000000  0.4830070000000 1.0
C      1  0.5593650000000  0.5883460000000  0.4797380000000 1.0
C      1  0.3943510000000  0.5107920000000  0.4816000000000 1.0
C      1  0.4075770000000  0.4872530000000  0.5267420000000 1.0
C      1  0.5619700000000  0.4284620000000  0.5281170000000 1.0
C      1  0.5326900000000  0.5870700000000  0.5246830000000 1.0
C      1  0.4078950000000  0.4913780000000  0.4648630000000 1.0
C      1  0.5549860000000  0.4274040000000  0.4671670000000 1.0
C      1  0.5356520000000  0.5833660000000  0.4644800000000 1.0
C      1  0.5638740000000  0.5397890000000  0.4747730000000 1.0
C      1  0.4366540000000  0.5337950000000  0.4750750000000 1.0
C      1  0.4990950000000  0.4284310000000  0.4747150000000 1.0
C      1  0.5609060000000  0.5393950000000  0.5304600000000 1.0
C      1  0.4436510000000  0.5352620000000  0.5284290000000 1.0
C      1  0.5036560000000  0.4297850000000  0.5269670000000 1.0
C      1  0.5072210000000  0.4826440000000  0.4783150000000 1.0
C      1  0.5063150000000  0.5162270000000  0.4846930000000 1.0
C      1  0.4775060000000  0.4981590000000  0.4840010000000 1.0
C      1  0.5254140000000  0.4843950000000  0.5045420000000 1.0
C      1  0.5005810000000  0.5364310000000  0.5065710000000 1.0
C      1  0.4739050000000  0.4782650000000  0.5111700000000 1.0
C      1  0.4803160000000  0.5346770000000  0.4182680000000 1.0
C      1  0.4787780000000  0.4596140000000  0.4152110000000 1.0
C      1  0.5428760000000  0.4986940000000  0.4183280000000 1.0
C      1  0.4953880000000  0.5493850000000  0.5802190000000 1.0
C      1  0.4569630000000  0.4614030000000  0.5794680000000 1.0
C      1  0.5500280000000  0.4806790000000  0.5821160000000 1.0
C      1  0.4421060000000  0.4531670000000  0.5315330000000 1.0
C      1  0.5630200000000  0.4717060000000  0.5367780000000 1.0
C      1  0.4934900000000  0.5713840000000  0.5339460000000 1.0
C      1  0.4412730000000  0.4549250000000  0.4567460000000 1.0
C      1  0.5654940000000  0.4770660000000  0.4631500000000 1.0
C      1  0.4897740000000  0.5664520000000  0.4610890000000 1.0
C      1  0.5925680000000  0.5047800000000  0.5194570000000 1.0
C      1  0.4467160000000  0.5864760000000  0.5103070000000 1.0
C      1  0.4608350000000  0.4206440000000  0.5177390000000 1.0
C      1  0.5922520000000  0.5040560000000  0.4938780000000 1.0
C      1  0.4486170000000  0.5818340000000  0.4851490000000 1.0
C      1  0.4574790000000  0.4144010000000  0.4933720000000 1.0
C      1  0.5078290000000  0.5217470000000  0.4453330000000 1.0
C      1  0.4771880000000  0.4949670000000  0.4500840000000 1.0
C      1  0.5156520000000  0.4825690000000  0.4462210000000 1.0
C      1  0.5127780000000  0.5171330000000  0.5646920000000 1.0
C      1  0.4759230000000  0.4979720000000  0.5458140000000 1.0
C      1  0.5094640000000  0.4675850000000  0.5680470000000 1.0
C      1  0.5110740000000  0.5440090000000  0.5439060000000 1.0
C      1  0.4456070000000  0.4843820000000  0.5385560000000 1.0
C      1  0.5310340000000  0.4636580000000  0.5447400000000 1.0
C      1  0.5165210000000  0.5484310000000  0.4626270000000 1.0
C      1  0.4468110000000  0.4860250000000  0.4591910000000 1.0
C      1  0.5374900000000  0.4626430000000  0.4616860000000 1.0
C      1  0.5606670000000  0.5281920000000  0.4451540000000 1.0
C      1  0.4465870000000  0.5377770000000  0.4454340000000 1.0
C      1  0.4929670000000  0.4312810000000  0.4434320000000 1.0
C      1  0.5617490000000  0.5335980000000  0.5624760000000 1.0
C      1  0.4487070000000  0.5350700000000  0.5603260000000 1.0
C      1  0.4979620000000  0.4252450000000  0.5569340000000 1.0
C      1  0.5461860000000  0.5007140000000  0.5066410000000 1.0
C      1  0.4764030000000  0.5478800000000  0.5065300000000 1.0
C      1  0.4569800000000  0.4593680000000  0.4950100000000 1.0
C      1  0.4976080000000  0.4989490000000  0.4231770000000 1.0
C      1  0.4936240000000  0.4945360000000  0.5814240000000 1.0
END
