TITL C-3289335-9438-461 -0.000494278354031696 125000 -816.056747965825 0 0 155 (C1) n - 1
REM
REM in /nfs/bkarasulu/CARBON/AIRSS/Generating-Clusters/AIREBO/with-SteepDescent/Higher-Symm/SD-CG/HFTN-CG
REM
REM
REM
REM
REM
REM ./C.cell (b20cbc046b6831c77cfcea5457e17084)
REM
REM compiler GCC version 9.2.1 20190827 (Red Hat 9.2.1-1)
REM options -cpp -mtune=generic -march=x86-64 -g -O0 -fpre-include=/usr/include/finclude/math-vector-fortran.h
REM seed -415095612 1956126615 -1257567464 10897717 -1381937650 -1285537218 1713970349 123274335 2132257369 1758765076 759340763 -1499760854 475077513 1622322572 -591395221 -1953540620 541615148 139817471 453224678 -2127301551 1407869020 -1160632962 1922430034 142687822 1496023394 -1087014309 -1754835719 1469794123 1534135881 -211497830 803247753 -203175586 -174423919
REM
CELL 1.54180   50.00000   50.00000   50.00000   90.00000   90.00000   90.00000
LATT -1
SFAC C  
C      1  0.4019230000000  0.5357460000000  0.5151700000000 1.0
C      1  0.3866160000000  0.4941020000000  0.4664050000000 1.0
C      1  0.4015570000000  0.4721300000000  0.5243030000000 1.0
C      1  0.5963060000000  0.5364190000000  0.5175460000000 1.0
C      1  0.6037510000000  0.5005990000000  0.4633210000000 1.0
C      1  0.5983090000000  0.4692490000000  0.5175200000000 1.0
C      1  0.4105130000000  0.4374190000000  0.5572680000000 1.0
C      1  0.4155160000000  0.5711580000000  0.5271540000000 1.0
C      1  0.4140530000000  0.4806560000000  0.4416460000000 1.0
C      1  0.5943920000000  0.4348560000000  0.5562650000000 1.0
C      1  0.5911630000000  0.5816480000000  0.5301090000000 1.0
C      1  0.5869540000000  0.4844370000000  0.4198450000000 1.0
C      1  0.4343020000000  0.5248530000000  0.5717910000000 1.0
C      1  0.4358190000000  0.5410040000000  0.4447890000000 1.0
C      1  0.4377350000000  0.4297200000000  0.4880140000000 1.0
C      1  0.5671820000000  0.5242690000000  0.5687310000000 1.0
C      1  0.5672380000000  0.5493010000000  0.4404210000000 1.0
C      1  0.5671520000000  0.4326630000000  0.4906790000000 1.0
C      1  0.5673080000000  0.4730640000000  0.5309640000000 1.0
C      1  0.5694370000000  0.5344370000000  0.4940000000000 1.0
C      1  0.5883190000000  0.4716990000000  0.4624200000000 1.0
C      1  0.4268910000000  0.4922200000000  0.5348440000000 1.0
C      1  0.4312050000000  0.5335230000000  0.4980120000000 1.0
C      1  0.4099780000000  0.4699140000000  0.4714890000000 1.0
C      1  0.4891450000000  0.5916840000000  0.5158490000000 1.0
C      1  0.4833280000000  0.4764630000000  0.4163270000000 1.0
C      1  0.4819060000000  0.4383840000000  0.5675820000000 1.0
C      1  0.5161700000000  0.5943150000000  0.5129580000000 1.0
C      1  0.5093830000000  0.4705870000000  0.4125420000000 1.0
C      1  0.5047470000000  0.4400840000000  0.5580370000000 1.0
C      1  0.4893170000000  0.4391060000000  0.4511450000000 1.0
C      1  0.4834910000000  0.4841840000000  0.5843210000000 1.0
C      1  0.4847250000000  0.5910190000000  0.4649720000000 1.0
C      1  0.5175590000000  0.4311380000000  0.4378020000000 1.0
C      1  0.5154730000000  0.4795120000000  0.5878030000000 1.0
C      1  0.5158730000000  0.5853940000000  0.4651640000000 1.0
C      1  0.4485840000000  0.5964600000000  0.4866800000000 1.0
C      1  0.4531170000000  0.4433330000000  0.4146840000000 1.0
C      1  0.4359570000000  0.4671690000000  0.6028830000000 1.0
C      1  0.5583170000000  0.6025360000000  0.4855110000000 1.0
C      1  0.5484000000000  0.4439440000000  0.4191970000000 1.0
C      1  0.5616140000000  0.4624820000000  0.6003890000000 1.0
C      1  0.5661920000000  0.5640120000000  0.4840640000000 1.0
C      1  0.5674060000000  0.4462840000000  0.4531260000000 1.0
C      1  0.5660600000000  0.4767880000000  0.5638430000000 1.0
C      1  0.4448000000000  0.5585690000000  0.4794540000000 1.0
C      1  0.4344140000000  0.4410680000000  0.4423750000000 1.0
C      1  0.4329940000000  0.4847620000000  0.5674660000000 1.0
C      1  0.5665460000000  0.5827410000000  0.5117050000000 1.0
C      1  0.5620800000000  0.4722440000000  0.4323200000000 1.0
C      1  0.5694420000000  0.4446690000000  0.5730620000000 1.0
C      1  0.4399640000000  0.5726820000000  0.5096180000000 1.0
C      1  0.4415870000000  0.4717790000000  0.4296660000000 1.0
C      1  0.4315240000000  0.4525820000000  0.5732790000000 1.0
C      1  0.4167710000000  0.5465410000000  0.5437920000000 1.0
C      1  0.4058870000000  0.5095540000000  0.4420920000000 1.0
C      1  0.4097690000000  0.4422840000000  0.5301210000000 1.0
C      1  0.5914400000000  0.5556280000000  0.5396450000000 1.0
C      1  0.5925780000000  0.5086240000000  0.4322160000000 1.0
C      1  0.5916890000000  0.4392640000000  0.5295420000000 1.0
C      1  0.4726150000000  0.5203420000000  0.5963650000000 1.0
C      1  0.4767290000000  0.5694440000000  0.4325390000000 1.0
C      1  0.4737090000000  0.4070640000000  0.4688880000000 1.0
C      1  0.5273670000000  0.5171330000000  0.5938530000000 1.0
C      1  0.5330750000000  0.5734040000000  0.4316550000000 1.0
C      1  0.5272990000000  0.4096810000000  0.4700720000000 1.0
C      1  0.4857980000000  0.4387580000000  0.5147030000000 1.0
C      1  0.4799540000000  0.5380460000000  0.5466340000000 1.0
C      1  0.4903610000000  0.5183760000000  0.4389450000000 1.0
C      1  0.5172020000000  0.4374370000000  0.5142530000000 1.0
C      1  0.5138510000000  0.5352420000000  0.5474570000000 1.0
C      1  0.5239480000000  0.5196930000000  0.4332820000000 1.0
C      1  0.5187310000000  0.4770410000000  0.5099630000000 1.0
C      1  0.5117610000000  0.5242840000000  0.5184670000000 1.0
C      1  0.5127630000000  0.5010780000000  0.4789000000000 1.0
C      1  0.4903520000000  0.4763920000000  0.5030590000000 1.0
C      1  0.4846640000000  0.5183820000000  0.5121290000000 1.0
C      1  0.4829270000000  0.5033600000000  0.4751410000000 1.0
C      1  0.5523580000000  0.4452440000000  0.5435920000000 1.0
C      1  0.5478240000000  0.5581110000000  0.5259460000000 1.0
C      1  0.5434680000000  0.4959650000000  0.4481160000000 1.0
C      1  0.4566270000000  0.4508680000000  0.5272910000000 1.0
C      1  0.4601250000000  0.5484420000000  0.5224980000000 1.0
C      1  0.4492100000000  0.5022530000000  0.4427170000000 1.0
C      1  0.4598060000000  0.4174240000000  0.5197370000000 1.0
C      1  0.4560000000000  0.5667150000000  0.5795970000000 1.0
C      1  0.4573350000000  0.5230480000000  0.4170470000000 1.0
C      1  0.5418190000000  0.4175190000000  0.5266620000000 1.0
C      1  0.5415640000000  0.5611240000000  0.5592320000000 1.0
C      1  0.5471060000000  0.5258020000000  0.4091330000000 1.0
C      1  0.5197820000000  0.5541790000000  0.4775680000000 1.0
C      1  0.5249880000000  0.4532580000000  0.4620490000000 1.0
C      1  0.5230690000000  0.4885580000000  0.5576890000000 1.0
C      1  0.4845820000000  0.5586410000000  0.4753790000000 1.0
C      1  0.4830060000000  0.4634820000000  0.4720700000000 1.0
C      1  0.4706110000000  0.4857420000000  0.5545150000000 1.0
C      1  0.4273820000000  0.4267180000000  0.5151250000000 1.0
C      1  0.4312190000000  0.5550030000000  0.5702070000000 1.0
C      1  0.4236340000000  0.5241860000000  0.4214830000000 1.0
C      1  0.5723600000000  0.4242810000000  0.5163330000000 1.0
C      1  0.5708320000000  0.5500690000000  0.5586160000000 1.0
C      1  0.5736610000000  0.5283780000000  0.4228380000000 1.0
C      1  0.5250660000000  0.5269930000000  0.4910510000000 1.0
C      1  0.5325390000000  0.4756410000000  0.4821960000000 1.0
C      1  0.5302960000000  0.4991900000000  0.5281260000000 1.0
C      1  0.4712410000000  0.5299390000000  0.4878010000000 1.0
C      1  0.4603700000000  0.4818330000000  0.4887130000000 1.0
C      1  0.4709690000000  0.4936140000000  0.5251780000000 1.0
C      1  0.5377170000000  0.5169880000000  0.5630470000000 1.0
C      1  0.5362730000000  0.5465640000000  0.4500860000000 1.0
C      1  0.5369580000000  0.4362260000000  0.4865830000000 1.0
C      1  0.4639180000000  0.5160880000000  0.5644190000000 1.0
C      1  0.4688020000000  0.5422980000000  0.4500650000000 1.0
C      1  0.4687650000000  0.4356890000000  0.4855390000000 1.0
C      1  0.4790100000000  0.5685300000000  0.5066470000000 1.0
C      1  0.4787820000000  0.4872800000000  0.4464170000000 1.0
C      1  0.4589110000000  0.4560500000000  0.5573690000000 1.0
C      1  0.5288880000000  0.5717610000000  0.5052120000000 1.0
C      1  0.5240690000000  0.4711270000000  0.4353450000000 1.0
C      1  0.5234810000000  0.4599490000000  0.5389710000000 1.0
C      1  0.5469600000000  0.5827750000000  0.4630290000000 1.0
C      1  0.5481660000000  0.4224810000000  0.4455920000000 1.0
C      1  0.5469470000000  0.4884940000000  0.5895210000000 1.0
C      1  0.4553040000000  0.5797370000000  0.4578270000000 1.0
C      1  0.4628220000000  0.4247130000000  0.4416060000000 1.0
C      1  0.4529850000000  0.4918850000000  0.5941200000000 1.0
C      1  0.4838440000000  0.4018360000000  0.5005380000000 1.0
C      1  0.4834700000000  0.5475800000000  0.5791470000000 1.0
C      1  0.4859500000000  0.5417000000000  0.4145910000000 1.0
C      1  0.5178560000000  0.4053290000000  0.5030800000000 1.0
C      1  0.5176990000000  0.5471170000000  0.5790840000000 1.0
C      1  0.5200030000000  0.5472140000000  0.4136890000000 1.0
C      1  0.4110180000000  0.5092410000000  0.5602360000000 1.0
C      1  0.4169480000000  0.5429100000000  0.4684970000000 1.0
C      1  0.4224940000000  0.4426980000000  0.4686840000000 1.0
C      1  0.5813580000000  0.5022910000000  0.5745770000000 1.0
C      1  0.5820350000000  0.5649800000000  0.4567020000000 1.0
C      1  0.5906810000000  0.4398540000000  0.4740990000000 1.0
C      1  0.3967970000000  0.5151300000000  0.4899650000000 1.0
C      1  0.3828460000000  0.4791030000000  0.4967730000000 1.0
C      1  0.3896210000000  0.5036960000000  0.5201110000000 1.0
C      1  0.5987040000000  0.5179800000000  0.4886210000000 1.0
C      1  0.6135390000000  0.4811700000000  0.4895190000000 1.0
C      1  0.5956750000000  0.5026340000000  0.5171910000000 1.0
C      1  0.4401430000000  0.4731450000000  0.5100030000000 1.0
C      1  0.4465810000000  0.5172250000000  0.5228620000000 1.0
C      1  0.4446890000000  0.5145210000000  0.4732290000000 1.0
C      1  0.5635860000000  0.4729140000000  0.4826970000000 1.0
C      1  0.5513040000000  0.5250140000000  0.5211210000000 1.0
C      1  0.5514110000000  0.5105770000000  0.4778080000000 1.0
C      1  0.5001370000000  0.5051390000000  0.6052920000000 1.0
C      1  0.5024990000000  0.5880960000000  0.4348970000000 1.0
C      1  0.5007840000000  0.4055340000000  0.4521230000000 1.0
C      1  0.5638620000000  0.4969300000000  0.5066270000000 1.0
C      1  0.4231110000000  0.4951430000000  0.4903440000000 1.0
END
