TITL C-3289322-3858-543 -0.00208199915532898 125000 -565.114882066435 0 0 101 (C1) n - 1
REM
REM in /nfs/bkarasulu/CARBON/AIRSS/Generating-Clusters/AIREBO/with-SteepDescent/Higher-Symm/SD-CG/HFTN-CG
REM
REM
REM
REM
REM
REM ./C.cell (b20cbc046b6831c77cfcea5457e17084)
REM
REM compiler GCC version 9.2.1 20190827 (Red Hat 9.2.1-1)
REM options -cpp -mtune=generic -march=x86-64 -g -O0 -fpre-include=/usr/include/finclude/math-vector-fortran.h
REM seed -2041146677 -1470004710 -285730923 1222508811 651885881 -620263065 1502364414 -637768845 1286748491 -161020804 -1277931984 1148741489 -1352206606 1669089030 -1054006720 -1879361713 4692400 -217850787 -340931382 50387640 -504085766 885752695 -460930954 -1555735745 1321943372 786521466 -846874169 -2072693144 -1538557822 148427223 -1735584953 25972513 -1786077699
REM
CELL 1.54180   50.00000   50.00000   50.00000   90.00000   90.00000   90.00000
LATT -1
SFAC C  
C      1  0.4298750000000  0.5739910000000  0.5223270000000 1.0
C      1  0.4375860000000  0.4330380000000  0.4787070000000 1.0
C      1  0.4591400000000  0.5628740000000  0.4519460000000 1.0
C      1  0.5037890000000  0.4376530000000  0.4409800000000 1.0
C      1  0.5440880000000  0.5633010000000  0.4508710000000 1.0
C      1  0.5662170000000  0.4342800000000  0.4868830000000 1.0
C      1  0.5614340000000  0.5630260000000  0.5227460000000 1.0
C      1  0.5397370000000  0.4189980000000  0.5602400000000 1.0
C      1  0.4910220000000  0.5708590000000  0.5652800000000 1.0
C      1  0.4635510000000  0.4352920000000  0.5562360000000 1.0
C      1  0.4945980000000  0.4817960000000  0.4822830000000 1.0
C      1  0.5008820000000  0.5315850000000  0.4747730000000 1.0
C      1  0.5189090000000  0.4597350000000  0.4894940000000 1.0
C      1  0.5258840000000  0.5330130000000  0.4897990000000 1.0
C      1  0.5242770000000  0.4580770000000  0.5230370000000 1.0
C      1  0.5199050000000  0.5297620000000  0.5212490000000 1.0
C      1  0.4954270000000  0.4760050000000  0.5212930000000 1.0
C      1  0.4628560000000  0.5398900000000  0.5130390000000 1.0
C      1  0.4759720000000  0.4595620000000  0.4985620000000 1.0
C      1  0.4774490000000  0.5219090000000  0.4914780000000 1.0
C      1  0.5583790000000  0.4183720000000  0.5427680000000 1.0
C      1  0.5162210000000  0.5692170000000  0.5640300000000 1.0
C      1  0.4859770000000  0.4449010000000  0.5667850000000 1.0
C      1  0.4413720000000  0.5663930000000  0.5462640000000 1.0
C      1  0.4296270000000  0.4478420000000  0.5023690000000 1.0
C      1  0.4396840000000  0.5581910000000  0.4706220000000 1.0
C      1  0.4783610000000  0.4459820000000  0.4457210000000 1.0
C      1  0.5209970000000  0.5513810000000  0.4346090000000 1.0
C      1  0.5546210000000  0.4464250000000  0.4646610000000 1.0
C      1  0.5657730000000  0.5568860000000  0.4962110000000 1.0
C      1  0.5768140000000  0.5284910000000  0.4570110000000 1.0
C      1  0.5897550000000  0.4652160000000  0.5017550000000 1.0
C      1  0.5715750000000  0.5272420000000  0.5506610000000 1.0
C      1  0.5315730000000  0.4614600000000  0.5740150000000 1.0
C      1  0.4776710000000  0.5307940000000  0.5560110000000 1.0
C      1  0.4483910000000  0.4756090000000  0.5239550000000 1.0
C      1  0.4064790000000  0.5255470000000  0.4893360000000 1.0
C      1  0.4372100000000  0.4683930000000  0.4400470000000 1.0
C      1  0.4818310000000  0.5333050000000  0.4273780000000 1.0
C      1  0.5226560000000  0.4888880000000  0.4489050000000 1.0
C      1  0.4963540000000  0.5603820000000  0.4130030000000 1.0
C      1  0.5415160000000  0.4743900000000  0.4299330000000 1.0
C      1  0.5789190000000  0.5346170000000  0.4851880000000 1.0
C      1  0.5741870000000  0.4590410000000  0.5234620000000 1.0
C      1  0.5464020000000  0.5342360000000  0.5586210000000 1.0
C      1  0.5030150000000  0.4655250000000  0.5803060000000 1.0
C      1  0.4474400000000  0.5413390000000  0.5625620000000 1.0
C      1  0.4212380000000  0.4611120000000  0.5355800000000 1.0
C      1  0.4243470000000  0.5352760000000  0.4692210000000 1.0
C      1  0.4645400000000  0.4657130000000  0.4325420000000 1.0
C      1  0.5339660000000  0.4848610000000  0.4779270000000 1.0
C      1  0.5410610000000  0.5048990000000  0.4984410000000 1.0
C      1  0.5349760000000  0.4902150000000  0.5260480000000 1.0
C      1  0.5149750000000  0.5068090000000  0.5432200000000 1.0
C      1  0.4826930000000  0.5008420000000  0.5407180000000 1.0
C      1  0.4566350000000  0.5085940000000  0.5226600000000 1.0
C      1  0.4515990000000  0.4798850000000  0.4914350000000 1.0
C      1  0.4609750000000  0.5022150000000  0.4750830000000 1.0
C      1  0.4835150000000  0.4919360000000  0.4560150000000 1.0
C      1  0.5038680000000  0.5170780000000  0.4459680000000 1.0
C      1  0.5240090000000  0.4383900000000  0.4643100000000 1.0
C      1  0.5404050000000  0.5593350000000  0.4810920000000 1.0
C      1  0.5505810000000  0.4373740000000  0.5169160000000 1.0
C      1  0.5314250000000  0.5558380000000  0.5370540000000 1.0
C      1  0.5159490000000  0.4411950000000  0.5513750000000 1.0
C      1  0.4735970000000  0.5595910000000  0.5386070000000 1.0
C      1  0.4530140000000  0.4420080000000  0.5263800000000 1.0
C      1  0.4485410000000  0.5657780000000  0.4976040000000 1.0
C      1  0.4675930000000  0.4390000000000  0.4727890000000 1.0
C      1  0.4921690000000  0.5547830000000  0.4523420000000 1.0
C      1  0.5121320000000  0.4192860000000  0.4859530000000 1.0
C      1  0.5209290000000  0.5797000000000  0.4901850000000 1.0
C      1  0.5251380000000  0.4158020000000  0.5103270000000 1.0
C      1  0.5157830000000  0.5793490000000  0.5180220000000 1.0
C      1  0.5040390000000  0.4181280000000  0.5310380000000 1.0
C      1  0.4878570000000  0.5809570000000  0.5205640000000 1.0
C      1  0.4788070000000  0.4226930000000  0.5181410000000 1.0
C      1  0.4753340000000  0.5818120000000  0.4952460000000 1.0
C      1  0.4847230000000  0.4213820000000  0.4905730000000 1.0
C      1  0.4961220000000  0.5795730000000  0.4753480000000 1.0
C      1  0.4964460000000  0.4928680000000  0.5773040000000 1.0
C      1  0.4417470000000  0.5116910000000  0.5594850000000 1.0
C      1  0.4103300000000  0.5035130000000  0.5074800000000 1.0
C      1  0.4277810000000  0.4846800000000  0.4597510000000 1.0
C      1  0.4555580000000  0.5165240000000  0.4289790000000 1.0
C      1  0.5097310000000  0.5026660000000  0.4094260000000 1.0
C      1  0.5598190000000  0.5104650000000  0.4444410000000 1.0
C      1  0.5813190000000  0.4845450000000  0.4844670000000 1.0
C      1  0.5767170000000  0.5084300000000  0.5317220000000 1.0
C      1  0.5442730000000  0.4849950000000  0.5655370000000 1.0
C      1  0.5321720000000  0.5210030000000  0.4275180000000 1.0
C      1  0.5601670000000  0.4793750000000  0.4582770000000 1.0
C      1  0.5724100000000  0.5099330000000  0.5004000000000 1.0
C      1  0.5631710000000  0.4820430000000  0.5396500000000 1.0
C      1  0.5248900000000  0.5120430000000  0.5729820000000 1.0
C      1  0.4661150000000  0.4952810000000  0.5698850000000 1.0
C      1  0.4250750000000  0.5069740000000  0.5316030000000 1.0
C      1  0.4191880000000  0.4783990000000  0.4920660000000 1.0
C      1  0.4393660000000  0.5136280000000  0.4555770000000 1.0
C      1  0.4800600000000  0.4935580000000  0.4233140000000 1.0
C      1  0.5014340000000  0.5056790000000  0.5057590000000 1.0
END
