TITL C-3289320-4661-494 -0.000967824841545234 125000 -664.373163224007 0 0 130 (C1) n - 1
REM
REM in /nfs/bkarasulu/CARBON/AIRSS/Generating-Clusters/AIREBO/with-SteepDescent/Higher-Symm/SD-CG/HFTN-CG
REM
REM
REM
REM
REM
REM ./C.cell (b20cbc046b6831c77cfcea5457e17084)
REM
REM compiler GCC version 9.2.1 20190827 (Red Hat 9.2.1-1)
REM options -cpp -mtune=generic -march=x86-64 -g -O0 -fpre-include=/usr/include/finclude/math-vector-fortran.h
REM seed -824702942 -1723477854 1511143619 1826127327 -1590530191 523290741 2098122906 -2006427852 -1783975964 1234256511 -1658353047 -1686035102 -1909587830 1233848245 -525231694 1422762579 1228372035 895630754 1947406746 -1391125734 -1222371697 235913427 844846636 -988316656 1925838966 -101246419 -972700535 1701179567 -567635210 -171463188 -1400968094 1126678420 1533687857
REM
CELL 1.54180   50.00000   50.00000   50.00000   90.00000   90.00000   90.00000
LATT -1
SFAC C  
C      1  0.4728110000000  0.5319490000000  0.4144160000000 1.0
C      1  0.4745340000000  0.5289310000000  0.5803790000000 1.0
C      1  0.4810870000000  0.5305910000000  0.5260130000000 1.0
C      1  0.4758180000000  0.5308460000000  0.4663490000000 1.0
C      1  0.5308480000000  0.5604810000000  0.5637740000000 1.0
C      1  0.5368630000000  0.5536130000000  0.4404020000000 1.0
C      1  0.5865980000000  0.5339980000000  0.5474280000000 1.0
C      1  0.5949210000000  0.5124230000000  0.4561950000000 1.0
C      1  0.5899050000000  0.5637790000000  0.5062440000000 1.0
C      1  0.5863880000000  0.5610780000000  0.4728740000000 1.0
C      1  0.5114180000000  0.4491660000000  0.5698510000000 1.0
C      1  0.4958140000000  0.4521230000000  0.4214360000000 1.0
C      1  0.5670280000000  0.4845580000000  0.4500250000000 1.0
C      1  0.5795440000000  0.4882370000000  0.5649440000000 1.0
C      1  0.5048520000000  0.4906060000000  0.5283910000000 1.0
C      1  0.5013280000000  0.4912760000000  0.4792020000000 1.0
C      1  0.4722590000000  0.4315570000000  0.5260220000000 1.0
C      1  0.4688030000000  0.4273850000000  0.4677100000000 1.0
C      1  0.5979550000000  0.4782720000000  0.5384170000000 1.0
C      1  0.6031670000000  0.4878460000000  0.4667140000000 1.0
C      1  0.5309580000000  0.4833060000000  0.4039730000000 1.0
C      1  0.5328400000000  0.4903540000000  0.5997710000000 1.0
C      1  0.5099900000000  0.4447480000000  0.4711740000000 1.0
C      1  0.5069860000000  0.4503000000000  0.5200220000000 1.0
C      1  0.4615020000000  0.5190770000000  0.5513170000000 1.0
C      1  0.4583790000000  0.5165020000000  0.4411730000000 1.0
C      1  0.4193260000000  0.4474390000000  0.5595640000000 1.0
C      1  0.4067840000000  0.4511980000000  0.4352790000000 1.0
C      1  0.5386450000000  0.4494430000000  0.4700800000000 1.0
C      1  0.5389100000000  0.4514480000000  0.5227120000000 1.0
C      1  0.4638780000000  0.4295060000000  0.5578950000000 1.0
C      1  0.4600820000000  0.4317300000000  0.4351240000000 1.0
C      1  0.4439290000000  0.5039650000000  0.4692890000000 1.0
C      1  0.4489800000000  0.5082840000000  0.5215900000000 1.0
C      1  0.5303470000000  0.5310400000000  0.4741720000000 1.0
C      1  0.5313110000000  0.5342530000000  0.5294390000000 1.0
C      1  0.4570310000000  0.5857600000000  0.4743490000000 1.0
C      1  0.4563780000000  0.5848180000000  0.5214180000000 1.0
C      1  0.5627490000000  0.4981620000000  0.4749930000000 1.0
C      1  0.5664380000000  0.4917100000000  0.5337570000000 1.0
C      1  0.4714980000000  0.4578450000000  0.5724080000000 1.0
C      1  0.4576940000000  0.4636310000000  0.4235970000000 1.0
C      1  0.4414160000000  0.4705880000000  0.5713630000000 1.0
C      1  0.4294720000000  0.4745110000000  0.4249040000000 1.0
C      1  0.4023130000000  0.5265100000000  0.5292380000000 1.0
C      1  0.4015570000000  0.5339490000000  0.4638670000000 1.0
C      1  0.5683230000000  0.4581450000000  0.5550540000000 1.0
C      1  0.5750570000000  0.4479340000000  0.4537310000000 1.0
C      1  0.5020150000000  0.4176650000000  0.5231080000000 1.0
C      1  0.4998700000000  0.4139420000000  0.4709170000000 1.0
C      1  0.4823470000000  0.4932580000000  0.4347370000000 1.0
C      1  0.4923000000000  0.4967830000000  0.5653460000000 1.0
C      1  0.4301640000000  0.5318120000000  0.5476480000000 1.0
C      1  0.4302000000000  0.5344920000000  0.4474790000000 1.0
C      1  0.4975200000000  0.5100780000000  0.5945790000000 1.0
C      1  0.4962940000000  0.5100580000000  0.4088570000000 1.0
C      1  0.5258750000000  0.4959070000000  0.5706490000000 1.0
C      1  0.5131200000000  0.4799630000000  0.4290130000000 1.0
C      1  0.5161450000000  0.5291670000000  0.4289740000000 1.0
C      1  0.5139850000000  0.5335810000000  0.5760450000000 1.0
C      1  0.4238540000000  0.4462140000000  0.5289550000000 1.0
C      1  0.4113500000000  0.4483980000000  0.4688580000000 1.0
C      1  0.5788850000000  0.4540660000000  0.5240270000000 1.0
C      1  0.5829620000000  0.4642120000000  0.4805540000000 1.0
C      1  0.4847070000000  0.4590090000000  0.5418770000000 1.0
C      1  0.4679370000000  0.4590580000000  0.4548970000000 1.0
C      1  0.5414540000000  0.5221690000000  0.5595690000000 1.0
C      1  0.5407470000000  0.5142680000000  0.4460250000000 1.0
C      1  0.5718390000000  0.5122260000000  0.4346110000000 1.0
C      1  0.5709040000000  0.5181640000000  0.5632500000000 1.0
C      1  0.5033760000000  0.5179060000000  0.4581470000000 1.0
C      1  0.5045350000000  0.5205100000000  0.5445680000000 1.0
C      1  0.5064890000000  0.5883880000000  0.4663830000000 1.0
C      1  0.5086740000000  0.5925120000000  0.5308110000000 1.0
C      1  0.4714840000000  0.4853490000000  0.5324080000000 1.0
C      1  0.4694590000000  0.4828820000000  0.4708390000000 1.0
C      1  0.5266570000000  0.4854200000000  0.4572450000000 1.0
C      1  0.5355830000000  0.4862120000000  0.5417780000000 1.0
C      1  0.4419220000000  0.5543350000000  0.5256600000000 1.0
C      1  0.4423400000000  0.5554190000000  0.4698940000000 1.0
C      1  0.5711770000000  0.5470730000000  0.5223930000000 1.0
C      1  0.5759520000000  0.5292590000000  0.4788550000000 1.0
C      1  0.5572360000000  0.4261040000000  0.4796750000000 1.0
C      1  0.5622370000000  0.4290110000000  0.5122880000000 1.0
C      1  0.5462150000000  0.4619080000000  0.4423660000000 1.0
C      1  0.5369750000000  0.4568800000000  0.5562320000000 1.0
C      1  0.5070070000000  0.5555550000000  0.4702180000000 1.0
C      1  0.5081810000000  0.5592110000000  0.5304650000000 1.0
C      1  0.5608230000000  0.5476730000000  0.4545650000000 1.0
C      1  0.5553460000000  0.5584130000000  0.5503160000000 1.0
C      1  0.4970030000000  0.4742440000000  0.5878060000000 1.0
C      1  0.4818870000000  0.4784170000000  0.4048130000000 1.0
C      1  0.5163310000000  0.5855550000000  0.5590900000000 1.0
C      1  0.5248250000000  0.5800020000000  0.4442820000000 1.0
C      1  0.4117850000000  0.4789280000000  0.4536060000000 1.0
C      1  0.4396100000000  0.4737650000000  0.5381780000000 1.0
C      1  0.4287850000000  0.5059320000000  0.4281710000000 1.0
C      1  0.4353510000000  0.5025710000000  0.5654720000000 1.0
C      1  0.4194540000000  0.4980370000000  0.5292000000000 1.0
C      1  0.4133310000000  0.5035630000000  0.4698900000000 1.0
C      1  0.4750380000000  0.5620450000000  0.4622440000000 1.0
C      1  0.4745640000000  0.5610350000000  0.5329240000000 1.0
C      1  0.4992950000000  0.4327670000000  0.4425170000000 1.0
C      1  0.5033720000000  0.4255950000000  0.5561740000000 1.0
C      1  0.5515170000000  0.4959730000000  0.5054680000000 1.0
C      1  0.5935170000000  0.4812350000000  0.5063310000000 1.0
C      1  0.4080230000000  0.5828190000000  0.4979080000000 1.0
C      1  0.5420030000000  0.4051470000000  0.4983500000000 1.0
C      1  0.4299190000000  0.4437480000000  0.4969800000000 1.0
C      1  0.5210680000000  0.4903560000000  0.5040840000000 1.0
C      1  0.5948230000000  0.5095730000000  0.4991830000000 1.0
C      1  0.4052640000000  0.5320550000000  0.4966810000000 1.0
C      1  0.5487000000000  0.5887240000000  0.4979050000000 1.0
C      1  0.4475050000000  0.4038420000000  0.4750400000000 1.0
C      1  0.5535780000000  0.4637490000000  0.4948200000000 1.0
C      1  0.5134360000000  0.4046620000000  0.4983870000000 1.0
C      1  0.4895310000000  0.5194800000000  0.4953120000000 1.0
C      1  0.5068530000000  0.5480360000000  0.5011260000000 1.0
C      1  0.4021620000000  0.4984000000000  0.5009930000000 1.0
C      1  0.4946130000000  0.4604690000000  0.4920030000000 1.0
C      1  0.5751680000000  0.5865870000000  0.4909940000000 1.0
C      1  0.5252560000000  0.5765500000000  0.4988450000000 1.0
C      1  0.4293100000000  0.4112410000000  0.4912690000000 1.0
C      1  0.4675940000000  0.5958380000000  0.4982620000000 1.0
C      1  0.5504850000000  0.5297530000000  0.5016730000000 1.0
C      1  0.4249490000000  0.5569790000000  0.4974610000000 1.0
C      1  0.4981050000000  0.5970170000000  0.4985080000000 1.0
C      1  0.4256970000000  0.4762630000000  0.4963060000000 1.0
C      1  0.4640600000000  0.4445200000000  0.4967050000000 1.0
C      1  0.4531150000000  0.4903540000000  0.4972940000000 1.0
END
