TITL C-3289321-8710-441 0.0006148109067984 125000 -353.892133012347 0 0 62 (C1) n - 1
REM
REM in /nfs/bkarasulu/CARBON/AIRSS/Generating-Clusters/AIREBO/with-SteepDescent/Higher-Symm/SD-CG/HFTN-CG
REM
REM
REM
REM
REM
REM ./C.cell (b20cbc046b6831c77cfcea5457e17084)
REM
REM compiler GCC version 9.2.1 20190827 (Red Hat 9.2.1-1)
REM options -cpp -mtune=generic -march=x86-64 -g -O0 -fpre-include=/usr/include/finclude/math-vector-fortran.h
REM seed -1010984000 785926537 -1937780707 -1412046841 -1873346781 1982201222 -1737687278 -569443845 -759046100 -1729361124 146073598 -412258700 1148138687 -778177723 -1017575606 -1609402346 2129355223 1192830989 -438685259 931539886 -395015424 -80386715 -1680358872 1540291982 -1309852718 -603658584 -1094911310 -1064669571 -600817565 659428341 1998025133 -1532890283 -766607094
REM
CELL 1.54180   50.00000   50.00000   50.00000   90.00000   90.00000   90.00000
LATT -1
SFAC C  
C      1  0.5609040000000  0.5743860000000  0.5523810000000 1.0
C      1  0.5382520000000  0.5475430000000  0.5068650000000 1.0
C      1  0.5233280000000  0.4956750000000  0.4091250000000 1.0
C      1  0.5411580000000  0.4877460000000  0.4569790000000 1.0
C      1  0.5443780000000  0.5681880000000  0.5255250000000 1.0
C      1  0.5219720000000  0.4969080000000  0.4356600000000 1.0
C      1  0.4697910000000  0.5145310000000  0.4074610000000 1.0
C      1  0.5299370000000  0.5020710000000  0.5361280000000 1.0
C      1  0.4769220000000  0.5684460000000  0.5140320000000 1.0
C      1  0.5074880000000  0.4931940000000  0.3869950000000 1.0
C      1  0.4874590000000  0.5501590000000  0.4907730000000 1.0
C      1  0.5252700000000  0.4217800000000  0.5333360000000 1.0
C      1  0.4883000000000  0.4699530000000  0.4876850000000 1.0
C      1  0.5101000000000  0.4519740000000  0.4715680000000 1.0
C      1  0.5159500000000  0.4874220000000  0.5829700000000 1.0
C      1  0.4951720000000  0.5086120000000  0.4490640000000 1.0
C      1  0.4510860000000  0.4433410000000  0.4622980000000 1.0
C      1  0.4479830000000  0.5147550000000  0.5232650000000 1.0
C      1  0.5344520000000  0.5915030000000  0.5450470000000 1.0
C      1  0.5157850000000  0.4311450000000  0.5583480000000 1.0
C      1  0.4669640000000  0.5471570000000  0.4451670000000 1.0
C      1  0.5171250000000  0.5555310000000  0.4832930000000 1.0
C      1  0.4892870000000  0.4888720000000  0.5734500000000 1.0
C      1  0.5600610000000  0.3815290000000  0.5261890000000 1.0
C      1  0.4833530000000  0.5063790000000  0.3850970000000 1.0
C      1  0.4990880000000  0.4533220000000  0.5581160000000 1.0
C      1  0.4224630000000  0.5231940000000  0.4699480000000 1.0
C      1  0.4866680000000  0.5027960000000  0.5457280000000 1.0
C      1  0.4639140000000  0.4477670000000  0.5123690000000 1.0
C      1  0.5420960000000  0.4002840000000  0.5297090000000 1.0
C      1  0.5503300000000  0.4658300000000  0.5467830000000 1.0
C      1  0.4836850000000  0.4281230000000  0.5110740000000 1.0
C      1  0.5188530000000  0.5183570000000  0.4692660000000 1.0
C      1  0.5401930000000  0.5405560000000  0.4662750000000 1.0
C      1  0.5112170000000  0.4345370000000  0.5122690000000 1.0
C      1  0.5364990000000  0.4860220000000  0.5638230000000 1.0
C      1  0.4625470000000  0.5500100000000  0.4725050000000 1.0
C      1  0.4918900000000  0.5210970000000  0.5016650000000 1.0
C      1  0.4753680000000  0.5167800000000  0.5262470000000 1.0
C      1  0.4403250000000  0.4877570000000  0.5194930000000 1.0
C      1  0.5474330000000  0.4702970000000  0.5195340000000 1.0
C      1  0.5832320000000  0.5045520000000  0.4907980000000 1.0
C      1  0.4710090000000  0.4676520000000  0.5565630000000 1.0
C      1  0.5581480000000  0.5115570000000  0.4686840000000 1.0
C      1  0.4574280000000  0.4594460000000  0.4840000000000 1.0
C      1  0.4085820000000  0.5444400000000  0.5230500000000 1.0
C      1  0.4351140000000  0.5410060000000  0.5141350000000 1.0
C      1  0.4564400000000  0.4669460000000  0.5323330000000 1.0
C      1  0.4539840000000  0.5643970000000  0.5237240000000 1.0
C      1  0.5596300000000  0.5275960000000  0.4986290000000 1.0
C      1  0.5155880000000  0.4677080000000  0.5078790000000 1.0
C      1  0.4211000000000  0.4965050000000  0.4756990000000 1.0
C      1  0.5277020000000  0.4923900000000  0.4878630000000 1.0
C      1  0.5334130000000  0.4578510000000  0.4644110000000 1.0
C      1  0.4384220000000  0.5419030000000  0.4834460000000 1.0
C      1  0.5194780000000  0.6123810000000  0.5497710000000 1.0
C      1  0.5581030000000  0.4980190000000  0.5130860000000 1.0
C      1  0.5062730000000  0.4780010000000  0.5389220000000 1.0
C      1  0.4763590000000  0.5242870000000  0.4325680000000 1.0
C      1  0.5223410000000  0.5182250000000  0.5091110000000 1.0
C      1  0.4360580000000  0.4800960000000  0.4922460000000 1.0
C      1  0.4865510000000  0.4995160000000  0.4795740000000 1.0
END
