TITL C-3289323-3850-620 161.625633310458 125000 -772.601251305726 0 0 145 (C1) n - 1
REM
REM in /nfs/bkarasulu/CARBON/AIRSS/Generating-Clusters/AIREBO/with-SteepDescent/Higher-Symm/SD-CG/HFTN-CG
REM
REM
REM
REM
REM
REM ./C.cell (b20cbc046b6831c77cfcea5457e17084)
REM
REM compiler GCC version 9.2.1 20190827 (Red Hat 9.2.1-1)
REM options -cpp -mtune=generic -march=x86-64 -g -O0 -fpre-include=/usr/include/finclude/math-vector-fortran.h
REM seed 1080160349 -1637300917 1574725076 -1610680699 -340650167 -510270924 -1576318274 781319952 1700706481 -859994936 1850085598 1763832890 2068631470 1495572560 479821625 -1151004998 327132424 873314560 -1078094339 -1725818636 1836313521 1973490122 -557499432 1815453888 1203194222 1057150831 -1548647141 -1063668239 479157479 479083570 -316425007 604495249 1445008290
REM
CELL 1.54180   50.00000   50.00000   50.00000   90.00000   90.00000   90.00000
LATT -1
SFAC C  
C      1  0.4313930000000  0.5114040000000  0.4746000000000 1.0
C      1  0.5638860000000  0.5045330000000  0.4578860000000 1.0
C      1  0.5052170000000  0.4996860000000  0.5735960000000 1.0
C      1  0.4462430000000  0.4261580000000  0.4625510000000 1.0
C      1  0.5486510000000  0.4179130000000  0.4754400000000 1.0
C      1  0.4972040000000  0.4177560000000  0.5542880000000 1.0
C      1  0.5391660000000  0.5213950000000  0.4136190000000 1.0
C      1  0.5481110000000  0.5225250000000  0.5753590000000 1.0
C      1  0.4026330000000  0.5268000000000  0.5150810000000 1.0
C      1  0.5950240000000  0.5012830000000  0.4662240000000 1.0
C      1  0.4818120000000  0.4896470000000  0.5954480000000 1.0
C      1  0.4217150000000  0.5094070000000  0.4430140000000 1.0
C      1  0.4538370000000  0.5160930000000  0.4392650000000 1.0
C      1  0.5782040000000  0.4938450000000  0.4937480000000 1.0
C      1  0.4646820000000  0.4998430000000  0.5689040000000 1.0
C      1  0.5192260000000  0.4394160000000  0.4414870000000 1.0
C      1  0.5395250000000  0.4436270000000  0.5442700000000 1.0
C      1  0.4407790000000  0.4486260000000  0.5075140000000 1.0
C      1  0.5050010000000  0.5573900000000  0.5597610000000 1.0
C      1  0.4514500000000  0.5566600000000  0.4802520000000 1.0
C      1  0.5488500000000  0.5586420000000  0.4653630000000 1.0
C      1  0.5585010000000  0.5830860000000  0.4797320000000 1.0
C      1  0.4920710000000  0.5849360000000  0.5566450000000 1.0
C      1  0.4453150000000  0.5801300000000  0.4614350000000 1.0
C      1  0.4542430000000  0.5336010000000  0.5126240000000 1.0
C      1  0.5230310000000  0.5283520000000  0.4616810000000 1.0
C      1  0.5255760000000  0.5284970000000  0.5373930000000 1.0
C      1  0.4642040000000  0.5023740000000  0.4134290000000 1.0
C      1  0.5974700000000  0.4951570000000  0.5217320000000 1.0
C      1  0.4308260000000  0.4956410000000  0.5740870000000 1.0
C      1  0.4575260000000  0.5805820000000  0.4371220000000 1.0
C      1  0.5805890000000  0.5752040000000  0.4984640000000 1.0
C      1  0.4625700000000  0.5806440000000  0.5567520000000 1.0
C      1  0.4773430000000  0.5354880000000  0.4791810000000 1.0
C      1  0.5491530000000  0.5313860000000  0.4832750000000 1.0
C      1  0.4919280000000  0.5331110000000  0.5391360000000 1.0
C      1  0.4650640000000  0.4166940000000  0.5431150000000 1.0
C      1  0.4578490000000  0.4252720000000  0.4373570000000 1.0
C      1  0.5571220000000  0.4145310000000  0.5044740000000 1.0
C      1  0.4588500000000  0.5113410000000  0.5241770000000 1.0
C      1  0.5043830000000  0.5105420000000  0.4488850000000 1.0
C      1  0.5479330000000  0.5124300000000  0.5270450000000 1.0
C      1  0.5168790000000  0.4574450000000  0.5922650000000 1.0
C      1  0.4121410000000  0.4516410000000  0.4578540000000 1.0
C      1  0.5668910000000  0.4570710000000  0.4439830000000 1.0
C      1  0.5088150000000  0.4973670000000  0.6132230000000 1.0
C      1  0.3941720000000  0.5061230000000  0.4626980000000 1.0
C      1  0.5923250000000  0.4868910000000  0.4362850000000 1.0
C      1  0.5817280000000  0.5343510000000  0.5422390000000 1.0
C      1  0.4245330000000  0.5822310000000  0.5215830000000 1.0
C      1  0.5105640000000  0.5671610000000  0.4200220000000 1.0
C      1  0.4827100000000  0.5013870000000  0.5407730000000 1.0
C      1  0.4774460000000  0.5081190000000  0.4612740000000 1.0
C      1  0.5450820000000  0.5013880000000  0.4955560000000 1.0
C      1  0.4425620000000  0.4858410000000  0.4878980000000 1.0
C      1  0.5411190000000  0.4751400000000  0.4368200000000 1.0
C      1  0.5274580000000  0.4753180000000  0.5653330000000 1.0
C      1  0.5223350000000  0.4193400000000  0.5384120000000 1.0
C      1  0.4498140000000  0.4230970000000  0.4917150000000 1.0
C      1  0.5223750000000  0.4183000000000  0.4645810000000 1.0
C      1  0.5454310000000  0.4926670000000  0.4093550000000 1.0
C      1  0.5502350000000  0.4951600000000  0.5868480000000 1.0
C      1  0.3934960000000  0.5003710000000  0.5120610000000 1.0
C      1  0.4674260000000  0.5332600000000  0.5633060000000 1.0
C      1  0.4709550000000  0.5444650000000  0.4469660000000 1.0
C      1  0.5669280000000  0.5365410000000  0.5118000000000 1.0
C      1  0.5703140000000  0.4423410000000  0.5189380000000 1.0
C      1  0.4454540000000  0.4440820000000  0.5508260000000 1.0
C      1  0.4751610000000  0.4527230000000  0.4272170000000 1.0
C      1  0.5670640000000  0.4738770000000  0.5705090000000 1.0
C      1  0.4095620000000  0.4810410000000  0.5246690000000 1.0
C      1  0.5202320000000  0.4704490000000  0.4032980000000 1.0
C      1  0.6171360000000  0.5174280000000  0.4700700000000 1.0
C      1  0.4664030000000  0.4710260000000  0.6096450000000 1.0
C      1  0.4109580000000  0.5068030000000  0.4168070000000 1.0
C      1  0.5509820000000  0.4854220000000  0.5429370000000 1.0
C      1  0.4403520000000  0.4880440000000  0.5181480000000 1.0
C      1  0.5114470000000  0.4894770000000  0.4300750000000 1.0
C      1  0.4534040000000  0.5839810000000  0.5263460000000 1.0
C      1  0.4889090000000  0.5723800000000  0.4393370000000 1.0
C      1  0.5523410000000  0.5670270000000  0.5155320000000 1.0
C      1  0.5210660000000  0.4629420000000  0.5232350000000 1.0
C      1  0.4715350000000  0.4612220000000  0.5003040000000 1.0
C      1  0.5191180000000  0.4574780000000  0.4703040000000 1.0
C      1  0.5644290000000  0.4411800000000  0.4650340000000 1.0
C      1  0.5041820000000  0.4502310000000  0.5615570000000 1.0
C      1  0.4408400000000  0.4590870000000  0.4690720000000 1.0
C      1  0.5955970000000  0.5500450000000  0.4980940000000 1.0
C      1  0.4556440000000  0.5565520000000  0.5696450000000 1.0
C      1  0.4537310000000  0.5554420000000  0.4197730000000 1.0
C      1  0.5339190000000  0.4934370000000  0.6123160000000 1.0
C      1  0.3836960000000  0.4955760000000  0.4856410000000 1.0
C      1  0.5764080000000  0.4866260000000  0.4172130000000 1.0
C      1  0.5247580000000  0.5446980000000  0.4006840000000 1.0
C      1  0.5637310000000  0.5418640000000  0.5627380000000 1.0
C      1  0.4051550000000  0.5555470000000  0.5218120000000 1.0
C      1  0.4145560000000  0.5694390000000  0.4940320000000 1.0
C      1  0.5415860000000  0.5596040000000  0.4249610000000 1.0
C      1  0.5483700000000  0.5654470000000  0.5574280000000 1.0
C      1  0.5252210000000  0.5621750000000  0.5327270000000 1.0
C      1  0.4686330000000  0.5622700000000  0.5090510000000 1.0
C      1  0.5178610000000  0.5563070000000  0.4774070000000 1.0
C      1  0.5457900000000  0.4785680000000  0.4703340000000 1.0
C      1  0.5047080000000  0.4825080000000  0.5411020000000 1.0
C      1  0.4718680000000  0.4832880000000  0.4750980000000 1.0
C      1  0.5665490000000  0.4498060000000  0.5519550000000 1.0
C      1  0.4224080000000  0.4542300000000  0.5290520000000 1.0
C      1  0.5061130000000  0.4493000000000  0.4198760000000 1.0
C      1  0.6024060000000  0.5152470000000  0.5387870000000 1.0
C      1  0.4098520000000  0.5018590000000  0.5867870000000 1.0
C      1  0.4554820000000  0.5113650000000  0.3890660000000 1.0
C      1  0.4754170000000  0.4301920000000  0.5136600000000 1.0
C      1  0.4935100000000  0.4352460000000  0.4712430000000 1.0
C      1  0.5285110000000  0.4337340000000  0.5074930000000 1.0
C      1  0.5512410000000  0.5325740000000  0.4433770000000 1.0
C      1  0.5172940000000  0.5272030000000  0.5694590000000 1.0
C      1  0.4265150000000  0.5374120000000  0.4933190000000 1.0
C      1  0.4859220000000  0.5938680000000  0.5273080000000 1.0
C      1  0.4998930000000  0.5804120000000  0.4666550000000 1.0
C      1  0.5364970000000  0.5928280000000  0.4992040000000 1.0
C      1  0.5517920000000  0.4537070000000  0.4927840000000 1.0
C      1  0.4775700000000  0.4495280000000  0.5415650000000 1.0
C      1  0.4734300000000  0.4549090000000  0.4591930000000 1.0
C      1  0.5722580000000  0.4746300000000  0.5213010000000 1.0
C      1  0.4468710000000  0.4780400000000  0.5498110000000 1.0
C      1  0.4830660000000  0.4816080000000  0.4168810000000 1.0
C      1  0.5033910000000  0.4695100000000  0.4960980000000 1.0
C      1  0.5011660000000  0.3889020000000  0.4959330000000 1.0
C      1  0.5015760000000  0.3625730000000  0.4942540000000 1.0
C      1  0.4940230000000  0.6776000000000  0.4879130000000 1.0
C      1  0.5150680000000  0.2307570000000  0.4951080000000 1.0
C      1  0.5109440000000  0.2566170000000  0.4939470000000 1.0
C      1  0.5114330000000  0.5005170000000  0.5002110000000 1.0
C      1  0.4879270000000  0.7298130000000  0.4796470000000 1.0
C      1  0.4997040000000  0.6251790000000  0.4928620000000 1.0
C      1  0.4981370000000  0.6514340000000  0.4907180000000 1.0
C      1  0.5093190000000  0.2831650000000  0.4924500000000 1.0
C      1  0.5045860000000  0.3361660000000  0.4925490000000 1.0
C      1  0.5025630000000  0.5606540000000  0.5073850000000 1.0
C      1  0.5034140000000  0.5933720000000  0.4981280000000 1.0
C      1  0.4922690000000  0.7038830000000  0.4839470000000 1.0
C      1  0.5056440000000  0.3095500000000  0.4926000000000 1.0
C      1  0.4857260000000  0.7557810000000  0.4768460000000 1.0
C      1  0.4951660000000  0.5274960000000  0.5057420000000 1.0
C      1  0.5006030000000  0.4192080000000  0.4979990000000 1.0
END
