TITL C-3289335-9438-209 0.00307775128619109 125000 -881.541438910452 0 0 166 (C1) n - 1
REM
REM in /nfs/bkarasulu/CARBON/AIRSS/Generating-Clusters/AIREBO/with-SteepDescent/Higher-Symm/SD-CG/HFTN-CG
REM
REM
REM
REM
REM
REM ./C.cell (b20cbc046b6831c77cfcea5457e17084)
REM
REM compiler GCC version 9.2.1 20190827 (Red Hat 9.2.1-1)
REM options -cpp -mtune=generic -march=x86-64 -g -O0 -fpre-include=/usr/include/finclude/math-vector-fortran.h
REM seed 1288810239 -973100425 365823483 1523948196 2127320588 -2126193176 1592177320 -1009844169 847401585 1108000476 -858053963 -1544724736 1091328275 -1478402378 2078906107 -395094389 1775703235 -1690164941 -1177233122 607771287 225808909 1315568049 374360926 -1207160614 1906739828 -973194155 -480998125 -827845932 -1315202827 -218118677 -856784983 1085459101 1448758230
REM
CELL 1.54180   50.00000   50.00000   50.00000   90.00000   90.00000   90.00000
LATT -1
SFAC C  
C      1  0.4946120000000  0.4301360000000  0.5202410000000 1.0
C      1  0.4936370000000  0.4514840000000  0.4338460000000 1.0
C      1  0.4908340000000  0.5404570000000  0.4301480000000 1.0
C      1  0.4943820000000  0.5828050000000  0.5229880000000 1.0
C      1  0.4860520000000  0.5070220000000  0.5860920000000 1.0
C      1  0.5234340000000  0.5747280000000  0.5870980000000 1.0
C      1  0.5180060000000  0.4388470000000  0.5936860000000 1.0
C      1  0.5119610000000  0.3969650000000  0.4600910000000 1.0
C      1  0.5379920000000  0.4847350000000  0.3911640000000 1.0
C      1  0.5157820000000  0.5957570000000  0.4667860000000 1.0
C      1  0.4421250000000  0.5219250000000  0.4415480000000 1.0
C      1  0.4431260000000  0.5573570000000  0.5010630000000 1.0
C      1  0.4427390000000  0.5185000000000  0.5563190000000 1.0
C      1  0.4374180000000  0.4519300000000  0.5304550000000 1.0
C      1  0.4394650000000  0.4582310000000  0.4642490000000 1.0
C      1  0.4865940000000  0.4616680000000  0.3959790000000 1.0
C      1  0.4770280000000  0.5857030000000  0.4405370000000 1.0
C      1  0.4822820000000  0.5905140000000  0.5602740000000 1.0
C      1  0.4789290000000  0.4626150000000  0.5974970000000 1.0
C      1  0.4841250000000  0.4001910000000  0.4960250000000 1.0
C      1  0.5152040000000  0.4513170000000  0.5086210000000 1.0
C      1  0.5162030000000  0.4741000000000  0.4371750000000 1.0
C      1  0.5149520000000  0.5465600000000  0.4519670000000 1.0
C      1  0.5120880000000  0.5553220000000  0.5248960000000 1.0
C      1  0.5109400000000  0.4919820000000  0.5684650000000 1.0
C      1  0.5047960000000  0.5763300000000  0.4841140000000 1.0
C      1  0.5137510000000  0.5529780000000  0.5629020000000 1.0
C      1  0.5123110000000  0.4454510000000  0.5599730000000 1.0
C      1  0.5121820000000  0.4259380000000  0.4766600000000 1.0
C      1  0.5176580000000  0.4943160000000  0.4129690000000 1.0
C      1  0.4776840000000  0.4653030000000  0.3672750000000 1.0
C      1  0.4983770000000  0.6079070000000  0.4503240000000 1.0
C      1  0.4984740000000  0.5913030000000  0.5878010000000 1.0
C      1  0.4982170000000  0.4456490000000  0.6104270000000 1.0
C      1  0.4943810000000  0.3820120000000  0.4725960000000 1.0
C      1  0.4183450000000  0.5566960000000  0.4785850000000 1.0
C      1  0.4119120000000  0.5305220000000  0.5639750000000 1.0
C      1  0.4234590000000  0.4443700000000  0.5565690000000 1.0
C      1  0.4233680000000  0.4345610000000  0.4731030000000 1.0
C      1  0.4094240000000  0.5168210000000  0.4415510000000 1.0
C      1  0.4412900000000  0.4259770000000  0.5114530000000 1.0
C      1  0.4396880000000  0.4666730000000  0.4335810000000 1.0
C      1  0.4460050000000  0.5546490000000  0.4499190000000 1.0
C      1  0.4465970000000  0.5645600000000  0.5317370000000 1.0
C      1  0.4401320000000  0.4879430000000  0.5720250000000 1.0
C      1  0.4587190000000  0.6059770000000  0.5022670000000 1.0
C      1  0.4453960000000  0.4966100000000  0.6245690000000 1.0
C      1  0.4713740000000  0.4183230000000  0.5524110000000 1.0
C      1  0.4532360000000  0.4231180000000  0.4108170000000 1.0
C      1  0.4427570000000  0.5411220000000  0.4126800000000 1.0
C      1  0.4056330000000  0.5330520000000  0.4708300000000 1.0
C      1  0.3960650000000  0.5416610000000  0.5366950000000 1.0
C      1  0.4096790000000  0.4968540000000  0.5597860000000 1.0
C      1  0.4120460000000  0.4408420000000  0.5021230000000 1.0
C      1  0.3975070000000  0.4876590000000  0.4540270000000 1.0
C      1  0.5360760000000  0.5714350000000  0.4424210000000 1.0
C      1  0.5374330000000  0.5849380000000  0.5587610000000 1.0
C      1  0.5318050000000  0.4756200000000  0.5876000000000 1.0
C      1  0.5327040000000  0.4058500000000  0.4930340000000 1.0
C      1  0.5390320000000  0.4567650000000  0.3948000000000 1.0
C      1  0.4466660000000  0.5092030000000  0.4727690000000 1.0
C      1  0.4371780000000  0.5267960000000  0.4971290000000 1.0
C      1  0.4353020000000  0.5109190000000  0.5250220000000 1.0
C      1  0.4447220000000  0.4813590000000  0.5164070000000 1.0
C      1  0.4334940000000  0.4821490000000  0.4843220000000 1.0
C      1  0.4651720000000  0.4790380000000  0.5524630000000 1.0
C      1  0.4731070000000  0.4540340000000  0.4971900000000 1.0
C      1  0.4735500000000  0.4837160000000  0.4453790000000 1.0
C      1  0.4700930000000  0.5572860000000  0.4678070000000 1.0
C      1  0.4686910000000  0.5437520000000  0.5396610000000 1.0
C      1  0.4832640000000  0.4816080000000  0.4936400000000 1.0
C      1  0.4802680000000  0.5044020000000  0.4707630000000 1.0
C      1  0.4844830000000  0.5330390000000  0.4868140000000 1.0
C      1  0.4820720000000  0.5258840000000  0.5193570000000 1.0
C      1  0.4760600000000  0.4926510000000  0.5233010000000 1.0
C      1  0.4746510000000  0.5698840000000  0.4984870000000 1.0
C      1  0.4689320000000  0.5292560000000  0.5708310000000 1.0
C      1  0.4691300000000  0.4497550000000  0.5282380000000 1.0
C      1  0.4702830000000  0.4520660000000  0.4574010000000 1.0
C      1  0.4731590000000  0.5143300000000  0.4299070000000 1.0
C      1  0.5905600000000  0.5143660000000  0.4863400000000 1.0
C      1  0.5955290000000  0.5151810000000  0.5170440000000 1.0
C      1  0.5946080000000  0.4892170000000  0.5293340000000 1.0
C      1  0.5946100000000  0.4689850000000  0.5093420000000 1.0
C      1  0.5859860000000  0.4825400000000  0.4820580000000 1.0
C      1  0.5361410000000  0.4287620000000  0.4453120000000 1.0
C      1  0.5341450000000  0.5303480000000  0.4089350000000 1.0
C      1  0.5387490000000  0.5913790000000  0.4989540000000 1.0
C      1  0.5300240000000  0.5353220000000  0.5878570000000 1.0
C      1  0.5332780000000  0.4195100000000  0.5639460000000 1.0
C      1  0.5068560000000  0.5769270000000  0.4267230000000 1.0
C      1  0.5123700000000  0.5985030000000  0.5472110000000 1.0
C      1  0.5035480000000  0.4849050000000  0.6051050000000 1.0
C      1  0.5099050000000  0.4025950000000  0.5180660000000 1.0
C      1  0.5134710000000  0.4450870000000  0.3997930000000 1.0
C      1  0.4833330000000  0.5581610000000  0.5648000000000 1.0
C      1  0.4799690000000  0.4504590000000  0.5604700000000 1.0
C      1  0.4805100000000  0.4296940000000  0.4790230000000 1.0
C      1  0.4863800000000  0.4879920000000  0.4146570000000 1.0
C      1  0.4696460000000  0.5920440000000  0.4731780000000 1.0
C      1  0.5840190000000  0.4362860000000  0.5442580000000 1.0
C      1  0.5890720000000  0.4470930000000  0.4631540000000 1.0
C      1  0.5810020000000  0.5291120000000  0.4375630000000 1.0
C      1  0.5847060000000  0.5610470000000  0.4988190000000 1.0
C      1  0.5811630000000  0.5155420000000  0.5695500000000 1.0
C      1  0.5742820000000  0.4329590000000  0.4813910000000 1.0
C      1  0.5663070000000  0.5006090000000  0.4334060000000 1.0
C      1  0.5630960000000  0.5611800000000  0.4731260000000 1.0
C      1  0.5671620000000  0.5379630000000  0.5545140000000 1.0
C      1  0.5746630000000  0.4541420000000  0.5638360000000 1.0
C      1  0.5348280000000  0.5274490000000  0.5551210000000 1.0
C      1  0.5279660000000  0.4661320000000  0.5434040000000 1.0
C      1  0.5286580000000  0.4525960000000  0.4683980000000 1.0
C      1  0.5342520000000  0.5112600000000  0.4373610000000 1.0
C      1  0.5297310000000  0.5586110000000  0.4979250000000 1.0
C      1  0.5147190000000  0.5215950000000  0.5283150000000 1.0
C      1  0.5065770000000  0.4910340000000  0.5382160000000 1.0
C      1  0.5141240000000  0.4773040000000  0.4867210000000 1.0
C      1  0.5113630000000  0.4972700000000  0.4589770000000 1.0
C      1  0.5153730000000  0.5338460000000  0.4815130000000 1.0
C      1  0.5563100000000  0.4501060000000  0.4169020000000 1.0
C      1  0.5605930000000  0.5516600000000  0.4299350000000 1.0
C      1  0.5560520000000  0.5737660000000  0.5377370000000 1.0
C      1  0.5580040000000  0.4934760000000  0.5898360000000 1.0
C      1  0.5468450000000  0.4167210000000  0.5188710000000 1.0
C      1  0.3941070000000  0.4895050000000  0.4813340000000 1.0
C      1  0.3946970000000  0.5162700000000  0.4896490000000 1.0
C      1  0.4031350000000  0.5190500000000  0.5175300000000 1.0
C      1  0.4019110000000  0.4902240000000  0.5318500000000 1.0
C      1  0.4078880000000  0.4718760000000  0.5042290000000 1.0
C      1  0.5867350000000  0.5381200000000  0.4649360000000 1.0
C      1  0.5840540000000  0.5413220000000  0.5265140000000 1.0
C      1  0.5785060000000  0.4844070000000  0.5562690000000 1.0
C      1  0.5788370000000  0.4426510000000  0.5128620000000 1.0
C      1  0.5807330000000  0.4760200000000  0.4503000000000 1.0
C      1  0.4667250000000  0.4105920000000  0.5220230000000 1.0
C      1  0.4630360000000  0.4513040000000  0.4181960000000 1.0
C      1  0.4664510000000  0.5595690000000  0.4249190000000 1.0
C      1  0.4631120000000  0.5925370000000  0.5321410000000 1.0
C      1  0.4596940000000  0.4898440000000  0.5989900000000 1.0
C      1  0.4262870000000  0.4586850000000  0.5770660000000 1.0
C      1  0.4267350000000  0.4074400000000  0.4869440000000 1.0
C      1  0.4191780000000  0.4857360000000  0.4305600000000 1.0
C      1  0.4222180000000  0.5754670000000  0.4567190000000 1.0
C      1  0.4217550000000  0.5588290000000  0.5473810000000 1.0
C      1  0.5129310000000  0.5181770000000  0.6036860000000 1.0
C      1  0.5342740000000  0.4027210000000  0.5419710000000 1.0
C      1  0.5159170000000  0.4295800000000  0.4255680000000 1.0
C      1  0.5163610000000  0.5502820000000  0.4122700000000 1.0
C      1  0.5183370000000  0.6052670000000  0.5141120000000 1.0
C      1  0.5516130000000  0.5582200000000  0.5742910000000 1.0
C      1  0.5474210000000  0.4467700000000  0.5785720000000 1.0
C      1  0.5514120000000  0.4198850000000  0.4711550000000 1.0
C      1  0.5541190000000  0.5071720000000  0.4030760000000 1.0
C      1  0.5486390000000  0.5904380000000  0.4668090000000 1.0
C      1  0.5485300000000  0.4666460000000  0.4446360000000 1.0
C      1  0.5468720000000  0.5359810000000  0.4570340000000 1.0
C      1  0.5526920000000  0.5500090000000  0.5193410000000 1.0
C      1  0.5472750000000  0.4977070000000  0.5582380000000 1.0
C      1  0.5463730000000  0.4504990000000  0.5192660000000 1.0
C      1  0.5574500000000  0.5150300000000  0.4786420000000 1.0
C      1  0.5521350000000  0.5192000000000  0.5107100000000 1.0
C      1  0.5455210000000  0.4897340000000  0.5263450000000 1.0
C      1  0.5567620000000  0.4755910000000  0.4988010000000 1.0
C      1  0.5484760000000  0.4879780000000  0.4703710000000 1.0
C      1  0.5235610000000  0.5078540000000  0.4984900000000 1.0
END
