TITL C-3289331-6719-71 0.00233142415592972 125000 -612.854043480888 0 0 114 (C1) n - 1
REM
REM in /nfs/bkarasulu/CARBON/AIRSS/Generating-Clusters/AIREBO/with-SteepDescent/Higher-Symm/SD-CG/HFTN-CG
REM
REM
REM
REM
REM
REM ./C.cell (b20cbc046b6831c77cfcea5457e17084)
REM
REM compiler GCC version 9.2.1 20190827 (Red Hat 9.2.1-1)
REM options -cpp -mtune=generic -march=x86-64 -g -O0 -fpre-include=/usr/include/finclude/math-vector-fortran.h
REM seed 636739333 -358911368 -852688884 1232952856 2064541885 225523829 1827975503 -1187211688 -1388989243 1979044420 977710067 667759026 -322164717 -154920608 4548786 795110791 -751299782 1582746712 -1539474273 630506909 1061777947 -1535691233 -1073113621 1306335861 -2132704878 1661878196 -541929095 875838420 1223668770 1206946541 -330902830 -170800330 2134527822
REM
CELL 1.54180   50.00000   50.00000   50.00000   90.00000   90.00000   90.00000
LATT -1
SFAC C  
C      1  0.5747710000000  0.4750230000000  0.4562630000000 1.0
C      1  0.5685110000000  0.4528010000000  0.5034960000000 1.0
C      1  0.5798830000000  0.4830380000000  0.5492430000000 1.0
C      1  0.5746990000000  0.5434110000000  0.5246540000000 1.0
C      1  0.5734070000000  0.5277140000000  0.4678740000000 1.0
C      1  0.4467900000000  0.4656470000000  0.4530260000000 1.0
C      1  0.4517810000000  0.4390070000000  0.5223570000000 1.0
C      1  0.4582200000000  0.4949170000000  0.5692640000000 1.0
C      1  0.4552110000000  0.5658480000000  0.5130350000000 1.0
C      1  0.4428710000000  0.5416520000000  0.4484050000000 1.0
C      1  0.5051620000000  0.4993970000000  0.5864570000000 1.0
C      1  0.4976330000000  0.5909060000000  0.5346860000000 1.0
C      1  0.4947250000000  0.5600910000000  0.4307860000000 1.0
C      1  0.5049090000000  0.4499780000000  0.4388720000000 1.0
C      1  0.5068800000000  0.4195460000000  0.5222380000000 1.0
C      1  0.5007630000000  0.5629940000000  0.4816990000000 1.0
C      1  0.4988380000000  0.5040320000000  0.4337510000000 1.0
C      1  0.5019510000000  0.4121220000000  0.4734140000000 1.0
C      1  0.4919610000000  0.4663310000000  0.5454280000000 1.0
C      1  0.4991070000000  0.5404260000000  0.5461690000000 1.0
C      1  0.5361380000000  0.4822730000000  0.5789810000000 1.0
C      1  0.5387590000000  0.5714640000000  0.5531500000000 1.0
C      1  0.5374540000000  0.5735920000000  0.4498040000000 1.0
C      1  0.5322550000000  0.4656050000000  0.4256230000000 1.0
C      1  0.5368330000000  0.4084760000000  0.5105470000000 1.0
C      1  0.4384090000000  0.5201320000000  0.5224780000000 1.0
C      1  0.4277570000000  0.5399160000000  0.4780820000000 1.0
C      1  0.4271050000000  0.4923460000000  0.4606100000000 1.0
C      1  0.4345030000000  0.4428230000000  0.4940920000000 1.0
C      1  0.4345710000000  0.4789060000000  0.5507400000000 1.0
C      1  0.4634760000000  0.5396360000000  0.5168180000000 1.0
C      1  0.4667460000000  0.5363360000000  0.4701970000000 1.0
C      1  0.4644450000000  0.4926920000000  0.4545480000000 1.0
C      1  0.4611370000000  0.4615630000000  0.5010000000000 1.0
C      1  0.4575510000000  0.4969250000000  0.5359700000000 1.0
C      1  0.5353480000000  0.4368490000000  0.4420540000000 1.0
C      1  0.5356650000000  0.4242070000000  0.5408560000000 1.0
C      1  0.5340990000000  0.5162060000000  0.5796770000000 1.0
C      1  0.5300150000000  0.5883050000000  0.5246050000000 1.0
C      1  0.5272530000000  0.5489160000000  0.4286580000000 1.0
C      1  0.5229120000000  0.4806560000000  0.4614520000000 1.0
C      1  0.5145760000000  0.4601520000000  0.4944750000000 1.0
C      1  0.5196220000000  0.4959830000000  0.5379810000000 1.0
C      1  0.5261480000000  0.5356180000000  0.5082040000000 1.0
C      1  0.5255470000000  0.5317790000000  0.4684740000000 1.0
C      1  0.4722920000000  0.5445440000000  0.4315210000000 1.0
C      1  0.4713460000000  0.4498520000000  0.4387620000000 1.0
C      1  0.4776950000000  0.4197660000000  0.5302380000000 1.0
C      1  0.4787330000000  0.5109300000000  0.5796350000000 1.0
C      1  0.4763040000000  0.5875280000000  0.5176530000000 1.0
C      1  0.5521380000000  0.4270530000000  0.4874170000000 1.0
C      1  0.5568040000000  0.4646920000000  0.5662050000000 1.0
C      1  0.5527390000000  0.5424350000000  0.5524950000000 1.0
C      1  0.5487170000000  0.5781060000000  0.4766450000000 1.0
C      1  0.5484660000000  0.4909400000000  0.4415040000000 1.0
C      1  0.4945200000000  0.5256850000000  0.5158490000000 1.0
C      1  0.4944380000000  0.5295680000000  0.4820310000000 1.0
C      1  0.4948150000000  0.4989610000000  0.4671520000000 1.0
C      1  0.4904330000000  0.4790930000000  0.4944170000000 1.0
C      1  0.4886510000000  0.4934840000000  0.5251870000000 1.0
C      1  0.4518370000000  0.5054200000000  0.4180860000000 1.0
C      1  0.4480560000000  0.4166790000000  0.4535740000000 1.0
C      1  0.4525130000000  0.4377680000000  0.5708580000000 1.0
C      1  0.4530120000000  0.5475120000000  0.5656840000000 1.0
C      1  0.4557930000000  0.5847080000000  0.4741860000000 1.0
C      1  0.5677280000000  0.5638380000000  0.5016240000000 1.0
C      1  0.5666410000000  0.5196770000000  0.4419330000000 1.0
C      1  0.5671620000000  0.4467260000000  0.4640920000000 1.0
C      1  0.5609070000000  0.4602310000000  0.5332250000000 1.0
C      1  0.5670420000000  0.5116610000000  0.5502550000000 1.0
C      1  0.5921610000000  0.5138630000000  0.4824850000000 1.0
C      1  0.5927750000000  0.4857250000000  0.4759100000000 1.0
C      1  0.5931450000000  0.4715180000000  0.5012940000000 1.0
C      1  0.5942200000000  0.4912330000000  0.5224280000000 1.0
C      1  0.5915240000000  0.5171300000000  0.5114920000000 1.0
C      1  0.4082940000000  0.4586300000000  0.4972160000000 1.0
C      1  0.4096760000000  0.4910340000000  0.5385590000000 1.0
C      1  0.4047520000000  0.5179170000000  0.5181540000000 1.0
C      1  0.3991240000000  0.5356550000000  0.4933500000000 1.0
C      1  0.3988720000000  0.4851180000000  0.4585500000000 1.0
C      1  0.4782310000000  0.5356230000000  0.5676190000000 1.0
C      1  0.4804470000000  0.5846910000000  0.4884280000000 1.0
C      1  0.4763900000000  0.5186200000000  0.4212830000000 1.0
C      1  0.4872410000000  0.4239340000000  0.4514380000000 1.0
C      1  0.4768480000000  0.4393530000000  0.5534300000000 1.0
C      1  0.5086940000000  0.4811830000000  0.4144200000000 1.0
C      1  0.5123570000000  0.3945040000000  0.4917250000000 1.0
C      1  0.5060060000000  0.4712290000000  0.5722820000000 1.0
C      1  0.5083290000000  0.5686830000000  0.5512390000000 1.0
C      1  0.5076470000000  0.5726510000000  0.4536350000000 1.0
C      1  0.5266640000000  0.5672870000000  0.4999740000000 1.0
C      1  0.5268440000000  0.5171400000000  0.4395830000000 1.0
C      1  0.5208990000000  0.4366210000000  0.4728350000000 1.0
C      1  0.5151590000000  0.4491200000000  0.5339040000000 1.0
C      1  0.5249410000000  0.5230700000000  0.5495030000000 1.0
C      1  0.5526160000000  0.5193390000000  0.5204310000000 1.0
C      1  0.5515700000000  0.5394800000000  0.4859340000000 1.0
C      1  0.5322010000000  0.5036100000000  0.4804370000000 1.0
C      1  0.5456770000000  0.4660180000000  0.4820480000000 1.0
C      1  0.5342560000000  0.4711630000000  0.5199280000000 1.0
C      1  0.5551050000000  0.5374220000000  0.5863650000000 1.0
C      1  0.5552740000000  0.5941580000000  0.5059000000000 1.0
C      1  0.5573200000000  0.5376830000000  0.4235580000000 1.0
C      1  0.5485890000000  0.4127100000000  0.4567850000000 1.0
C      1  0.5523600000000  0.4339280000000  0.5620970000000 1.0
C      1  0.4399060000000  0.4383440000000  0.4652180000000 1.0
C      1  0.4386670000000  0.4495680000000  0.5481330000000 1.0
C      1  0.4321020000000  0.5378550000000  0.5507950000000 1.0
C      1  0.4379240000000  0.5675020000000  0.4891910000000 1.0
C      1  0.4341590000000  0.5129510000000  0.4376350000000 1.0
C      1  0.4328120000000  0.5083480000000  0.4900950000000 1.0
C      1  0.4107910000000  0.4875000000000  0.5054950000000 1.0
C      1  0.4602270000000  0.4946120000000  0.4940520000000 1.0
C      1  0.5406770000000  0.4986300000000  0.5041640000000 1.0
END
