TITL C-3289332-8317-118 0.00102543809799186 125000 -977.93490295248 0 0 174 (C1) n - 1
REM
REM in /nfs/bkarasulu/CARBON/AIRSS/Generating-Clusters/AIREBO/with-SteepDescent/Higher-Symm/SD-CG/HFTN-CG
REM
REM
REM
REM
REM
REM ./C.cell (b20cbc046b6831c77cfcea5457e17084)
REM
REM compiler GCC version 9.2.1 20190827 (Red Hat 9.2.1-1)
REM options -cpp -mtune=generic -march=x86-64 -g -O0 -fpre-include=/usr/include/finclude/math-vector-fortran.h
REM seed -164571226 1593030438 -1164048772 -2073726715 -1140688741 1231280912 -31660167 1294536168 -1610197337 -233840530 1800757717 -511292605 -951423627 208256275 757703551 -165118107 -1937073685 359791291 -170902526 1158948933 -1570003647 -1524228813 -2006041581 1410189257 -392381973 -890165454 700102647 1290406287 -231865409 -762486467 126431219 61895303 -786435235
REM
CELL 1.54180   50.00000   50.00000   50.00000   90.00000   90.00000   90.00000
LATT -1
SFAC C  
C      1  0.5256250000000  0.5820710000000  0.5871860000000 1.0
C      1  0.5119230000000  0.6159580000000  0.4980430000000 1.0
C      1  0.5328710000000  0.5728080000000  0.4037340000000 1.0
C      1  0.5141370000000  0.4690000000000  0.3817260000000 1.0
C      1  0.5203000000000  0.3847730000000  0.4569360000000 1.0
C      1  0.5195450000000  0.3988650000000  0.5592780000000 1.0
C      1  0.5124190000000  0.4799630000000  0.6239360000000 1.0
C      1  0.4994820000000  0.5397390000000  0.4847030000000 1.0
C      1  0.4995500000000  0.5142290000000  0.4619860000000 1.0
C      1  0.4982920000000  0.4801690000000  0.4635090000000 1.0
C      1  0.4932610000000  0.4629970000000  0.4924640000000 1.0
C      1  0.5053090000000  0.4456120000000  0.5191950000000 1.0
C      1  0.4857060000000  0.5071700000000  0.5300500000000 1.0
C      1  0.4955420000000  0.5351600000000  0.5182160000000 1.0
C      1  0.4168530000000  0.4188240000000  0.4940400000000 1.0
C      1  0.4378460000000  0.4253830000000  0.5532840000000 1.0
C      1  0.4357700000000  0.5006890000000  0.5841090000000 1.0
C      1  0.4295310000000  0.5697510000000  0.5521350000000 1.0
C      1  0.4082540000000  0.5914980000000  0.4701980000000 1.0
C      1  0.4375110000000  0.5469040000000  0.4260590000000 1.0
C      1  0.4232110000000  0.4784650000000  0.4197070000000 1.0
C      1  0.5271500000000  0.4030420000000  0.4296050000000 1.0
C      1  0.5374740000000  0.3882900000000  0.5351660000000 1.0
C      1  0.5232990000000  0.4554720000000  0.6139160000000 1.0
C      1  0.5293380000000  0.5492540000000  0.5892290000000 1.0
C      1  0.5319000000000  0.6133930000000  0.5178970000000 1.0
C      1  0.5167970000000  0.5870440000000  0.4308210000000 1.0
C      1  0.5219170000000  0.4990370000000  0.3930540000000 1.0
C      1  0.4018460000000  0.4745730000000  0.4838650000000 1.0
C      1  0.3967250000000  0.4747180000000  0.5143520000000 1.0
C      1  0.4082460000000  0.4973840000000  0.5322150000000 1.0
C      1  0.4012480000000  0.5271350000000  0.5268720000000 1.0
C      1  0.4123350000000  0.5363420000000  0.4970630000000 1.0
C      1  0.4013550000000  0.5241620000000  0.4673080000000 1.0
C      1  0.3949820000000  0.4958480000000  0.4617880000000 1.0
C      1  0.4943800000000  0.4070710000000  0.5493140000000 1.0
C      1  0.4149470000000  0.4510600000000  0.6032440000000 1.0
C      1  0.4016580000000  0.5584890000000  0.6009710000000 1.0
C      1  0.4579180000000  0.5885700000000  0.4752090000000 1.0
C      1  0.3662030000000  0.5640360000000  0.4137630000000 1.0
C      1  0.4703240000000  0.4808620000000  0.4115620000000 1.0
C      1  0.4582450000000  0.4208790000000  0.4666360000000 1.0
C      1  0.5533990000000  0.5961370000000  0.5098350000000 1.0
C      1  0.5502550000000  0.5813460000000  0.4286900000000 1.0
C      1  0.5529830000000  0.4881000000000  0.4020360000000 1.0
C      1  0.5473970000000  0.4225390000000  0.4489400000000 1.0
C      1  0.5652540000000  0.4047070000000  0.5244520000000 1.0
C      1  0.5502410000000  0.4586220000000  0.5984320000000 1.0
C      1  0.5592660000000  0.5409310000000  0.5857810000000 1.0
C      1  0.3863970000000  0.5560830000000  0.4271910000000 1.0
C      1  0.4478410000000  0.4974780000000  0.4124990000000 1.0
C      1  0.4321290000000  0.4251260000000  0.4661280000000 1.0
C      1  0.4222840000000  0.4351970000000  0.5298560000000 1.0
C      1  0.4187040000000  0.4725960000000  0.5880970000000 1.0
C      1  0.4093930000000  0.5574860000000  0.5755480000000 1.0
C      1  0.4361820000000  0.5806530000000  0.4965090000000 1.0
C      1  0.6042690000000  0.5250430000000  0.5197030000000 1.0
C      1  0.6136740000000  0.5283170000000  0.4923780000000 1.0
C      1  0.6062150000000  0.5133340000000  0.4690460000000 1.0
C      1  0.5997640000000  0.4871820000000  0.4759090000000 1.0
C      1  0.6010420000000  0.4575740000000  0.4928960000000 1.0
C      1  0.6054820000000  0.4639980000000  0.5263030000000 1.0
C      1  0.5975410000000  0.4970750000000  0.5256940000000 1.0
C      1  0.5690650000000  0.3830870000000  0.4778120000000 1.0
C      1  0.5617950000000  0.4147280000000  0.5810600000000 1.0
C      1  0.5492660000000  0.5098050000000  0.6289120000000 1.0
C      1  0.5665560000000  0.5863720000000  0.5577230000000 1.0
C      1  0.5482060000000  0.6185650000000  0.4648050000000 1.0
C      1  0.5661740000000  0.5389190000000  0.3992630000000 1.0
C      1  0.5547090000000  0.4450290000000  0.3912440000000 1.0
C      1  0.5942480000000  0.4952590000000  0.6170410000000 1.0
C      1  0.5936160000000  0.5482710000000  0.5328480000000 1.0
C      1  0.5870850000000  0.5877570000000  0.4690730000000 1.0
C      1  0.5978720000000  0.5225370000000  0.4437720000000 1.0
C      1  0.5936560000000  0.4603470000000  0.4151550000000 1.0
C      1  0.5919390000000  0.4331910000000  0.4770190000000 1.0
C      1  0.5989950000000  0.4456470000000  0.5467030000000 1.0
C      1  0.5236340000000  0.6053140000000  0.5443330000000 1.0
C      1  0.5036970000000  0.6025200000000  0.4517210000000 1.0
C      1  0.5182500000000  0.5287880000000  0.3961390000000 1.0
C      1  0.5149150000000  0.4301870000000  0.4131780000000 1.0
C      1  0.5271950000000  0.3711110000000  0.5115470000000 1.0
C      1  0.5174760000000  0.4374040000000  0.5898090000000 1.0
C      1  0.5147050000000  0.5231210000000  0.5975800000000 1.0
C      1  0.5229440000000  0.5630950000000  0.5589090000000 1.0
C      1  0.5182560000000  0.5775110000000  0.5066990000000 1.0
C      1  0.5202090000000  0.5540170000000  0.4374020000000 1.0
C      1  0.5282490000000  0.4893960000000  0.4250380000000 1.0
C      1  0.5136250000000  0.4239730000000  0.4526300000000 1.0
C      1  0.5393390000000  0.4223290000000  0.5338830000000 1.0
C      1  0.5329040000000  0.4736400000000  0.5750970000000 1.0
C      1  0.4172620000000  0.4591000000000  0.4003620000000 1.0
C      1  0.4043150000000  0.3976670000000  0.5051140000000 1.0
C      1  0.4339100000000  0.4107580000000  0.5749070000000 1.0
C      1  0.4378030000000  0.5174460000000  0.6058940000000 1.0
C      1  0.4268610000000  0.5969330000000  0.5468820000000 1.0
C      1  0.4336930000000  0.6005800000000  0.4619330000000 1.0
C      1  0.4440060000000  0.5678350000000  0.4119550000000 1.0
C      1  0.4114220000000  0.4900930000000  0.5626320000000 1.0
C      1  0.4058530000000  0.5457540000000  0.5467260000000 1.0
C      1  0.4082180000000  0.5682200000000  0.4899030000000 1.0
C      1  0.4098810000000  0.5442310000000  0.4413940000000 1.0
C      1  0.3983280000000  0.4878360000000  0.4356890000000 1.0
C      1  0.4088440000000  0.4455510000000  0.4745090000000 1.0
C      1  0.3989560000000  0.4499660000000  0.5257910000000 1.0
C      1  0.5296970000000  0.5553670000000  0.4840640000000 1.0
C      1  0.5284210000000  0.5231610000000  0.4463420000000 1.0
C      1  0.5268690000000  0.4692770000000  0.4478370000000 1.0
C      1  0.5294100000000  0.4353620000000  0.4975120000000 1.0
C      1  0.5300200000000  0.4518920000000  0.5417030000000 1.0
C      1  0.5428110000000  0.5002580000000  0.5660140000000 1.0
C      1  0.5222390000000  0.5451600000000  0.5319030000000 1.0
C      1  0.5049180000000  0.5808300000000  0.5361800000000 1.0
C      1  0.4975420000000  0.5892870000000  0.4824290000000 1.0
C      1  0.5032750000000  0.5361390000000  0.4181590000000 1.0
C      1  0.5028940000000  0.4486750000000  0.4360830000000 1.0
C      1  0.5051390000000  0.4269010000000  0.4805050000000 1.0
C      1  0.5075410000000  0.4549980000000  0.5670240000000 1.0
C      1  0.5115610000000  0.5074050000000  0.5737130000000 1.0
C      1  0.4414360000000  0.5445920000000  0.5126010000000 1.0
C      1  0.4337590000000  0.5333910000000  0.4634230000000 1.0
C      1  0.4400390000000  0.5032900000000  0.4514090000000 1.0
C      1  0.4319700000000  0.4780590000000  0.4718610000000 1.0
C      1  0.4492020000000  0.4638720000000  0.5233560000000 1.0
C      1  0.4405170000000  0.4921190000000  0.5349320000000 1.0
C      1  0.4480900000000  0.5244060000000  0.5372510000000 1.0
C      1  0.4755440000000  0.4341090000000  0.4904520000000 1.0
C      1  0.4848310000000  0.4295560000000  0.5352170000000 1.0
C      1  0.4877130000000  0.5025170000000  0.5607360000000 1.0
C      1  0.4834360000000  0.5594180000000  0.5355820000000 1.0
C      1  0.4788210000000  0.5625060000000  0.4790060000000 1.0
C      1  0.4837060000000  0.5245240000000  0.4352780000000 1.0
C      1  0.4781170000000  0.4669550000000  0.4395370000000 1.0
C      1  0.5504810000000  0.4985180000000  0.5374090000000 1.0
C      1  0.5462020000000  0.5248950000000  0.5242700000000 1.0
C      1  0.5521190000000  0.5345260000000  0.4927320000000 1.0
C      1  0.5388300000000  0.5106900000000  0.4730080000000 1.0
C      1  0.5417720000000  0.4805960000000  0.4737570000000 1.0
C      1  0.5383170000000  0.4666320000000  0.4977050000000 1.0
C      1  0.5404970000000  0.4758180000000  0.5238460000000 1.0
C      1  0.5203330000000  0.6195150000000  0.4697400000000 1.0
C      1  0.5394240000000  0.5475140000000  0.3931320000000 1.0
C      1  0.5261750000000  0.4448480000000  0.3917230000000 1.0
C      1  0.5361190000000  0.3832590000000  0.4836420000000 1.0
C      1  0.5322820000000  0.4138960000000  0.5800700000000 1.0
C      1  0.5220180000000  0.5070560000000  0.6205290000000 1.0
C      1  0.5411430000000  0.5979260000000  0.5657050000000 1.0
C      1  0.4543390000000  0.5563650000000  0.5395140000000 1.0
C      1  0.4484430000000  0.5506510000000  0.4820770000000 1.0
C      1  0.4542080000000  0.5226630000000  0.4299290000000 1.0
C      1  0.4471160000000  0.4719850000000  0.4430980000000 1.0
C      1  0.4442720000000  0.4364060000000  0.5038990000000 1.0
C      1  0.4604210000000  0.4399000000000  0.5403020000000 1.0
C      1  0.4562650000000  0.5042940000000  0.5616420000000 1.0
C      1  0.5490440000000  0.4120800000000  0.4964910000000 1.0
C      1  0.5544250000000  0.4506540000000  0.5656060000000 1.0
C      1  0.5628610000000  0.5139410000000  0.5846720000000 1.0
C      1  0.5471380000000  0.5643530000000  0.5189140000000 1.0
C      1  0.5394940000000  0.5701650000000  0.4589430000000 1.0
C      1  0.5522320000000  0.5126310000000  0.4259060000000 1.0
C      1  0.5515430000000  0.4500250000000  0.4377610000000 1.0
C      1  0.5693480000000  0.5025250000000  0.6099050000000 1.0
C      1  0.5721820000000  0.5661630000000  0.5380890000000 1.0
C      1  0.5606670000000  0.5932780000000  0.4649710000000 1.0
C      1  0.5786110000000  0.5286760000000  0.4250030000000 1.0
C      1  0.5679150000000  0.4526270000000  0.4150470000000 1.0
C      1  0.5673830000000  0.4155720000000  0.4703680000000 1.0
C      1  0.5781490000000  0.4319730000000  0.5595280000000 1.0
C      1  0.4767110000000  0.4866710000000  0.5055960000000 1.0
C      1  0.5824390000000  0.4842130000000  0.5018110000000 1.0
C      1  0.4329810000000  0.5093240000000  0.4966440000000 1.0
C      1  0.5258840000000  0.5151540000000  0.5015450000000 1.0
C      1  0.5083650000000  0.4952870000000  0.5103060000000 1.0
C      1  0.4483430000000  0.4844690000000  0.4966500000000 1.0
END
