TITL C-3289329-2751-700 0.000232625744101408 125000 -671.694989096118 0 0 121 (C1) n - 1
REM
REM in /nfs/bkarasulu/CARBON/AIRSS/Generating-Clusters/AIREBO/with-SteepDescent/Higher-Symm/SD-CG/HFTN-CG
REM
REM
REM
REM
REM
REM ./C.cell (b20cbc046b6831c77cfcea5457e17084)
REM
REM compiler GCC version 9.2.1 20190827 (Red Hat 9.2.1-1)
REM options -cpp -mtune=generic -march=x86-64 -g -O0 -fpre-include=/usr/include/finclude/math-vector-fortran.h
REM seed 380832135 -1083498538 -813627430 1072430676 332300284 822644345 -1775949200 1735932568 -190026462 -1593465198 -786480965 1571689197 -1403754349 -273202238 871135990 1401974732 747556965 -312494773 -1918636619 1094488720 -519358072 -1301042994 1687654158 62122470 1633339783 -812788590 -2088133451 33511887 -153547382 2144842956 714317767 -609902852 225253451
REM
CELL 1.54180   50.00000   50.00000   50.00000   90.00000   90.00000   90.00000
LATT -1
SFAC C  
C      1  0.5371670000000  0.5101390000000  0.5834870000000 1.0
C      1  0.5271620000000  0.5485520000000  0.5871360000000 1.0
C      1  0.4875300000000  0.5469140000000  0.5827650000000 1.0
C      1  0.4410320000000  0.5231120000000  0.5823260000000 1.0
C      1  0.4470070000000  0.4637940000000  0.5790640000000 1.0
C      1  0.4969620000000  0.4507090000000  0.5924500000000 1.0
C      1  0.5469510000000  0.4716160000000  0.5790010000000 1.0
C      1  0.5919360000000  0.4842390000000  0.4965950000000 1.0
C      1  0.5634930000000  0.5572320000000  0.4993040000000 1.0
C      1  0.4991290000000  0.5977470000000  0.5050880000000 1.0
C      1  0.4235010000000  0.5490660000000  0.5087590000000 1.0
C      1  0.4181690000000  0.4725130000000  0.5014740000000 1.0
C      1  0.4747930000000  0.4140800000000  0.5096630000000 1.0
C      1  0.5527320000000  0.4278040000000  0.4993620000000 1.0
C      1  0.4618830000000  0.4410380000000  0.4860960000000 1.0
C      1  0.5233970000000  0.4214510000000  0.4733210000000 1.0
C      1  0.5787290000000  0.4606720000000  0.4673880000000 1.0
C      1  0.5712760000000  0.5281390000000  0.4730450000000 1.0
C      1  0.5388600000000  0.5922570000000  0.4877830000000 1.0
C      1  0.4689930000000  0.5574900000000  0.4916440000000 1.0
C      1  0.4251080000000  0.5095030000000  0.4693930000000 1.0
C      1  0.4454960000000  0.5656850000000  0.4558580000000 1.0
C      1  0.4177350000000  0.5098530000000  0.4368280000000 1.0
C      1  0.4408430000000  0.4270410000000  0.4623270000000 1.0
C      1  0.5183070000000  0.4125970000000  0.4408090000000 1.0
C      1  0.5800080000000  0.4497900000000  0.4371690000000 1.0
C      1  0.5834590000000  0.5353460000000  0.4421240000000 1.0
C      1  0.5099430000000  0.5742140000000  0.4539460000000 1.0
C      1  0.5988200000000  0.4512120000000  0.4900520000000 1.0
C      1  0.5887230000000  0.5374640000000  0.4972540000000 1.0
C      1  0.5252720000000  0.6171880000000  0.5019740000000 1.0
C      1  0.4464180000000  0.5701380000000  0.5002490000000 1.0
C      1  0.4056090000000  0.4958920000000  0.4871660000000 1.0
C      1  0.4451120000000  0.4132500000000  0.4930390000000 1.0
C      1  0.5348480000000  0.4023340000000  0.4965590000000 1.0
C      1  0.5696100000000  0.4658970000000  0.5696790000000 1.0
C      1  0.5622020000000  0.5140020000000  0.5730390000000 1.0
C      1  0.5347130000000  0.5720850000000  0.5757910000000 1.0
C      1  0.4689220000000  0.5668630000000  0.5785550000000 1.0
C      1  0.4160870000000  0.5167910000000  0.5724680000000 1.0
C      1  0.4348360000000  0.4417400000000  0.5692950000000 1.0
C      1  0.5040000000000  0.4269510000000  0.5805960000000 1.0
C      1  0.4108720000000  0.4782440000000  0.5337840000000 1.0
C      1  0.4524540000000  0.4162710000000  0.5319960000000 1.0
C      1  0.5258210000000  0.4072020000000  0.5709420000000 1.0
C      1  0.6010450000000  0.4618380000000  0.5219690000000 1.0
C      1  0.5660520000000  0.5425260000000  0.5296950000000 1.0
C      1  0.5080920000000  0.5894830000000  0.5362950000000 1.0
C      1  0.4346910000000  0.5632750000000  0.5375850000000 1.0
C      1  0.4770750000000  0.4835890000000  0.5349510000000 1.0
C      1  0.5003020000000  0.4704240000000  0.5209910000000 1.0
C      1  0.5218090000000  0.4527370000000  0.5378230000000 1.0
C      1  0.5199990000000  0.5050780000000  0.5185390000000 1.0
C      1  0.5047210000000  0.5261370000000  0.5081610000000 1.0
C      1  0.4826990000000  0.5311050000000  0.5237160000000 1.0
C      1  0.4661790000000  0.5099490000000  0.5272010000000 1.0
C      1  0.4768880000000  0.4594460000000  0.4428650000000 1.0
C      1  0.5234300000000  0.4437420000000  0.4280290000000 1.0
C      1  0.5439520000000  0.4843230000000  0.4436300000000 1.0
C      1  0.5440030000000  0.5317980000000  0.4394630000000 1.0
C      1  0.4904420000000  0.5399900000000  0.4487620000000 1.0
C      1  0.4632200000000  0.5270850000000  0.4349750000000 1.0
C      1  0.4498980000000  0.4903300000000  0.4426080000000 1.0
C      1  0.4762620000000  0.5956320000000  0.5303500000000 1.0
C      1  0.4073390000000  0.5259640000000  0.5213280000000 1.0
C      1  0.4160260000000  0.4474390000000  0.5226560000000 1.0
C      1  0.4990540000000  0.4078080000000  0.5252800000000 1.0
C      1  0.5495840000000  0.4477450000000  0.5257790000000 1.0
C      1  0.5785650000000  0.4942720000000  0.5262050000000 1.0
C      1  0.5528120000000  0.5729130000000  0.5274210000000 1.0
C      1  0.4180810000000  0.5061020000000  0.5421720000000 1.0
C      1  0.4343110000000  0.4325690000000  0.5432330000000 1.0
C      1  0.5094790000000  0.4257610000000  0.5472520000000 1.0
C      1  0.5729910000000  0.4656690000000  0.5395950000000 1.0
C      1  0.5620960000000  0.5159640000000  0.5411090000000 1.0
C      1  0.5291870000000  0.5727570000000  0.5457890000000 1.0
C      1  0.4633770000000  0.5718920000000  0.5472220000000 1.0
C      1  0.4497450000000  0.5051320000000  0.5545580000000 1.0
C      1  0.4700060000000  0.4799360000000  0.5653160000000 1.0
C      1  0.4963160000000  0.4736040000000  0.5776860000000 1.0
C      1  0.5216300000000  0.4776280000000  0.5604700000000 1.0
C      1  0.5300230000000  0.5088520000000  0.5498960000000 1.0
C      1  0.5177730000000  0.5398200000000  0.5572430000000 1.0
C      1  0.4863130000000  0.5468360000000  0.5487300000000 1.0
C      1  0.4919000000000  0.4320280000000  0.4805680000000 1.0
C      1  0.5502390000000  0.4424250000000  0.4709140000000 1.0
C      1  0.5755430000000  0.4942440000000  0.4704160000000 1.0
C      1  0.5500010000000  0.5699950000000  0.4761090000000 1.0
C      1  0.4917150000000  0.5796390000000  0.4824700000000 1.0
C      1  0.4312210000000  0.5422280000000  0.4763320000000 1.0
C      1  0.4416880000000  0.4657800000000  0.4851270000000 1.0
C      1  0.5243330000000  0.5190550000000  0.4190630000000 1.0
C      1  0.4992930000000  0.5296220000000  0.4190770000000 1.0
C      1  0.4745100000000  0.5176940000000  0.4047670000000 1.0
C      1  0.4631280000000  0.4908770000000  0.4111880000000 1.0
C      1  0.4831840000000  0.4708880000000  0.4162740000000 1.0
C      1  0.5110770000000  0.4691070000000  0.4124790000000 1.0
C      1  0.5260170000000  0.4915260000000  0.4201800000000 1.0
C      1  0.5335580000000  0.4927590000000  0.4718760000000 1.0
C      1  0.5375420000000  0.5237940000000  0.4718700000000 1.0
C      1  0.5058640000000  0.5284170000000  0.4754380000000 1.0
C      1  0.4735660000000  0.5307080000000  0.4837190000000 1.0
C      1  0.4570800000000  0.5063590000000  0.4717380000000 1.0
C      1  0.4777710000000  0.4798550000000  0.4692100000000 1.0
C      1  0.4942920000000  0.4641470000000  0.4890840000000 1.0
C      1  0.4499160000000  0.5941170000000  0.5123640000000 1.0
C      1  0.3916930000000  0.5129910000000  0.5030180000000 1.0
C      1  0.4185910000000  0.4175830000000  0.5097080000000 1.0
C      1  0.5176840000000  0.3915520000000  0.5137030000000 1.0
C      1  0.5802250000000  0.4359630000000  0.5140870000000 1.0
C      1  0.5974130000000  0.5190520000000  0.5153430000000 1.0
C      1  0.5518580000000  0.6028610000000  0.5155040000000 1.0
C      1  0.4969970000000  0.4379380000000  0.4485310000000 1.0
C      1  0.5491610000000  0.4546860000000  0.4412490000000 1.0
C      1  0.5671920000000  0.5069130000000  0.4400100000000 1.0
C      1  0.5347220000000  0.5600900000000  0.4553730000000 1.0
C      1  0.4764300000000  0.5684670000000  0.4542270000000 1.0
C      1  0.4362060000000  0.5370270000000  0.4430390000000 1.0
C      1  0.4466880000000  0.4585640000000  0.4535160000000 1.0
C      1  0.4836020000000  0.5011940000000  0.4433900000000 1.0
C      1  0.5210380000000  0.4822460000000  0.4966030000000 1.0
END
