TITL C-3289322-3858-362 -0.00034743521398941 125000 -831.104299114291 0 0 148 (C1) n - 1
REM
REM in /nfs/bkarasulu/CARBON/AIRSS/Generating-Clusters/AIREBO/with-SteepDescent/Higher-Symm/SD-CG/HFTN-CG
REM
REM
REM
REM
REM
REM ./C.cell (b20cbc046b6831c77cfcea5457e17084)
REM
REM compiler GCC version 9.2.1 20190827 (Red Hat 9.2.1-1)
REM options -cpp -mtune=generic -march=x86-64 -g -O0 -fpre-include=/usr/include/finclude/math-vector-fortran.h
REM seed -1340818869 -1147427038 -472209743 -766103352 1136297953 -1318089468 898546661 150936565 -2065817076 1075820761 2129793380 -1087657772 1111577279 -1197675697 567368350 286228172 1219283682 -820359581 -757415526 -457922165 -42077099 -199801960 1189732640 1739126004 1735602213 -1322852375 -1608426200 -220352517 2062237414 -367178380 -1039520367 -119163806 -642563147
REM
CELL 1.54180   50.00000   50.00000   50.00000   90.00000   90.00000   90.00000
LATT -1
SFAC C  
C      1  0.4366860000000  0.5090580000000  0.4180410000000 1.0
C      1  0.4384240000000  0.4302170000000  0.4713340000000 1.0
C      1  0.4296340000000  0.4429880000000  0.5599540000000 1.0
C      1  0.4297640000000  0.5426620000000  0.5665390000000 1.0
C      1  0.4421970000000  0.5730890000000  0.4817740000000 1.0
C      1  0.5656860000000  0.5063140000000  0.5694780000000 1.0
C      1  0.5569080000000  0.4335270000000  0.5249420000000 1.0
C      1  0.5606180000000  0.4554280000000  0.4362500000000 1.0
C      1  0.5615010000000  0.5451340000000  0.4262980000000 1.0
C      1  0.5607760000000  0.5748710000000  0.5224380000000 1.0
C      1  0.5326470000000  0.5685690000000  0.4399840000000 1.0
C      1  0.5212530000000  0.4511780000000  0.4079880000000 1.0
C      1  0.5221250000000  0.4001460000000  0.5172570000000 1.0
C      1  0.5384970000000  0.4814150000000  0.5841650000000 1.0
C      1  0.5225190000000  0.5929190000000  0.5469770000000 1.0
C      1  0.4496160000000  0.5763120000000  0.5593860000000 1.0
C      1  0.4564760000000  0.4592770000000  0.5842470000000 1.0
C      1  0.4520070000000  0.3983750000000  0.4883590000000 1.0
C      1  0.4544070000000  0.4766080000000  0.4029800000000 1.0
C      1  0.4772900000000  0.5905830000000  0.4529980000000 1.0
C      1  0.5150120000000  0.5399060000000  0.5112380000000 1.0
C      1  0.5161530000000  0.5292170000000  0.4567220000000 1.0
C      1  0.5142790000000  0.4737190000000  0.4663420000000 1.0
C      1  0.5103920000000  0.4598740000000  0.5150930000000 1.0
C      1  0.5139690000000  0.5030350000000  0.5466300000000 1.0
C      1  0.4863750000000  0.5527100000000  0.4850520000000 1.0
C      1  0.4818360000000  0.5295790000000  0.5423820000000 1.0
C      1  0.4895940000000  0.4698640000000  0.5583340000000 1.0
C      1  0.4821890000000  0.4352810000000  0.4876710000000 1.0
C      1  0.4792440000000  0.5016120000000  0.4458670000000 1.0
C      1  0.5373980000000  0.4523970000000  0.5567930000000 1.0
C      1  0.5389190000000  0.5461700000000  0.5581900000000 1.0
C      1  0.5403220000000  0.5731820000000  0.4789540000000 1.0
C      1  0.5361830000000  0.4974980000000  0.4233300000000 1.0
C      1  0.5387950000000  0.4275870000000  0.4800070000000 1.0
C      1  0.4652560000000  0.4532870000000  0.4402190000000 1.0
C      1  0.4565690000000  0.5458730000000  0.4409790000000 1.0
C      1  0.4657490000000  0.5748300000000  0.5231520000000 1.0
C      1  0.4559330000000  0.5070910000000  0.5785650000000 1.0
C      1  0.4541100000000  0.4274930000000  0.5326970000000 1.0
C      1  0.5610510000000  0.5600980000000  0.4568370000000 1.0
C      1  0.5666720000000  0.4847910000000  0.4316060000000 1.0
C      1  0.5648440000000  0.4340770000000  0.4979130000000 1.0
C      1  0.5703620000000  0.4761700000000  0.5728970000000 1.0
C      1  0.5659900000000  0.5531670000000  0.5420070000000 1.0
C      1  0.4229420000000  0.5620990000000  0.5438100000000 1.0
C      1  0.4323560000000  0.4741800000000  0.5659220000000 1.0
C      1  0.4355400000000  0.4234870000000  0.5045850000000 1.0
C      1  0.4255570000000  0.4820490000000  0.4143900000000 1.0
C      1  0.4332980000000  0.5581590000000  0.4607600000000 1.0
C      1  0.5531340000000  0.5087450000000  0.4724290000000 1.0
C      1  0.5503460000000  0.4786200000000  0.4828410000000 1.0
C      1  0.5484840000000  0.4821310000000  0.5148210000000 1.0
C      1  0.5525900000000  0.5117040000000  0.5222800000000 1.0
C      1  0.5575810000000  0.5271600000000  0.4969200000000 1.0
C      1  0.4517120000000  0.5051210000000  0.5286740000000 1.0
C      1  0.4534820000000  0.4762650000000  0.5142290000000 1.0
C      1  0.4555350000000  0.4809850000000  0.4818320000000 1.0
C      1  0.4551400000000  0.5126940000000  0.4756410000000 1.0
C      1  0.4505860000000  0.5278030000000  0.5049990000000 1.0
C      1  0.4121250000000  0.5385790000000  0.4665930000000 1.0
C      1  0.4169280000000  0.4728180000000  0.4390430000000 1.0
C      1  0.4102180000000  0.4430090000000  0.5038040000000 1.0
C      1  0.4108340000000  0.4889650000000  0.5484530000000 1.0
C      1  0.4119260000000  0.5454680000000  0.5170150000000 1.0
C      1  0.5947250000000  0.5375830000000  0.5333230000000 1.0
C      1  0.5901440000000  0.4752210000000  0.5454040000000 1.0
C      1  0.5896390000000  0.4465560000000  0.4939550000000 1.0
C      1  0.5889940000000  0.4927910000000  0.4491490000000 1.0
C      1  0.5891170000000  0.5503460000000  0.4735010000000 1.0
C      1  0.4102400000000  0.4746410000000  0.5184910000000 1.0
C      1  0.4122220000000  0.5180550000000  0.5306950000000 1.0
C      1  0.4058990000000  0.5265730000000  0.4915830000000 1.0
C      1  0.4131740000000  0.4953300000000  0.4582960000000 1.0
C      1  0.4117370000000  0.4626450000000  0.4808150000000 1.0
C      1  0.5979630000000  0.4731150000000  0.4743220000000 1.0
C      1  0.5893510000000  0.5203740000000  0.4603250000000 1.0
C      1  0.5972740000000  0.5297240000000  0.5002830000000 1.0
C      1  0.6023970000000  0.5038730000000  0.5303680000000 1.0
C      1  0.5974080000000  0.4683090000000  0.5137130000000 1.0
C      1  0.5737050000000  0.5140870000000  0.5426550000000 1.0
C      1  0.5741390000000  0.5545050000000  0.5029280000000 1.0
C      1  0.5629210000000  0.5224030000000  0.4441960000000 1.0
C      1  0.5684750000000  0.4621600000000  0.4643760000000 1.0
C      1  0.5621790000000  0.4617510000000  0.5365280000000 1.0
C      1  0.4348060000000  0.5199980000000  0.4493770000000 1.0
C      1  0.4419750000000  0.5588720000000  0.5089280000000 1.0
C      1  0.4336770000000  0.5128780000000  0.5564380000000 1.0
C      1  0.4364470000000  0.4564500000000  0.5303150000000 1.0
C      1  0.4392150000000  0.4602700000000  0.4612090000000 1.0
C      1  0.5203880000000  0.4790650000000  0.4044260000000 1.0
C      1  0.5280120000000  0.4008850000000  0.4889900000000 1.0
C      1  0.5382820000000  0.4479960000000  0.5873450000000 1.0
C      1  0.5227940000000  0.5716630000000  0.5654980000000 1.0
C      1  0.5287890000000  0.6016760000000  0.4708080000000 1.0
C      1  0.4605060000000  0.4861240000000  0.5957490000000 1.0
C      1  0.4742200000000  0.4021740000000  0.5390450000000 1.0
C      1  0.4703650000000  0.4467570000000  0.4072230000000 1.0
C      1  0.4738880000000  0.5708750000000  0.4323590000000 1.0
C      1  0.4715760000000  0.5986380000000  0.5458410000000 1.0
C      1  0.4878400000000  0.4365870000000  0.4568730000000 1.0
C      1  0.4795950000000  0.4395200000000  0.5518390000000 1.0
C      1  0.4801810000000  0.5295800000000  0.5762630000000 1.0
C      1  0.4863530000000  0.5809860000000  0.5006500000000 1.0
C      1  0.4832320000000  0.5291010000000  0.4280290000000 1.0
C      1  0.5102110000000  0.4403650000000  0.5412860000000 1.0
C      1  0.5195700000000  0.4418920000000  0.4557150000000 1.0
C      1  0.5168050000000  0.5257390000000  0.4230080000000 1.0
C      1  0.5165790000000  0.5715050000000  0.5033240000000 1.0
C      1  0.5136550000000  0.5267610000000  0.5703560000000 1.0
C      1  0.5284320000000  0.4975360000000  0.4553420000000 1.0
C      1  0.5279020000000  0.4569900000000  0.4915130000000 1.0
C      1  0.5254640000000  0.4769840000000  0.5376450000000 1.0
C      1  0.5289690000000  0.5270590000000  0.5335720000000 1.0
C      1  0.5321030000000  0.5408110000000  0.4834200000000 1.0
C      1  0.4832850000000  0.4959740000000  0.5373780000000 1.0
C      1  0.4817360000000  0.4611040000000  0.5043530000000 1.0
C      1  0.4872100000000  0.4844500000000  0.4723830000000 1.0
C      1  0.4852880000000  0.5241040000000  0.4688410000000 1.0
C      1  0.4844040000000  0.5281370000000  0.5085090000000 1.0
C      1  0.5354240000000  0.5862230000000  0.5227180000000 1.0
C      1  0.5350640000000  0.5488870000000  0.4123570000000 1.0
C      1  0.5357830000000  0.4434210000000  0.4306680000000 1.0
C      1  0.5333360000000  0.4208630000000  0.5323510000000 1.0
C      1  0.5401440000000  0.5141580000000  0.5838590000000 1.0
C      1  0.4653550000000  0.5867840000000  0.4777300000000 1.0
C      1  0.4551860000000  0.5511080000000  0.5819080000000 1.0
C      1  0.4539130000000  0.4305990000000  0.5722850000000 1.0
C      1  0.4622510000000  0.4144340000000  0.4601500000000 1.0
C      1  0.4629990000000  0.5122900000000  0.4065820000000 1.0
C      1  0.5018690000000  0.5644570000000  0.4234640000000 1.0
C      1  0.4959800000000  0.4392410000000  0.4003160000000 1.0
C      1  0.4934820000000  0.3976030000000  0.5204820000000 1.0
C      1  0.4869140000000  0.4861940000000  0.6070600000000 1.0
C      1  0.4972930000000  0.6072870000000  0.5480390000000 1.0
C      1  0.4975050000000  0.5661040000000  0.5734380000000 1.0
C      1  0.5128550000000  0.4407670000000  0.6008650000000 1.0
C      1  0.5054980000000  0.3914150000000  0.4750620000000 1.0
C      1  0.4944330000000  0.4867420000000  0.4013080000000 1.0
C      1  0.5059690000000  0.5950730000000  0.4573360000000 1.0
C      1  0.4824380000000  0.4042800000000  0.4929360000000 1.0
C      1  0.5061150000000  0.4714210000000  0.5869670000000 1.0
C      1  0.4778130000000  0.5596230000000  0.5503010000000 1.0
C      1  0.5042950000000  0.5610960000000  0.4572190000000 1.0
C      1  0.4762270000000  0.4806210000000  0.4268300000000 1.0
C      1  0.4039420000000  0.4938070000000  0.4910750000000 1.0
C      1  0.6055230000000  0.4969290000000  0.4974380000000 1.0
C      1  0.4871910000000  0.4946540000000  0.5032700000000 1.0
END
