TITL C-3289332-8317-712 0.00106746300942443 125000 -640.068152127546 0 0 117 (C1) n - 1
REM
REM in /nfs/bkarasulu/CARBON/AIRSS/Generating-Clusters/AIREBO/with-SteepDescent/Higher-Symm/SD-CG/HFTN-CG
REM
REM
REM
REM
REM
REM ./C.cell (b20cbc046b6831c77cfcea5457e17084)
REM
REM compiler GCC version 9.2.1 20190827 (Red Hat 9.2.1-1)
REM options -cpp -mtune=generic -march=x86-64 -g -O0 -fpre-include=/usr/include/finclude/math-vector-fortran.h
REM seed -474433999 -1632214369 1903395126 -1098394528 -514842270 2064312211 -1868372552 2121283417 1765997332 -1417272070 -352289762 -357700865 -531159801 206370098 1654565967 1858696644 1305707798 -1300553955 1726430054 -1739215161 81512839 764190080 496497746 1714070779 1954197232 -1375587992 1900916747 16140413 212918638 1630701268 213887502 -1178523390 -516162249
REM
CELL 1.54180   50.00000   50.00000   50.00000   90.00000   90.00000   90.00000
LATT -1
SFAC C  
C      1  0.5474280000000  0.5276550000000  0.5200060000000 1.0
C      1  0.4871400000000  0.5662850000000  0.5214660000000 1.0
C      1  0.4693590000000  0.5074620000000  0.4154320000000 1.0
C      1  0.4790340000000  0.5346370000000  0.5645620000000 1.0
C      1  0.5415580000000  0.5749850000000  0.4665520000000 1.0
C      1  0.5358290000000  0.4428460000000  0.4335990000000 1.0
C      1  0.4861810000000  0.5563620000000  0.4306500000000 1.0
C      1  0.5572340000000  0.4559860000000  0.4735790000000 1.0
C      1  0.4889840000000  0.4610210000000  0.4405480000000 1.0
C      1  0.5173640000000  0.4691660000000  0.5751590000000 1.0
C      1  0.6028710000000  0.5150700000000  0.4789950000000 1.0
C      1  0.5284340000000  0.5149180000000  0.4742330000000 1.0
C      1  0.4099920000000  0.4531500000000  0.5159540000000 1.0
C      1  0.4401670000000  0.5728220000000  0.5020280000000 1.0
C      1  0.4377960000000  0.4911200000000  0.4587420000000 1.0
C      1  0.5537850000000  0.5115050000000  0.4965460000000 1.0
C      1  0.5316320000000  0.4182460000000  0.5061430000000 1.0
C      1  0.5600780000000  0.4878810000000  0.5756270000000 1.0
C      1  0.5258220000000  0.5249130000000  0.5449710000000 1.0
C      1  0.5205980000000  0.5908750000000  0.4779260000000 1.0
C      1  0.5178220000000  0.4059380000000  0.5329200000000 1.0
C      1  0.5209140000000  0.4681330000000  0.4425320000000 1.0
C      1  0.5347660000000  0.5418020000000  0.4266270000000 1.0
C      1  0.5879750000000  0.4938820000000  0.4666060000000 1.0
C      1  0.5168900000000  0.5184060000000  0.4288310000000 1.0
C      1  0.4923980000000  0.5156260000000  0.5805690000000 1.0
C      1  0.5110680000000  0.5710800000000  0.5687980000000 1.0
C      1  0.4453830000000  0.4735290000000  0.4937740000000 1.0
C      1  0.5730870000000  0.4911770000000  0.5383670000000 1.0
C      1  0.5333000000000  0.4958990000000  0.4337080000000 1.0
C      1  0.4600740000000  0.5728460000000  0.4317350000000 1.0
C      1  0.5116910000000  0.5550460000000  0.5421450000000 1.0
C      1  0.4794870000000  0.5215460000000  0.4890670000000 1.0
C      1  0.4032870000000  0.5104470000000  0.5004200000000 1.0
C      1  0.5402750000000  0.4941820000000  0.5467650000000 1.0
C      1  0.5076230000000  0.6016990000000  0.4521680000000 1.0
C      1  0.5536680000000  0.4336960000000  0.4988470000000 1.0
C      1  0.4699980000000  0.4080850000000  0.5134550000000 1.0
C      1  0.5871140000000  0.5361860000000  0.4948810000000 1.0
C      1  0.5639590000000  0.5030120000000  0.4456040000000 1.0
C      1  0.5708070000000  0.5145150000000  0.5626460000000 1.0
C      1  0.4891160000000  0.4298000000000  0.4270850000000 1.0
C      1  0.5186650000000  0.4208870000000  0.4321650000000 1.0
C      1  0.5163250000000  0.4397470000000  0.5362590000000 1.0
C      1  0.5621740000000  0.5351880000000  0.4372120000000 1.0
C      1  0.4825600000000  0.4893460000000  0.5800830000000 1.0
C      1  0.4324740000000  0.5585550000000  0.4512130000000 1.0
C      1  0.5796190000000  0.5509270000000  0.5167560000000 1.0
C      1  0.4091280000000  0.5160130000000  0.5320650000000 1.0
C      1  0.4676140000000  0.5305770000000  0.4619020000000 1.0
C      1  0.5098190000000  0.4214920000000  0.4841790000000 1.0
C      1  0.4059620000000  0.4765590000000  0.4984510000000 1.0
C      1  0.4325540000000  0.4395230000000  0.4556400000000 1.0
C      1  0.4796430000000  0.4407010000000  0.4663910000000 1.0
C      1  0.5543770000000  0.5668760000000  0.5172000000000 1.0
C      1  0.4745200000000  0.4115170000000  0.4497090000000 1.0
C      1  0.4991690000000  0.5654630000000  0.4821820000000 1.0
C      1  0.5426210000000  0.4291990000000  0.5532900000000 1.0
C      1  0.5155520000000  0.4713920000000  0.5412730000000 1.0
C      1  0.4838850000000  0.4789040000000  0.5511130000000 1.0
C      1  0.4898160000000  0.4122800000000  0.5479330000000 1.0
C      1  0.4633790000000  0.5759480000000  0.5437870000000 1.0
C      1  0.4587130000000  0.5186010000000  0.5159960000000 1.0
C      1  0.4810950000000  0.5646010000000  0.5660120000000 1.0
C      1  0.5680600000000  0.4279590000000  0.5432480000000 1.0
C      1  0.5063690000000  0.5675070000000  0.4491300000000 1.0
C      1  0.5856830000000  0.4648690000000  0.5114840000000 1.0
C      1  0.4765460000000  0.4809700000000  0.4159600000000 1.0
C      1  0.4343330000000  0.5374620000000  0.5313980000000 1.0
C      1  0.4395560000000  0.5664510000000  0.5295940000000 1.0
C      1  0.4733140000000  0.4799520000000  0.4627810000000 1.0
C      1  0.4938790000000  0.4296220000000  0.5122530000000 1.0
C      1  0.4202120000000  0.4667260000000  0.4719480000000 1.0
C      1  0.5312120000000  0.4691060000000  0.5005720000000 1.0
C      1  0.4535430000000  0.4485400000000  0.5652570000000 1.0
C      1  0.5348230000000  0.4814940000000  0.4705600000000 1.0
C      1  0.6021440000000  0.4795210000000  0.5357130000000 1.0
C      1  0.4213930000000  0.4898740000000  0.5463020000000 1.0
C      1  0.4375310000000  0.5197920000000  0.4595700000000 1.0
C      1  0.4772720000000  0.5365750000000  0.5347670000000 1.0
C      1  0.4597920000000  0.4908820000000  0.5356760000000 1.0
C      1  0.5048310000000  0.4100460000000  0.4577840000000 1.0
C      1  0.4387530000000  0.4409650000000  0.5159690000000 1.0
C      1  0.5660270000000  0.5270190000000  0.4698310000000 1.0
C      1  0.5577560000000  0.4840940000000  0.5087990000000 1.0
C      1  0.4494480000000  0.4640870000000  0.4452710000000 1.0
C      1  0.4747350000000  0.4712310000000  0.5017440000000 1.0
C      1  0.4810340000000  0.4564610000000  0.5279480000000 1.0
C      1  0.5253990000000  0.5494660000000  0.5135190000000 1.0
C      1  0.5341630000000  0.5660630000000  0.5826590000000 1.0
C      1  0.4660460000000  0.4640920000000  0.5836640000000 1.0
C      1  0.4425420000000  0.5142360000000  0.5522510000000 1.0
C      1  0.4308130000000  0.5324450000000  0.4312630000000 1.0
C      1  0.5736210000000  0.4380090000000  0.5178310000000 1.0
C      1  0.5302140000000  0.5453070000000  0.4589430000000 1.0
C      1  0.5475020000000  0.5403260000000  0.5746790000000 1.0
C      1  0.5830780000000  0.4708060000000  0.4808840000000 1.0
C      1  0.5097620000000  0.5909960000000  0.5163060000000 1.0
C      1  0.4440100000000  0.5200850000000  0.4108010000000 1.0
C      1  0.4507400000000  0.4428260000000  0.4841780000000 1.0
C      1  0.5229570000000  0.5167590000000  0.5776980000000 1.0
C      1  0.4861750000000  0.5247580000000  0.4338050000000 1.0
C      1  0.4190660000000  0.5310260000000  0.4812490000000 1.0
C      1  0.4632320000000  0.4309460000000  0.5378180000000 1.0
C      1  0.4337140000000  0.4984980000000  0.5065340000000 1.0
C      1  0.5058990000000  0.4540160000000  0.4835980000000 1.0
C      1  0.4691400000000  0.5701600000000  0.4927970000000 1.0
C      1  0.5370900000000  0.5906690000000  0.5144250000000 1.0
C      1  0.5639890000000  0.5397930000000  0.5449460000000 1.0
C      1  0.5596120000000  0.4417030000000  0.4464020000000 1.0
C      1  0.5078750000000  0.5364280000000  0.4909100000000 1.0
C      1  0.4227220000000  0.5603950000000  0.4830170000000 1.0
C      1  0.4640530000000  0.5613740000000  0.4634940000000 1.0
C      1  0.4888480000000  0.4938780000000  0.4847220000000 1.0
C      1  0.5326900000000  0.4892850000000  0.5856200000000 1.0
C      1  0.4398090000000  0.4637470000000  0.5403790000000 1.0
C      1  0.5053440000000  0.4829740000000  0.5109720000000 1.0
END
