TITL C-3289334-2237-383 -0.00265226178889324 125000 -895.317883363642 0 0 163 (C1) n - 1
REM
REM in /nfs/bkarasulu/CARBON/AIRSS/Generating-Clusters/AIREBO/with-SteepDescent/Higher-Symm/SD-CG/HFTN-CG
REM
REM
REM
REM
REM
REM ./C.cell (b20cbc046b6831c77cfcea5457e17084)
REM
REM compiler GCC version 9.2.1 20190827 (Red Hat 9.2.1-1)
REM options -cpp -mtune=generic -march=x86-64 -g -O0 -fpre-include=/usr/include/finclude/math-vector-fortran.h
REM seed -752280478 1470810178 -1700095850 755429424 -641953697 -1099661559 -1168883300 1652143649 954390246 303346176 22977042 799810551 1100136076 750235036 -392194654 -1113058082 1582553182 -1691369761 1001250042 1691746368 -810528074 658971079 -340584222 436078267 -266401053 -356599958 -1781995687 1504393874 249337523 2081239178 -986794962 -142025770 959661614
REM
CELL 1.54180   50.00000   50.00000   50.00000   90.00000   90.00000   90.00000
LATT -1
SFAC C  
C      1  0.4674400000000  0.5564590000000  0.4171480000000 1.0
C      1  0.5665460000000  0.4977610000000  0.4182050000000 1.0
C      1  0.4731480000000  0.4492270000000  0.4172240000000 1.0
C      1  0.5283770000000  0.5529230000000  0.4269520000000 1.0
C      1  0.4409920000000  0.4992970000000  0.4251760000000 1.0
C      1  0.5332170000000  0.4453690000000  0.4205690000000 1.0
C      1  0.4087880000000  0.5387840000000  0.4348730000000 1.0
C      1  0.5649570000000  0.5593390000000  0.4369770000000 1.0
C      1  0.5185280000000  0.4001360000000  0.4408110000000 1.0
C      1  0.5876410000000  0.5449300000000  0.4327400000000 1.0
C      1  0.4177950000000  0.5644970000000  0.4306810000000 1.0
C      1  0.4909330000000  0.4012340000000  0.4376880000000 1.0
C      1  0.4590290000000  0.4034520000000  0.4758840000000 1.0
C      1  0.4288390000000  0.5784450000000  0.4750850000000 1.0
C      1  0.5989360000000  0.5199130000000  0.4837930000000 1.0
C      1  0.5336560000000  0.4095860000000  0.4911050000000 1.0
C      1  0.5633310000000  0.5768750000000  0.4901790000000 1.0
C      1  0.4014150000000  0.5185890000000  0.4760200000000 1.0
C      1  0.5184650000000  0.4686560000000  0.4493180000000 1.0
C      1  0.4714440000000  0.4882030000000  0.4483630000000 1.0
C      1  0.5167630000000  0.5231850000000  0.4508400000000 1.0
C      1  0.4652040000000  0.4586750000000  0.4583050000000 1.0
C      1  0.5512800000000  0.4946050000000  0.4545040000000 1.0
C      1  0.4778250000000  0.5418740000000  0.4524920000000 1.0
C      1  0.5602940000000  0.4795830000000  0.5069170000000 1.0
C      1  0.4425150000000  0.4529350000000  0.5050410000000 1.0
C      1  0.4862470000000  0.5621840000000  0.5093670000000 1.0
C      1  0.4365390000000  0.4757430000000  0.4835760000000 1.0
C      1  0.5496870000000  0.4557950000000  0.4850590000000 1.0
C      1  0.5163020000000  0.5592890000000  0.4937210000000 1.0
C      1  0.4350160000000  0.5193970000000  0.5145890000000 1.0
C      1  0.5377190000000  0.5421530000000  0.5138390000000 1.0
C      1  0.5071070000000  0.4353370000000  0.5155070000000 1.0
C      1  0.5549730000000  0.5131730000000  0.5071490000000 1.0
C      1  0.4570710000000  0.5447220000000  0.5092070000000 1.0
C      1  0.4743430000000  0.4425490000000  0.5099130000000 1.0
C      1  0.4539050000000  0.4661490000000  0.5919420000000 1.0
C      1  0.4879440000000  0.5683860000000  0.5988890000000 1.0
C      1  0.5905330000000  0.4915980000000  0.5780390000000 1.0
C      1  0.5733630000000  0.4721550000000  0.5871110000000 1.0
C      1  0.5126340000000  0.5736680000000  0.5922250000000 1.0
C      1  0.4351290000000  0.4857850000000  0.5885730000000 1.0
C      1  0.4925280000000  0.4183430000000  0.5753240000000 1.0
C      1  0.4479220000000  0.5522610000000  0.5666830000000 1.0
C      1  0.5818640000000  0.5387000000000  0.5688780000000 1.0
C      1  0.5112930000000  0.4146590000000  0.5562680000000 1.0
C      1  0.5594540000000  0.5526560000000  0.5708490000000 1.0
C      1  0.4274730000000  0.5362580000000  0.5746770000000 1.0
C      1  0.5833170000000  0.4835480000000  0.4514900000000 1.0
C      1  0.4387630000000  0.4395270000000  0.4482470000000 1.0
C      1  0.4752820000000  0.5758000000000  0.4525850000000 1.0
C      1  0.4166430000000  0.4738070000000  0.4563880000000 1.0
C      1  0.5610950000000  0.4394080000000  0.4575360000000 1.0
C      1  0.5180780000000  0.5788910000000  0.4653210000000 1.0
C      1  0.4181160000000  0.5680550000000  0.5012030000000 1.0
C      1  0.6022500000000  0.5384720000000  0.5078320000000 1.0
C      1  0.4755850000000  0.3932040000000  0.5004270000000 1.0
C      1  0.5836000000000  0.5608080000000  0.5118160000000 1.0
C      1  0.4083370000000  0.5373410000000  0.5035300000000 1.0
C      1  0.5034880000000  0.4030510000000  0.5054620000000 1.0
C      1  0.4196220000000  0.4319490000000  0.4975910000000 1.0
C      1  0.4838700000000  0.5951250000000  0.5040920000000 1.0
C      1  0.5904770000000  0.4658990000000  0.5054270000000 1.0
C      1  0.5671770000000  0.4400120000000  0.5095760000000 1.0
C      1  0.5175500000000  0.5897860000000  0.5087160000000 1.0
C      1  0.4060850000000  0.4644880000000  0.4937420000000 1.0
C      1  0.4910800000000  0.4769830000000  0.6016870000000 1.0
C      1  0.4917100000000  0.5246550000000  0.6013800000000 1.0
C      1  0.5300570000000  0.5023250000000  0.5842320000000 1.0
C      1  0.5188610000000  0.4766370000000  0.5926730000000 1.0
C      1  0.5214340000000  0.5263460000000  0.5942030000000 1.0
C      1  0.4828680000000  0.4995460000000  0.6145390000000 1.0
C      1  0.4842570000000  0.4724520000000  0.4828000000000 1.0
C      1  0.4830680000000  0.5239060000000  0.4749920000000 1.0
C      1  0.5316240000000  0.4984440000000  0.4782880000000 1.0
C      1  0.5179160000000  0.4675530000000  0.4820460000000 1.0
C      1  0.5138170000000  0.5270260000000  0.4832480000000 1.0
C      1  0.4611960000000  0.4981600000000  0.4788810000000 1.0
C      1  0.4666170000000  0.6012550000000  0.5502400000000 1.0
C      1  0.5984640000000  0.4723220000000  0.5439150000000 1.0
C      1  0.4290810000000  0.4230530000000  0.5418600000000 1.0
C      1  0.5270340000000  0.6022720000000  0.5454370000000 1.0
C      1  0.4014070000000  0.4735120000000  0.5410050000000 1.0
C      1  0.5684120000000  0.4185570000000  0.5512230000000 1.0
C      1  0.4733740000000  0.4965660000000  0.5236740000000 1.0
C      1  0.5055850000000  0.5198450000000  0.5217130000000 1.0
C      1  0.5149120000000  0.4762410000000  0.5262060000000 1.0
C      1  0.5241960000000  0.4997620000000  0.5105910000000 1.0
C      1  0.4790700000000  0.5211410000000  0.5069140000000 1.0
C      1  0.4875770000000  0.4731910000000  0.5143240000000 1.0
C      1  0.5362060000000  0.5530130000000  0.5460330000000 1.0
C      1  0.5209360000000  0.4413030000000  0.5427130000000 1.0
C      1  0.4411250000000  0.5022140000000  0.5432900000000 1.0
C      1  0.4552720000000  0.5609130000000  0.5390640000000 1.0
C      1  0.4745910000000  0.4449710000000  0.5439650000000 1.0
C      1  0.5602030000000  0.5031210000000  0.5397200000000 1.0
C      1  0.4715420000000  0.5006610000000  0.4184860000000 1.0
C      1  0.5160300000000  0.5257390000000  0.4171180000000 1.0
C      1  0.5169730000000  0.4734740000000  0.4160410000000 1.0
C      1  0.5346010000000  0.4990980000000  0.4244980000000 1.0
C      1  0.4846310000000  0.5277130000000  0.4223340000000 1.0
C      1  0.4870210000000  0.4733730000000  0.4102980000000 1.0
C      1  0.4352030000000  0.5200900000000  0.4795530000000 1.0
C      1  0.5537460000000  0.5474000000000  0.4864860000000 1.0
C      1  0.5119420000000  0.4340730000000  0.4818690000000 1.0
C      1  0.5695570000000  0.5213410000000  0.4775230000000 1.0
C      1  0.4458900000000  0.5516360000000  0.4777690000000 1.0
C      1  0.4790280000000  0.4275140000000  0.4791870000000 1.0
C      1  0.5595670000000  0.5715130000000  0.5296050000000 1.0
C      1  0.5269160000000  0.4039720000000  0.5300970000000 1.0
C      1  0.3914090000000  0.5094800000000  0.5133080000000 1.0
C      1  0.4349890000000  0.5779100000000  0.5205540000000 1.0
C      1  0.4472400000000  0.3909180000000  0.5118450000000 1.0
C      1  0.6176180000000  0.5133180000000  0.5183610000000 1.0
C      1  0.4726840000000  0.4997060000000  0.5558140000000 1.0
C      1  0.5140440000000  0.5274630000000  0.5495590000000 1.0
C      1  0.5212950000000  0.4710410000000  0.5592140000000 1.0
C      1  0.5333250000000  0.5026280000000  0.5537660000000 1.0
C      1  0.4892310000000  0.5243170000000  0.5674720000000 1.0
C      1  0.4876980000000  0.4743000000000  0.5679590000000 1.0
C      1  0.4352170000000  0.4111570000000  0.4645110000000 1.0
C      1  0.4497280000000  0.5949610000000  0.4642530000000 1.0
C      1  0.6082540000000  0.4964310000000  0.4707280000000 1.0
C      1  0.5578480000000  0.4143870000000  0.4803280000000 1.0
C      1  0.5444730000000  0.5947180000000  0.4797750000000 1.0
C      1  0.3923130000000  0.4931710000000  0.4662630000000 1.0
C      1  0.5302380000000  0.5518540000000  0.5826360000000 1.0
C      1  0.5515070000000  0.4648770000000  0.5739340000000 1.0
C      1  0.4307630000000  0.5084130000000  0.5722250000000 1.0
C      1  0.4717820000000  0.5485820000000  0.5819830000000 1.0
C      1  0.4731960000000  0.4446580000000  0.5761550000000 1.0
C      1  0.5814420000000  0.5121120000000  0.5611390000000 1.0
C      1  0.5416120000000  0.5457160000000  0.4571440000000 1.0
C      1  0.5156990000000  0.4338220000000  0.4473290000000 1.0
C      1  0.4324950000000  0.5190390000000  0.4454170000000 1.0
C      1  0.4460230000000  0.5501920000000  0.4437910000000 1.0
C      1  0.4817540000000  0.4327000000000  0.4456780000000 1.0
C      1  0.5706490000000  0.5203010000000  0.4435130000000 1.0
C      1  0.5456530000000  0.5958670000000  0.5229920000000 1.0
C      1  0.5534430000000  0.4146830000000  0.5254370000000 1.0
C      1  0.3943240000000  0.4824280000000  0.5155080000000 1.0
C      1  0.4581370000000  0.5971650000000  0.5224790000000 1.0
C      1  0.4266330000000  0.4096690000000  0.5176160000000 1.0
C      1  0.6118950000000  0.4859070000000  0.5218370000000 1.0
C      1  0.5764380000000  0.4694670000000  0.4239290000000 1.0
C      1  0.4445800000000  0.4506320000000  0.4192890000000 1.0
C      1  0.4862420000000  0.5799940000000  0.4223290000000 1.0
C      1  0.4304810000000  0.4742130000000  0.4302130000000 1.0
C      1  0.5600080000000  0.4475370000000  0.4295210000000 1.0
C      1  0.5118710000000  0.5743410000000  0.4366870000000 1.0
C      1  0.4812050000000  0.6006130000000  0.4736320000000 1.0
C      1  0.5955360000000  0.4653440000000  0.4746150000000 1.0
C      1  0.4116320000000  0.4356880000000  0.4667240000000 1.0
C      1  0.5133310000000  0.6087000000000  0.4807760000000 1.0
C      1  0.3874680000000  0.4591020000000  0.4658060000000 1.0
C      1  0.5850330000000  0.4350600000000  0.4808440000000 1.0
C      1  0.4278730000000  0.4740960000000  0.5459180000000 1.0
C      1  0.5140810000000  0.5783780000000  0.5508740000000 1.0
C      1  0.5513890000000  0.4468650000000  0.5488140000000 1.0
C      1  0.5678170000000  0.4708380000000  0.5379200000000 1.0
C      1  0.4862890000000  0.5753060000000  0.5404410000000 1.0
C      1  0.4438420000000  0.4504880000000  0.5367600000000 1.0
C      1  0.5012670000000  0.4948240000000  0.4459580000000 1.0
END
