TITL C-3289330-4660-433 0.00301313002962667 125000 -1022.87153707511 0 0 191 (C1) n - 1
REM
REM in /nfs/bkarasulu/CARBON/AIRSS/Generating-Clusters/AIREBO/with-SteepDescent/Higher-Symm/SD-CG/HFTN-CG
REM
REM
REM
REM
REM
REM ./C.cell (b20cbc046b6831c77cfcea5457e17084)
REM
REM compiler GCC version 9.2.1 20190827 (Red Hat 9.2.1-1)
REM options -cpp -mtune=generic -march=x86-64 -g -O0 -fpre-include=/usr/include/finclude/math-vector-fortran.h
REM seed -873142708 -1683687687 1466647494 -1387809842 1882373324 -1184407062 -708464067 -1535177427 856151735 2027548594 920678175 -1506241400 -751197415 -2086470537 -1665328022 1449850114 -1144321768 -819783148 -1538424556 1932478454 -1191168379 -1381853314 -1996971894 -2025380480 1068464340 -1136167656 -208033650 669658859 -1409230981 -1372784617 2079381173 -517343917 1040914935
REM
CELL 1.54180   50.00000   50.00000   50.00000   90.00000   90.00000   90.00000
LATT -1
SFAC C  
C      1  0.5836620000000  0.4297090000000  0.5599670000000 1.0
C      1  0.4977140000000  0.4025980000000  0.4558370000000 1.0
C      1  0.4405060000000  0.6016140000000  0.4563520000000 1.0
C      1  0.4162540000000  0.5130820000000  0.4334810000000 1.0
C      1  0.4797820000000  0.6133250000000  0.5146400000000 1.0
C      1  0.5046980000000  0.5683400000000  0.4281440000000 1.0
C      1  0.5146330000000  0.4386410000000  0.4580090000000 1.0
C      1  0.5186220000000  0.5244820000000  0.4689970000000 1.0
C      1  0.5579220000000  0.5768040000000  0.5465130000000 1.0
C      1  0.5524820000000  0.4280210000000  0.5676490000000 1.0
C      1  0.5415630000000  0.4754040000000  0.4635760000000 1.0
C      1  0.5424800000000  0.6022950000000  0.4968670000000 1.0
C      1  0.4735620000000  0.4178220000000  0.4737430000000 1.0
C      1  0.4575690000000  0.5419090000000  0.4228550000000 1.0
C      1  0.6141300000000  0.5004020000000  0.4923800000000 1.0
C      1  0.5869460000000  0.4903540000000  0.5702550000000 1.0
C      1  0.5002430000000  0.4517990000000  0.5383980000000 1.0
C      1  0.5919580000000  0.5524800000000  0.4633780000000 1.0
C      1  0.5226570000000  0.4755580000000  0.4918390000000 1.0
C      1  0.4410600000000  0.5182550000000  0.5255980000000 1.0
C      1  0.5219760000000  0.4135730000000  0.4769810000000 1.0
C      1  0.5087860000000  0.4575140000000  0.5768800000000 1.0
C      1  0.5822750000000  0.5593250000000  0.5501450000000 1.0
C      1  0.4552880000000  0.4208310000000  0.5489330000000 1.0
C      1  0.4191750000000  0.4349400000000  0.4935240000000 1.0
C      1  0.5351750000000  0.4679800000000  0.6058320000000 1.0
C      1  0.5607960000000  0.4855260000000  0.5919780000000 1.0
C      1  0.5286530000000  0.4450320000000  0.5058340000000 1.0
C      1  0.5394860000000  0.5606270000000  0.4042880000000 1.0
C      1  0.5562790000000  0.4875010000000  0.5599000000000 1.0
C      1  0.4464520000000  0.5708140000000  0.5593670000000 1.0
C      1  0.5141470000000  0.6225680000000  0.4624190000000 1.0
C      1  0.4416180000000  0.4181900000000  0.5106680000000 1.0
C      1  0.5682450000000  0.5114050000000  0.4893680000000 1.0
C      1  0.5313940000000  0.4114010000000  0.5465300000000 1.0
C      1  0.5236440000000  0.4794290000000  0.4205830000000 1.0
C      1  0.4491550000000  0.4753630000000  0.4911170000000 1.0
C      1  0.4606610000000  0.5466890000000  0.4910520000000 1.0
C      1  0.5681660000000  0.5437770000000  0.5125870000000 1.0
C      1  0.5349820000000  0.5864040000000  0.5609480000000 1.0
C      1  0.3966900000000  0.5122720000000  0.5309500000000 1.0
C      1  0.4574140000000  0.5191090000000  0.4610540000000 1.0
C      1  0.5395160000000  0.5254180000000  0.5132890000000 1.0
C      1  0.4653760000000  0.4881840000000  0.4245270000000 1.0
C      1  0.4749630000000  0.5721660000000  0.5783550000000 1.0
C      1  0.5105750000000  0.5505430000000  0.4893490000000 1.0
C      1  0.4771500000000  0.5529660000000  0.5267600000000 1.0
C      1  0.4143320000000  0.4818760000000  0.5886570000000 1.0
C      1  0.5690360000000  0.5356410000000  0.5627200000000 1.0
C      1  0.4451650000000  0.5282850000000  0.5985010000000 1.0
C      1  0.5577690000000  0.5107120000000  0.4368360000000 1.0
C      1  0.4042010000000  0.5400300000000  0.4882190000000 1.0
C      1  0.4953360000000  0.4831670000000  0.4730530000000 1.0
C      1  0.4694600000000  0.4730840000000  0.3943310000000 1.0
C      1  0.4121590000000  0.5666900000000  0.4759860000000 1.0
C      1  0.5483240000000  0.5653690000000  0.4337100000000 1.0
C      1  0.4934060000000  0.4940440000000  0.4430020000000 1.0
C      1  0.5056760000000  0.5268350000000  0.5102000000000 1.0
C      1  0.4360590000000  0.4843660000000  0.4637630000000 1.0
C      1  0.5266720000000  0.5825910000000  0.5879900000000 1.0
C      1  0.4692340000000  0.6064930000000  0.5399440000000 1.0
C      1  0.4662830000000  0.4307090000000  0.4230180000000 1.0
C      1  0.5980890000000  0.5313710000000  0.5360360000000 1.0
C      1  0.4404760000000  0.3989930000000  0.4633810000000 1.0
C      1  0.5266750000000  0.5004700000000  0.4460720000000 1.0
C      1  0.5841430000000  0.5645850000000  0.4941830000000 1.0
C      1  0.4572470000000  0.5733100000000  0.5099520000000 1.0
C      1  0.5052010000000  0.5695520000000  0.5170500000000 1.0
C      1  0.4608410000000  0.6004100000000  0.4906410000000 1.0
C      1  0.5942590000000  0.5196870000000  0.5677410000000 1.0
C      1  0.5683160000000  0.4382350000000  0.5311780000000 1.0
C      1  0.4916100000000  0.6052250000000  0.4779060000000 1.0
C      1  0.5570970000000  0.5896310000000  0.4618840000000 1.0
C      1  0.4106000000000  0.4650050000000  0.5030860000000 1.0
C      1  0.5279070000000  0.5445380000000  0.3892210000000 1.0
C      1  0.4543660000000  0.5919610000000  0.4380720000000 1.0
C      1  0.4247040000000  0.4107400000000  0.5380070000000 1.0
C      1  0.5066510000000  0.4246740000000  0.5874460000000 1.0
C      1  0.5060990000000  0.5247180000000  0.3978200000000 1.0
C      1  0.4365080000000  0.4405820000000  0.4166860000000 1.0
C      1  0.5058200000000  0.5117030000000  0.6168090000000 1.0
C      1  0.4329860000000  0.5018180000000  0.5975250000000 1.0
C      1  0.5551680000000  0.4544500000000  0.4410610000000 1.0
C      1  0.5395760000000  0.6132280000000  0.4666870000000 1.0
C      1  0.5726430000000  0.5011230000000  0.4077990000000 1.0
C      1  0.5925910000000  0.4867110000000  0.5368330000000 1.0
C      1  0.5635090000000  0.6077210000000  0.5230400000000 1.0
C      1  0.5976780000000  0.4531910000000  0.5395610000000 1.0
C      1  0.5687010000000  0.4772510000000  0.3968660000000 1.0
C      1  0.5801000000000  0.5207460000000  0.4600270000000 1.0
C      1  0.3970200000000  0.4884270000000  0.5448330000000 1.0
C      1  0.4819870000000  0.4549670000000  0.5974750000000 1.0
C      1  0.4515800000000  0.4641980000000  0.5208830000000 1.0
C      1  0.3992140000000  0.4845760000000  0.4782480000000 1.0
C      1  0.5651440000000  0.4818530000000  0.4854000000000 1.0
C      1  0.4958040000000  0.4377290000000  0.5077650000000 1.0
C      1  0.5098250000000  0.6015180000000  0.5063770000000 1.0
C      1  0.5488920000000  0.4333800000000  0.4838090000000 1.0
C      1  0.4661630000000  0.4070220000000  0.4428330000000 1.0
C      1  0.4130650000000  0.4407630000000  0.5268080000000 1.0
C      1  0.5772830000000  0.4442230000000  0.4807620000000 1.0
C      1  0.4720220000000  0.5666700000000  0.4345700000000 1.0
C      1  0.4936480000000  0.4521660000000  0.4773700000000 1.0
C      1  0.4444630000000  0.4953040000000  0.5504520000000 1.0
C      1  0.4084880000000  0.5334100000000  0.5430660000000 1.0
C      1  0.5053950000000  0.5635990000000  0.5898650000000 1.0
C      1  0.5542560000000  0.4688480000000  0.5358180000000 1.0
C      1  0.4692960000000  0.4312750000000  0.5752680000000 1.0
C      1  0.4945130000000  0.4235220000000  0.5560690000000 1.0
C      1  0.5139950000000  0.4492770000000  0.4297710000000 1.0
C      1  0.5132750000000  0.4837420000000  0.5645790000000 1.0
C      1  0.5048970000000  0.4050670000000  0.5051300000000 1.0
C      1  0.4645440000000  0.4365650000000  0.5211060000000 1.0
C      1  0.5595350000000  0.5557640000000  0.4643400000000 1.0
C      1  0.5112150000000  0.5876150000000  0.5452330000000 1.0
C      1  0.5351610000000  0.5021530000000  0.6063950000000 1.0
C      1  0.4242840000000  0.4698600000000  0.5403550000000 1.0
C      1  0.4258670000000  0.4952620000000  0.5059120000000 1.0
C      1  0.5142870000000  0.5364960000000  0.5804330000000 1.0
C      1  0.4225960000000  0.5998710000000  0.5155150000000 1.0
C      1  0.5473780000000  0.4596940000000  0.4104590000000 1.0
C      1  0.5336200000000  0.5093970000000  0.5732100000000 1.0
C      1  0.4986030000000  0.4677720000000  0.3796940000000 1.0
C      1  0.5561380000000  0.4014360000000  0.4929410000000 1.0
C      1  0.5321420000000  0.4453980000000  0.5466630000000 1.0
C      1  0.4645140000000  0.5191820000000  0.4084960000000 1.0
C      1  0.4281460000000  0.4611890000000  0.5730040000000 1.0
C      1  0.3970650000000  0.5122830000000  0.4998280000000 1.0
C      1  0.4632840000000  0.4581460000000  0.4403480000000 1.0
C      1  0.4342170000000  0.5334400000000  0.4813670000000 1.0
C      1  0.5446000000000  0.5644320000000  0.5199930000000 1.0
C      1  0.4819810000000  0.5034090000000  0.3868190000000 1.0
C      1  0.4322370000000  0.4306790000000  0.4661430000000 1.0
C      1  0.5471060000000  0.4194450000000  0.5203860000000 1.0
C      1  0.4778370000000  0.3878610000000  0.5164780000000 1.0
C      1  0.3909610000000  0.4885070000000  0.5730710000000 1.0
C      1  0.4720430000000  0.5218890000000  0.5113560000000 1.0
C      1  0.4591770000000  0.4951330000000  0.5812710000000 1.0
C      1  0.4398270000000  0.4659720000000  0.4033310000000 1.0
C      1  0.4605080000000  0.4640200000000  0.5727090000000 1.0
C      1  0.4174630000000  0.5101500000000  0.4655660000000 1.0
C      1  0.5770540000000  0.4714200000000  0.5107160000000 1.0
C      1  0.5459070000000  0.5338800000000  0.4809710000000 1.0
C      1  0.5333500000000  0.5721990000000  0.4888510000000 1.0
C      1  0.4570420000000  0.3980650000000  0.4932530000000 1.0
C      1  0.5180930000000  0.4481190000000  0.3964320000000 1.0
C      1  0.5352260000000  0.4406210000000  0.5899790000000 1.0
C      1  0.5806350000000  0.4685490000000  0.4589500000000 1.0
C      1  0.5312320000000  0.3854530000000  0.5067110000000 1.0
C      1  0.4709970000000  0.4997950000000  0.4855010000000 1.0
C      1  0.4198250000000  0.4427100000000  0.4408460000000 1.0
C      1  0.5161120000000  0.4804770000000  0.5333100000000 1.0
C      1  0.4386930000000  0.5400210000000  0.5516260000000 1.0
C      1  0.5112000000000  0.4921520000000  0.3976470000000 1.0
C      1  0.5022780000000  0.3989450000000  0.5384830000000 1.0
C      1  0.5749080000000  0.5912200000000  0.4975500000000 1.0
C      1  0.4894240000000  0.5260070000000  0.4518470000000 1.0
C      1  0.5434300000000  0.4255430000000  0.4454700000000 1.0
C      1  0.4442650000000  0.5890610000000  0.5360800000000 1.0
C      1  0.5432990000000  0.5286820000000  0.5469340000000 1.0
C      1  0.4762220000000  0.5540330000000  0.4658610000000 1.0
C      1  0.5806760000000  0.5542950000000  0.4313100000000 1.0
C      1  0.4308800000000  0.4876690000000  0.4243500000000 1.0
C      1  0.5013410000000  0.4007910000000  0.4250540000000 1.0
C      1  0.4186930000000  0.5613990000000  0.4494870000000 1.0
C      1  0.5560930000000  0.4033080000000  0.4589580000000 1.0
C      1  0.4352830000000  0.5365540000000  0.4417330000000 1.0
C      1  0.5981510000000  0.4461520000000  0.5061050000000 1.0
C      1  0.5412910000000  0.4926080000000  0.5152380000000 1.0
C      1  0.4284060000000  0.5915610000000  0.4852840000000 1.0
C      1  0.4869650000000  0.5943600000000  0.5573680000000 1.0
C      1  0.5029570000000  0.4788310000000  0.6096590000000 1.0
C      1  0.4110240000000  0.4722740000000  0.4476950000000 1.0
C      1  0.4529060000000  0.3904620000000  0.5370940000000 1.0
C      1  0.4601350000000  0.4490480000000  0.4725350000000 1.0
C      1  0.5210500000000  0.5493350000000  0.5393280000000 1.0
C      1  0.5233290000000  0.5693780000000  0.4564470000000 1.0
C      1  0.4732490000000  0.4685350000000  0.5434490000000 1.0
C      1  0.5760580000000  0.5117390000000  0.5207950000000 1.0
C      1  0.4635230000000  0.5403300000000  0.5748630000000 1.0
C      1  0.5989620000000  0.4954400000000  0.4694810000000 1.0
C      1  0.5803290000000  0.5286810000000  0.4204220000000 1.0
C      1  0.6151790000000  0.5058170000000  0.5200390000000 1.0
C      1  0.5022160000000  0.4959200000000  0.5098390000000 1.0
C      1  0.4746080000000  0.5007170000000  0.5378470000000 1.0
C      1  0.4948120000000  0.5780570000000  0.4652630000000 1.0
C      1  0.4879890000000  0.5022320000000  0.5894510000000 1.0
C      1  0.4961120000000  0.4273500000000  0.4123100000000 1.0
C      1  0.4972960000000  0.5378520000000  0.4234480000000 1.0
C      1  0.4939070000000  0.5102020000000  0.5583000000000 1.0
C      1  0.4916740000000  0.5436350000000  0.5560540000000 1.0
END
