TITL C-3289330-4660-408 0.00161356907024285 125000 -478.230982978402 0 0 89 (C1) n - 1
REM
REM in /nfs/bkarasulu/CARBON/AIRSS/Generating-Clusters/AIREBO/with-SteepDescent/Higher-Symm/SD-CG/HFTN-CG
REM
REM
REM
REM
REM
REM ./C.cell (b20cbc046b6831c77cfcea5457e17084)
REM
REM compiler GCC version 9.2.1 20190827 (Red Hat 9.2.1-1)
REM options -cpp -mtune=generic -march=x86-64 -g -O0 -fpre-include=/usr/include/finclude/math-vector-fortran.h
REM seed -1785247267 1745154720 1608672977 -1315994700 1437541802 160105154 1698304982 -1764382194 970312782 919717992 -1151037145 -404162429 -1820766314 -189532962 2099903763 -2132251830 489535954 466283768 -359973059 -5741850 -1033391540 -1150273832 -1203321696 -1305566796 481776987 542241482 -1777018886 -113910434 -1571950771 -111993601 738250727 1297708655 -1050629282
REM
CELL 1.54180   50.00000   50.00000   50.00000   90.00000   90.00000   90.00000
LATT -1
SFAC C  
C      1  0.5281760000000  0.5436790000000  0.4440710000000 1.0
C      1  0.4651470000000  0.5543260000000  0.5572050000000 1.0
C      1  0.5332120000000  0.4428870000000  0.5592140000000 1.0
C      1  0.4603880000000  0.4353000000000  0.4418420000000 1.0
C      1  0.4530900000000  0.5484280000000  0.5311930000000 1.0
C      1  0.5460540000000  0.5454550000000  0.4696420000000 1.0
C      1  0.5475270000000  0.4488950000000  0.5345640000000 1.0
C      1  0.4487890000000  0.4404150000000  0.4665310000000 1.0
C      1  0.4794380000000  0.4454060000000  0.5439910000000 1.0
C      1  0.5253660000000  0.4427330000000  0.4577140000000 1.0
C      1  0.4787240000000  0.5629200000000  0.4587040000000 1.0
C      1  0.5195150000000  0.5526820000000  0.5443740000000 1.0
C      1  0.5420260000000  0.4525130000000  0.4837920000000 1.0
C      1  0.4561680000000  0.4484700000000  0.5192810000000 1.0
C      1  0.4591970000000  0.5540770000000  0.4797960000000 1.0
C      1  0.5421850000000  0.5490020000000  0.5194210000000 1.0
C      1  0.4761110000000  0.4643300000000  0.5810720000000 1.0
C      1  0.5163420000000  0.4555700000000  0.4282140000000 1.0
C      1  0.4804070000000  0.5346110000000  0.4181520000000 1.0
C      1  0.5222580000000  0.5359850000000  0.5819540000000 1.0
C      1  0.5781790000000  0.4682680000000  0.4785840000000 1.0
C      1  0.4195120000000  0.4639030000000  0.5226340000000 1.0
C      1  0.4175020000000  0.5328430000000  0.4769050000000 1.0
C      1  0.5798170000000  0.5351260000000  0.5220550000000 1.0
C      1  0.4946740000000  0.5940200000000  0.4773730000000 1.0
C      1  0.5095350000000  0.5878430000000  0.5286790000000 1.0
C      1  0.4896130000000  0.4125040000000  0.5240430000000 1.0
C      1  0.5091090000000  0.4107890000000  0.4745100000000 1.0
C      1  0.4747970000000  0.5952370000000  0.4932380000000 1.0
C      1  0.5273530000000  0.5919370000000  0.5110270000000 1.0
C      1  0.5274620000000  0.4070120000000  0.4918350000000 1.0
C      1  0.4733830000000  0.4122620000000  0.5043880000000 1.0
C      1  0.5672250000000  0.5501090000000  0.4964360000000 1.0
C      1  0.4350440000000  0.5462640000000  0.5024580000000 1.0
C      1  0.5668940000000  0.4533370000000  0.5069720000000 1.0
C      1  0.4321540000000  0.4483250000000  0.4951820000000 1.0
C      1  0.4922280000000  0.5460340000000  0.5635660000000 1.0
C      1  0.4970060000000  0.5528740000000  0.4361400000000 1.0
C      1  0.5061850000000  0.4527430000000  0.5637090000000 1.0
C      1  0.4833160000000  0.4470580000000  0.4320330000000 1.0
C      1  0.4676340000000  0.4757470000000  0.4923680000000 1.0
C      1  0.5265850000000  0.4859590000000  0.5039580000000 1.0
C      1  0.4709040000000  0.5094930000000  0.4989020000000 1.0
C      1  0.5305450000000  0.5184190000000  0.4945920000000 1.0
C      1  0.4979970000000  0.4713760000000  0.4598290000000 1.0
C      1  0.5073820000000  0.4730800000000  0.5261730000000 1.0
C      1  0.5001600000000  0.5308890000000  0.4693030000000 1.0
C      1  0.4956370000000  0.5267780000000  0.5255420000000 1.0
C      1  0.5246670000000  0.4856710000000  0.5510010000000 1.0
C      1  0.4727690000000  0.4848010000000  0.4474040000000 1.0
C      1  0.5138250000000  0.5139810000000  0.4433740000000 1.0
C      1  0.4772400000000  0.5122730000000  0.5485940000000 1.0
C      1  0.5503080000000  0.4823130000000  0.5289130000000 1.0
C      1  0.4490150000000  0.4915120000000  0.4708530000000 1.0
C      1  0.4516240000000  0.5146450000000  0.5255230000000 1.0
C      1  0.5589960000000  0.5152950000000  0.4785940000000 1.0
C      1  0.4291070000000  0.4650900000000  0.5478440000000 1.0
C      1  0.5690100000000  0.4665640000000  0.4529520000000 1.0
C      1  0.4271320000000  0.5355620000000  0.4511490000000 1.0
C      1  0.5700810000000  0.5361870000000  0.5489050000000 1.0
C      1  0.5459770000000  0.4694150000000  0.4377350000000 1.0
C      1  0.4526970000000  0.4688370000000  0.5628750000000 1.0
C      1  0.4519410000000  0.5336860000000  0.4367290000000 1.0
C      1  0.5469160000000  0.5317070000000  0.5645670000000 1.0
C      1  0.5090210000000  0.5635380000000  0.4727500000000 1.0
C      1  0.4920410000000  0.5597230000000  0.5256150000000 1.0
C      1  0.5076720000000  0.4399530000000  0.5258410000000 1.0
C      1  0.4971120000000  0.4421420000000  0.4734140000000 1.0
C      1  0.4666090000000  0.5691190000000  0.5093750000000 1.0
C      1  0.5334410000000  0.5674930000000  0.4922550000000 1.0
C      1  0.5339300000000  0.4318540000000  0.5097510000000 1.0
C      1  0.4710320000000  0.4420640000000  0.4892080000000 1.0
C      1  0.5214300000000  0.5187000000000  0.5461850000000 1.0
C      1  0.4749280000000  0.5155140000000  0.4524800000000 1.0
C      1  0.5225770000000  0.4869640000000  0.4521320000000 1.0
C      1  0.4791860000000  0.4794100000000  0.5443440000000 1.0
C      1  0.5449820000000  0.5157890000000  0.5229800000000 1.0
C      1  0.4562370000000  0.5242220000000  0.4767130000000 1.0
C      1  0.4553570000000  0.4810850000000  0.5215180000000 1.0
C      1  0.5422380000000  0.4855620000000  0.4757580000000 1.0
C      1  0.4960540000000  0.5149420000000  0.5767880000000 1.0
C      1  0.4955990000000  0.5093480000000  0.4189380000000 1.0
C      1  0.4916370000000  0.4774980000000  0.4200780000000 1.0
C      1  0.5031110000000  0.4840470000000  0.5766380000000 1.0
C      1  0.5802280000000  0.5128880000000  0.5014040000000 1.0
C      1  0.4247590000000  0.5139320000000  0.5046680000000 1.0
C      1  0.4262790000000  0.4818070000000  0.4942120000000 1.0
C      1  0.5788340000000  0.4835660000000  0.5094530000000 1.0
C      1  0.5001250000000  0.5147440000000  0.4968790000000 1.0
END
