TITL C-3289322-3858-196 414.424097948733 125000 -940.258108832791 0 0 179 (C1) n - 1
REM
REM in /nfs/bkarasulu/CARBON/AIRSS/Generating-Clusters/AIREBO/with-SteepDescent/Higher-Symm/SD-CG/HFTN-CG
REM
REM
REM
REM
REM
REM ./C.cell (b20cbc046b6831c77cfcea5457e17084)
REM
REM compiler GCC version 9.2.1 20190827 (Red Hat 9.2.1-1)
REM options -cpp -mtune=generic -march=x86-64 -g -O0 -fpre-include=/usr/include/finclude/math-vector-fortran.h
REM seed 1930655752 -403296939 -1211018835 -1403083702 -232662642 -357025156 -590023666 -846222155 -1103399249 -396339352 1465892805 751836817 -1348724791 -778324906 -868202559 892090192 1997942379 320882027 -1802225132 1670937251 1612261548 1123399615 1860736503 1440656781 1515169525 -1350080688 579855915 1841872626 -1685278857 -47749773 -1181424672 -184601351 1970183447
REM
CELL 1.54180   50.00000   50.00000   50.00000   90.00000   90.00000   90.00000
LATT -1
SFAC C  
C      1  0.5989810000000  0.5308020000000  0.4875250000000 1.0
C      1  0.4803590000000  0.3955120000000  0.4868250000000 1.0
C      1  0.4177220000000  0.5702490000000  0.4878560000000 1.0
C      1  0.6015100000000  0.5391190000000  0.5152380000000 1.0
C      1  0.4759570000000  0.3895650000000  0.5137180000000 1.0
C      1  0.4161150000000  0.5746220000000  0.5173020000000 1.0
C      1  0.4927100000000  0.5573550000000  0.4425400000000 1.0
C      1  0.5499620000000  0.4791200000000  0.4416960000000 1.0
C      1  0.4652290000000  0.4593520000000  0.4318610000000 1.0
C      1  0.4841550000000  0.5617950000000  0.5602380000000 1.0
C      1  0.5607960000000  0.4889980000000  0.5651360000000 1.0
C      1  0.4515880000000  0.4572330000000  0.5599070000000 1.0
C      1  0.4478470000000  0.5088500000000  0.4188400000000 1.0
C      1  0.5322980000000  0.5286760000000  0.4206170000000 1.0
C      1  0.5213280000000  0.4453800000000  0.4183350000000 1.0
C      1  0.4555340000000  0.5098990000000  0.5786170000000 1.0
C      1  0.5297790000000  0.5257630000000  0.5754030000000 1.0
C      1  0.5185580000000  0.4555100000000  0.5794710000000 1.0
C      1  0.4617980000000  0.5108380000000  0.4846710000000 1.0
C      1  0.5177770000000  0.5112330000000  0.4883540000000 1.0
C      1  0.4968740000000  0.4700260000000  0.4747750000000 1.0
C      1  0.4663630000000  0.5076480000000  0.5174870000000 1.0
C      1  0.5130600000000  0.5192900000000  0.5184460000000 1.0
C      1  0.5126990000000  0.4666610000000  0.5241370000000 1.0
C      1  0.4872960000000  0.3988930000000  0.4581070000000 1.0
C      1  0.4195770000000  0.5651790000000  0.4587160000000 1.0
C      1  0.5916240000000  0.5362570000000  0.4596050000000 1.0
C      1  0.4795990000000  0.4049350000000  0.5356560000000 1.0
C      1  0.4238210000000  0.5662330000000  0.5459310000000 1.0
C      1  0.5928420000000  0.5349200000000  0.5444240000000 1.0
C      1  0.4177880000000  0.4860870000000  0.4487570000000 1.0
C      1  0.5404570000000  0.5814930000000  0.4380880000000 1.0
C      1  0.5559550000000  0.4345740000000  0.4523630000000 1.0
C      1  0.4141700000000  0.4927810000000  0.5468710000000 1.0
C      1  0.5361950000000  0.5696140000000  0.5492950000000 1.0
C      1  0.5538760000000  0.4322800000000  0.5531470000000 1.0
C      1  0.4730040000000  0.4803740000000  0.4890050000000 1.0
C      1  0.4899330000000  0.5271300000000  0.4852070000000 1.0
C      1  0.5228230000000  0.4819950000000  0.4862740000000 1.0
C      1  0.4741020000000  0.4753110000000  0.5201410000000 1.0
C      1  0.4901110000000  0.5438110000000  0.5129740000000 1.0
C      1  0.5400120000000  0.4849780000000  0.5154570000000 1.0
C      1  0.4726790000000  0.4293470000000  0.5791760000000 1.0
C      1  0.4539430000000  0.5607240000000  0.5863660000000 1.0
C      1  0.5786490000000  0.5180250000000  0.5859670000000 1.0
C      1  0.4752600000000  0.4234050000000  0.4173260000000 1.0
C      1  0.4483520000000  0.5636730000000  0.4190130000000 1.0
C      1  0.5739970000000  0.5175350000000  0.4179490000000 1.0
C      1  0.4890740000000  0.4746690000000  0.3872060000000 1.0
C      1  0.4799140000000  0.5251630000000  0.3860030000000 1.0
C      1  0.5274040000000  0.5077960000000  0.3848830000000 1.0
C      1  0.4901640000000  0.4733740000000  0.6090580000000 1.0
C      1  0.4850660000000  0.5189300000000  0.6087760000000 1.0
C      1  0.5404800000000  0.5103440000000  0.6211190000000 1.0
C      1  0.5095470000000  0.5414360000000  0.6075200000000 1.0
C      1  0.5464090000000  0.4789330000000  0.6140260000000 1.0
C      1  0.4562670000000  0.4758230000000  0.6100620000000 1.0
C      1  0.4910640000000  0.5514190000000  0.3927680000000 1.0
C      1  0.5429800000000  0.4817490000000  0.3906470000000 1.0
C      1  0.4600990000000  0.4700490000000  0.3872750000000 1.0
C      1  0.4445650000000  0.5308040000000  0.5295680000000 1.0
C      1  0.5446180000000  0.5308240000000  0.5129310000000 1.0
C      1  0.5010990000000  0.4407360000000  0.5226680000000 1.0
C      1  0.4484560000000  0.5352740000000  0.4679250000000 1.0
C      1  0.5430320000000  0.5301610000000  0.4774280000000 1.0
C      1  0.4961380000000  0.4390930000000  0.4651340000000 1.0
C      1  0.5665350000000  0.5808950000000  0.5388880000000 1.0
C      1  0.5373210000000  0.4070200000000  0.5406550000000 1.0
C      1  0.3960120000000  0.5197880000000  0.5369920000000 1.0
C      1  0.5638280000000  0.5761090000000  0.4745180000000 1.0
C      1  0.5338570000000  0.4060890000000  0.4783690000000 1.0
C      1  0.4019940000000  0.5168790000000  0.4687910000000 1.0
C      1  0.4438040000000  0.4441870000000  0.4758330000000 1.0
C      1  0.4802570000000  0.5779990000000  0.4795600000000 1.0
C      1  0.5758600000000  0.4783970000000  0.4799770000000 1.0
C      1  0.4489840000000  0.4523690000000  0.5203230000000 1.0
C      1  0.4741700000000  0.5738450000000  0.5127520000000 1.0
C      1  0.5733800000000  0.4843920000000  0.5219570000000 1.0
C      1  0.5476290000000  0.4984210000000  0.4179530000000 1.0
C      1  0.4553000000000  0.4433930000000  0.4035140000000 1.0
C      1  0.4773690000000  0.5637100000000  0.4158940000000 1.0
C      1  0.5342890000000  0.4937370000000  0.5859140000000 1.0
C      1  0.4730450000000  0.4744820000000  0.5805080000000 1.0
C      1  0.4911560000000  0.5351010000000  0.5797010000000 1.0
C      1  0.4953250000000  0.4561390000000  0.4374840000000 1.0
C      1  0.4777190000000  0.5338190000000  0.4562650000000 1.0
C      1  0.5428960000000  0.5055130000000  0.4565510000000 1.0
C      1  0.4818940000000  0.4683040000000  0.5491740000000 1.0
C      1  0.4727120000000  0.5396110000000  0.5399950000000 1.0
C      1  0.5405280000000  0.5049530000000  0.5429820000000 1.0
C      1  0.5415170000000  0.5800520000000  0.4893160000000 1.0
C      1  0.5482520000000  0.4256590000000  0.4904830000000 1.0
C      1  0.4143630000000  0.4997050000000  0.4858150000000 1.0
C      1  0.5405260000000  0.5853140000000  0.5193810000000 1.0
C      1  0.5596300000000  0.4219190000000  0.5208580000000 1.0
C      1  0.4043710000000  0.4969310000000  0.5147670000000 1.0
C      1  0.5085450000000  0.5127770000000  0.5515320000000 1.0
C      1  0.5129670000000  0.4792390000000  0.5557300000000 1.0
C      1  0.4748590000000  0.5076500000000  0.5506830000000 1.0
C      1  0.5080160000000  0.5140910000000  0.4396620000000 1.0
C      1  0.5107460000000  0.4836660000000  0.4474500000000 1.0
C      1  0.4744690000000  0.5074780000000  0.4391940000000 1.0
C      1  0.5710120000000  0.5118620000000  0.4836350000000 1.0
C      1  0.4733590000000  0.4282410000000  0.4813610000000 1.0
C      1  0.4512250000000  0.5605940000000  0.4828050000000 1.0
C      1  0.5747630000000  0.5152360000000  0.5150060000000 1.0
C      1  0.4769530000000  0.4370800000000  0.5095400000000 1.0
C      1  0.4447620000000  0.5567120000000  0.5134520000000 1.0
C      1  0.4659130000000  0.4097950000000  0.4425950000000 1.0
C      1  0.4400570000000  0.5790200000000  0.4446820000000 1.0
C      1  0.5929490000000  0.5140870000000  0.4412390000000 1.0
C      1  0.4578940000000  0.4256840000000  0.5487360000000 1.0
C      1  0.4537660000000  0.5766100000000  0.5562580000000 1.0
C      1  0.5890430000000  0.5056460000000  0.5559900000000 1.0
C      1  0.5547670000000  0.5253900000000  0.5984840000000 1.0
C      1  0.4916640000000  0.4424960000000  0.5948880000000 1.0
C      1  0.4570780000000  0.5358660000000  0.5993700000000 1.0
C      1  0.5527340000000  0.5288440000000  0.3934130000000 1.0
C      1  0.4949720000000  0.4449960000000  0.3995740000000 1.0
C      1  0.4542450000000  0.5340290000000  0.4028640000000 1.0
C      1  0.4538590000000  0.5962390000000  0.5283110000000 1.0
C      1  0.6046970000000  0.4926520000000  0.5286280000000 1.0
C      1  0.4417690000000  0.4191480000000  0.5194510000000 1.0
C      1  0.4556980000000  0.5953560000000  0.4636840000000 1.0
C      1  0.6010830000000  0.4919180000000  0.4615790000000 1.0
C      1  0.4425070000000  0.4135230000000  0.4615230000000 1.0
C      1  0.5118000000000  0.5654110000000  0.4816350000000 1.0
C      1  0.5481130000000  0.4592840000000  0.4852760000000 1.0
C      1  0.4399870000000  0.4775380000000  0.4813880000000 1.0
C      1  0.5180920000000  0.5605350000000  0.5151960000000 1.0
C      1  0.5492530000000  0.4524970000000  0.5194110000000 1.0
C      1  0.4353970000000  0.4830200000000  0.5146440000000 1.0
C      1  0.5107080000000  0.5917190000000  0.5450590000000 1.0
C      1  0.5845050000000  0.4452020000000  0.5468270000000 1.0
C      1  0.4052210000000  0.4605670000000  0.5429780000000 1.0
C      1  0.5165840000000  0.5913740000000  0.4601960000000 1.0
C      1  0.5833330000000  0.4467610000000  0.4566920000000 1.0
C      1  0.4113560000000  0.4565000000000  0.4561650000000 1.0
C      1  0.4151920000000  0.4489900000000  0.5183400000000 1.0
C      1  0.4993210000000  0.5954200000000  0.5203700000000 1.0
C      1  0.5889290000000  0.4561840000000  0.5198010000000 1.0
C      1  0.4134660000000  0.4483450000000  0.4881500000000 1.0
C      1  0.5009080000000  0.6042240000000  0.4875680000000 1.0
C      1  0.5937750000000  0.4506650000000  0.4881320000000 1.0
C      1  0.4351160000000  0.4839510000000  0.5869020000000 1.0
C      1  0.5233910000000  0.5577060000000  0.5852330000000 1.0
C      1  0.5485010000000  0.4572700000000  0.5922260000000 1.0
C      1  0.4411270000000  0.4803290000000  0.4080030000000 1.0
C      1  0.5156490000000  0.5556400000000  0.4082530000000 1.0
C      1  0.5475490000000  0.4583740000000  0.4076950000000 1.0
C      1  0.5102610000000  0.5824800000000  0.4278190000000 1.0
C      1  0.5726400000000  0.4602490000000  0.4272830000000 1.0
C      1  0.4316170000000  0.4551330000000  0.4288920000000 1.0
C      1  0.5078720000000  0.5804190000000  0.5749060000000 1.0
C      1  0.5739020000000  0.4590230000000  0.5744050000000 1.0
C      1  0.4207550000000  0.4614550000000  0.5704230000000 1.0
C      1  0.5077770000000  0.4161020000000  0.5396940000000 1.0
C      1  0.4202420000000  0.5350250000000  0.5489260000000 1.0
C      1  0.5658630000000  0.5500560000000  0.5312720000000 1.0
C      1  0.5137880000000  0.4139130000000  0.4563710000000 1.0
C      1  0.4215720000000  0.5354150000000  0.4529680000000 1.0
C      1  0.5653280000000  0.5489160000000  0.4601670000000 1.0
C      1  0.5315070000000  0.4579770000000  0.4556260000000 1.0
C      1  0.4517230000000  0.4845920000000  0.4502510000000 1.0
C      1  0.5169390000000  0.5409830000000  0.4584950000000 1.0
C      1  0.5430360000000  0.4645250000000  0.5495890000000 1.0
C      1  0.4473120000000  0.4881320000000  0.5463460000000 1.0
C      1  0.5113060000000  0.5463880000000  0.5467270000000 1.0
C      1  0.5508350000000  0.5534730000000  0.4347640000000 1.0
C      1  0.5333010000000  0.4233590000000  0.4358690000000 1.0
C      1  0.4217710000000  0.5112410000000  0.4345500000000 1.0
C      1  0.5544050000000  0.5318760000000  0.5533480000000 1.0
C      1  0.5159090000000  0.4244250000000  0.5691230000000 1.0
C      1  0.4262820000000  0.5245490000000  0.5767620000000 1.0
C      1  0.4566090000000  0.6055940000000  0.4961230000000 1.0
C      1  0.4337320000000  0.4102880000000  0.4942290000000 1.0
C      1  0.6029050000000  0.4915040000000  0.4959240000000 1.0
C      1  0.4984800000000  0.5026460000000  0.3841080000000 1.0
C      1  0.5109440000000  0.4969130000000  0.6108250000000 1.0
END
