TITL C-3289331-6719-573 -0.00309751115361825 125000 -747.398533128982 0 0 137 (C1) n - 1
REM
REM in /nfs/bkarasulu/CARBON/AIRSS/Generating-Clusters/AIREBO/with-SteepDescent/Higher-Symm/SD-CG/HFTN-CG
REM
REM
REM
REM
REM
REM ./C.cell (b20cbc046b6831c77cfcea5457e17084)
REM
REM compiler GCC version 9.2.1 20190827 (Red Hat 9.2.1-1)
REM options -cpp -mtune=generic -march=x86-64 -g -O0 -fpre-include=/usr/include/finclude/math-vector-fortran.h
REM seed -1365213746 -206520727 1933240053 1943502269 1997400709 1822486550 -658751738 -1737085645 -835054504 -211893059 -1037462783 -1111997218 1683744969 -1217688643 -269052377 567819529 1435983358 341838316 719123547 -1116872862 1338205213 -1660050586 -1577817560 1927640365 476721744 -142333476 -1918408605 -1533552272 -1838457770 -477239393 552937614 1671507504 -723502523
REM
CELL 1.54180   50.00000   50.00000   50.00000   90.00000   90.00000   90.00000
LATT -1
SFAC C  
C      1  0.4561070000000  0.5043810000000  0.6095720000000 1.0
C      1  0.5453800000000  0.3960060000000  0.4952220000000 1.0
C      1  0.4576710000000  0.5245870000000  0.4020330000000 1.0
C      1  0.5257110000000  0.5959240000000  0.5183800000000 1.0
C      1  0.5476140000000  0.5464870000000  0.4990040000000 1.0
C      1  0.4506870000000  0.5213870000000  0.5512470000000 1.0
C      1  0.5516790000000  0.4483500000000  0.5050570000000 1.0
C      1  0.4545170000000  0.4674310000000  0.4522520000000 1.0
C      1  0.4408670000000  0.4812360000000  0.4285070000000 1.0
C      1  0.5649240000000  0.5736190000000  0.4985880000000 1.0
C      1  0.4366960000000  0.5397230000000  0.5737660000000 1.0
C      1  0.5624950000000  0.4296850000000  0.5308490000000 1.0
C      1  0.4226500000000  0.5526250000000  0.4962730000000 1.0
C      1  0.5827620000000  0.4884850000000  0.5590440000000 1.0
C      1  0.4277630000000  0.4470150000000  0.4985680000000 1.0
C      1  0.5792100000000  0.5057760000000  0.4374640000000 1.0
C      1  0.4713300000000  0.5016630000000  0.4806500000000 1.0
C      1  0.5336080000000  0.5003300000000  0.4986430000000 1.0
C      1  0.4634190000000  0.5028490000000  0.5283910000000 1.0
C      1  0.5274850000000  0.4674160000000  0.5050960000000 1.0
C      1  0.4981960000000  0.4296930000000  0.5643690000000 1.0
C      1  0.5011820000000  0.4290860000000  0.4337880000000 1.0
C      1  0.4866130000000  0.5672340000000  0.4129130000000 1.0
C      1  0.4967910000000  0.5805910000000  0.5633770000000 1.0
C      1  0.5714940000000  0.5078260000000  0.5263120000000 1.0
C      1  0.4218600000000  0.4772330000000  0.5315660000000 1.0
C      1  0.5697920000000  0.4727410000000  0.4670260000000 1.0
C      1  0.4160200000000  0.5131830000000  0.4757240000000 1.0
C      1  0.5142050000000  0.4346510000000  0.5371710000000 1.0
C      1  0.4924230000000  0.4587020000000  0.4195680000000 1.0
C      1  0.5090600000000  0.5764900000000  0.4440340000000 1.0
C      1  0.4981770000000  0.5547230000000  0.5810160000000 1.0
C      1  0.5364980000000  0.4704280000000  0.5735950000000 1.0
C      1  0.4658340000000  0.4149010000000  0.4784780000000 1.0
C      1  0.5341490000000  0.5314860000000  0.4120960000000 1.0
C      1  0.4618170000000  0.5830190000000  0.5194710000000 1.0
C      1  0.4967880000000  0.5081850000000  0.5321970000000 1.0
C      1  0.4944480000000  0.4653680000000  0.5128870000000 1.0
C      1  0.5081260000000  0.4972860000000  0.4660490000000 1.0
C      1  0.4864620000000  0.5378100000000  0.4944230000000 1.0
C      1  0.5156210000000  0.4325970000000  0.4731540000000 1.0
C      1  0.4854790000000  0.5246270000000  0.4465340000000 1.0
C      1  0.5152090000000  0.5578210000000  0.5230780000000 1.0
C      1  0.4773560000000  0.4790630000000  0.5718960000000 1.0
C      1  0.4741600000000  0.4181410000000  0.5112830000000 1.0
C      1  0.5346400000000  0.4989590000000  0.4220180000000 1.0
C      1  0.4672710000000  0.5909060000000  0.4875080000000 1.0
C      1  0.5312560000000  0.4975880000000  0.5849630000000 1.0
C      1  0.5566040000000  0.4395070000000  0.5590170000000 1.0
C      1  0.4535340000000  0.4350740000000  0.4543670000000 1.0
C      1  0.5535780000000  0.5590480000000  0.4172930000000 1.0
C      1  0.4495240000000  0.5612760000000  0.5506440000000 1.0
C      1  0.5202150000000  0.4421150000000  0.4088060000000 1.0
C      1  0.4782080000000  0.5780910000000  0.4404520000000 1.0
C      1  0.5286700000000  0.5468750000000  0.5789780000000 1.0
C      1  0.4719910000000  0.4103000000000  0.5547070000000 1.0
C      1  0.4407580000000  0.5052510000000  0.5057580000000 1.0
C      1  0.5805850000000  0.4875120000000  0.4871240000000 1.0
C      1  0.4431230000000  0.4826660000000  0.4804370000000 1.0
C      1  0.5634670000000  0.5160050000000  0.4942980000000 1.0
C      1  0.4841610000000  0.5283930000000  0.5941980000000 1.0
C      1  0.5219040000000  0.4060590000000  0.5273340000000 1.0
C      1  0.4837690000000  0.4827680000000  0.4050540000000 1.0
C      1  0.5187870000000  0.5783080000000  0.4719390000000 1.0
C      1  0.5399040000000  0.5214900000000  0.5670760000000 1.0
C      1  0.4553950000000  0.4331200000000  0.5355450000000 1.0
C      1  0.5347810000000  0.4669280000000  0.4334290000000 1.0
C      1  0.4614850000000  0.5706680000000  0.4653890000000 1.0
C      1  0.5831170000000  0.4488730000000  0.5139720000000 1.0
C      1  0.4135310000000  0.4853600000000  0.4360480000000 1.0
C      1  0.5862000000000  0.5520800000000  0.5071590000000 1.0
C      1  0.4115770000000  0.5224070000000  0.5587050000000 1.0
C      1  0.4709880000000  0.5400860000000  0.4681930000000 1.0
C      1  0.5203920000000  0.5310800000000  0.5408700000000 1.0
C      1  0.4912930000000  0.4765110000000  0.5433320000000 1.0
C      1  0.5198470000000  0.4653820000000  0.4651320000000 1.0
C      1  0.5214140000000  0.4640870000000  0.5463630000000 1.0
C      1  0.4882080000000  0.4627780000000  0.4525140000000 1.0
C      1  0.5225750000000  0.5248410000000  0.4689490000000 1.0
C      1  0.4759580000000  0.5425930000000  0.5583140000000 1.0
C      1  0.5191210000000  0.5821370000000  0.5465190000000 1.0
C      1  0.4707630000000  0.4477760000000  0.5621070000000 1.0
C      1  0.5331190000000  0.4346450000000  0.4440460000000 1.0
C      1  0.4683480000000  0.5529730000000  0.3965830000000 1.0
C      1  0.4118510000000  0.5069910000000  0.5358400000000 1.0
C      1  0.5932960000000  0.4739860000000  0.5086400000000 1.0
C      1  0.4073010000000  0.4893420000000  0.4640120000000 1.0
C      1  0.5915680000000  0.5319200000000  0.4836600000000 1.0
C      1  0.4439170000000  0.4899380000000  0.5521790000000 1.0
C      1  0.5498740000000  0.4530130000000  0.4752510000000 1.0
C      1  0.4459870000000  0.5205700000000  0.4680400000000 1.0
C      1  0.5493760000000  0.5336370000000  0.5271880000000 1.0
C      1  0.4801180000000  0.4158550000000  0.4479160000000 1.0
C      1  0.5201210000000  0.5623380000000  0.4165910000000 1.0
C      1  0.4716070000000  0.5864260000000  0.5518920000000 1.0
C      1  0.5286330000000  0.4367590000000  0.5742880000000 1.0
C      1  0.4569820000000  0.5343480000000  0.5051910000000 1.0
C      1  0.5256020000000  0.4904540000000  0.5288170000000 1.0
C      1  0.4713990000000  0.4702630000000  0.4947100000000 1.0
C      1  0.5529330000000  0.5220440000000  0.4625330000000 1.0
C      1  0.5168310000000  0.5496320000000  0.4901110000000 1.0
C      1  0.4866480000000  0.5109790000000  0.5650930000000 1.0
C      1  0.5029260000000  0.4351040000000  0.5048230000000 1.0
C      1  0.4829910000000  0.4940300000000  0.4433830000000 1.0
C      1  0.5686320000000  0.4665670000000  0.5671570000000 1.0
C      1  0.4544320000000  0.4448520000000  0.4865950000000 1.0
C      1  0.5603050000000  0.5299210000000  0.4331820000000 1.0
C      1  0.4432600000000  0.5579440000000  0.5197690000000 1.0
C      1  0.4257620000000  0.5393290000000  0.4481500000000 1.0
C      1  0.5812380000000  0.5437450000000  0.5374610000000 1.0
C      1  0.4425910000000  0.4612350000000  0.5652990000000 1.0
C      1  0.5589430000000  0.4252780000000  0.4577960000000 1.0
C      1  0.5062260000000  0.5041260000000  0.4038500000000 1.0
C      1  0.5003560000000  0.5983470000000  0.4876380000000 1.0
C      1  0.5049030000000  0.5044190000000  0.6050210000000 1.0
C      1  0.4989200000000  0.3949320000000  0.5091090000000 1.0
C      1  0.4673800000000  0.3855750000000  0.5183560000000 1.0
C      1  0.5363040000000  0.5017700000000  0.3881730000000 1.0
C      1  0.4781940000000  0.6212070000000  0.4807730000000 1.0
C      1  0.5360890000000  0.5013840000000  0.6172820000000 1.0
C      1  0.5979770000000  0.5170830000000  0.4586850000000 1.0
C      1  0.4116520000000  0.5228170000000  0.5063850000000 1.0
C      1  0.5981530000000  0.4896870000000  0.5323760000000 1.0
C      1  0.4132770000000  0.4665340000000  0.4828390000000 1.0
C      1  0.4520350000000  0.5314770000000  0.5991950000000 1.0
C      1  0.5509000000000  0.4028410000000  0.5234760000000 1.0
C      1  0.4588100000000  0.4946330000000  0.4116020000000 1.0
C      1  0.5399560000000  0.5886690000000  0.4954530000000 1.0
C      1  0.4937090000000  0.5832730000000  0.5162630000000 1.0
C      1  0.4775490000000  0.4896790000000  0.6007460000000 1.0
C      1  0.5199990000000  0.4034610000000  0.4874920000000 1.0
C      1  0.4859670000000  0.5234790000000  0.4167060000000 1.0
C      1  0.4324110000000  0.5581260000000  0.4698950000000 1.0
C      1  0.5695800000000  0.5194440000000  0.5582180000000 1.0
C      1  0.4300190000000  0.4505480000000  0.5262500000000 1.0
C      1  0.5644880000000  0.4816260000000  0.4416640000000 1.0
C      1  0.5002790000000  0.5070380000000  0.4976710000000 1.0
END
