TITL C-3289330-4660-498 0.00221345860586088 125000 -331.428277607916 0 0 60 (C1) n - 1
REM
REM in /nfs/bkarasulu/CARBON/AIRSS/Generating-Clusters/AIREBO/with-SteepDescent/Higher-Symm/SD-CG/HFTN-CG
REM
REM
REM
REM
REM
REM ./C.cell (b20cbc046b6831c77cfcea5457e17084)
REM
REM compiler GCC version 9.2.1 20190827 (Red Hat 9.2.1-1)
REM options -cpp -mtune=generic -march=x86-64 -g -O0 -fpre-include=/usr/include/finclude/math-vector-fortran.h
REM seed 1923054492 1842304145 -35057464 1465025282 1981589150 -1087222814 -488099693 -1186642034 -191202543 -1353339708 1763555057 500442813 291559501 1153854023 249835223 -820796682 1875941925 361835339 -1495595794 851490091 -635006777 -1658206306 1829992056 469168843 520013674 976435183 -645220970 -1411959671 1495724664 -2125536363 -1169223243 -1627128745 638017758
REM
CELL 1.54180   50.00000   50.00000   50.00000   90.00000   90.00000   90.00000
LATT -1
SFAC C  
C      1  0.4998390000000  0.4578920000000  0.4817900000000 1.0
C      1  0.4964420000000  0.5271800000000  0.5279730000000 1.0
C      1  0.5327710000000  0.5068640000000  0.5512420000000 1.0
C      1  0.4709300000000  0.4855050000000  0.4388260000000 1.0
C      1  0.4998370000000  0.4735970000000  0.5237530000000 1.0
C      1  0.4948680000000  0.5293360000000  0.4721500000000 1.0
C      1  0.5249180000000  0.4785410000000  0.5461770000000 1.0
C      1  0.4795010000000  0.5147810000000  0.4454680000000 1.0
C      1  0.5521930000000  0.5069410000000  0.4444960000000 1.0
C      1  0.4578410000000  0.4987520000000  0.5587020000000 1.0
C      1  0.4713280000000  0.4348490000000  0.4660520000000 1.0
C      1  0.5154710000000  0.5617210000000  0.5344530000000 1.0
C      1  0.4056010000000  0.4847340000000  0.4885010000000 1.0
C      1  0.5897450000000  0.5137090000000  0.5158190000000 1.0
C      1  0.5046660000000  0.5279520000000  0.4334180000000 1.0
C      1  0.5011520000000  0.4701560000000  0.5635820000000 1.0
C      1  0.4256720000000  0.4812940000000  0.5066800000000 1.0
C      1  0.5724780000000  0.5218490000000  0.4962740000000 1.0
C      1  0.4443050000000  0.4729020000000  0.5521240000000 1.0
C      1  0.5602750000000  0.5344280000000  0.4518840000000 1.0
C      1  0.5239720000000  0.5088650000000  0.4276140000000 1.0
C      1  0.4867530000000  0.4919660000000  0.5728910000000 1.0
C      1  0.5625780000000  0.4822090000000  0.4653910000000 1.0
C      1  0.4495000000000  0.5215140000000  0.5381080000000 1.0
C      1  0.4897100000000  0.5566880000000  0.5161350000000 1.0
C      1  0.4989470000000  0.4259300000000  0.4818480000000 1.0
C      1  0.5238770000000  0.5387250000000  0.4873040000000 1.0
C      1  0.4710330000000  0.4626330000000  0.5128720000000 1.0
C      1  0.4669150000000  0.5369900000000  0.4899390000000 1.0
C      1  0.5254110000000  0.4635880000000  0.5034630000000 1.0
C      1  0.5398200000000  0.5539170000000  0.4539710000000 1.0
C      1  0.4602950000000  0.4496290000000  0.5490670000000 1.0
C      1  0.4534770000000  0.4355710000000  0.5236350000000 1.0
C      1  0.5406940000000  0.5678100000000  0.4804270000000 1.0
C      1  0.4907300000000  0.5004510000000  0.5107930000000 1.0
C      1  0.5019410000000  0.5000580000000  0.4816950000000 1.0
C      1  0.4308430000000  0.5388770000000  0.5436640000000 1.0
C      1  0.5829730000000  0.4669130000000  0.4679360000000 1.0
C      1  0.4615520000000  0.5161340000000  0.5112920000000 1.0
C      1  0.5336600000000  0.4887080000000  0.4820630000000 1.0
C      1  0.5279730000000  0.5648480000000  0.5082880000000 1.0
C      1  0.4622610000000  0.4352730000000  0.4942190000000 1.0
C      1  0.4853610000000  0.5188460000000  0.5550830000000 1.0
C      1  0.5268510000000  0.4846590000000  0.4487100000000 1.0
C      1  0.5289740000000  0.5221490000000  0.5232350000000 1.0
C      1  0.4771530000000  0.4807360000000  0.4779940000000 1.0
C      1  0.5123780000000  0.4326970000000  0.5100520000000 1.0
C      1  0.4842150000000  0.5645310000000  0.4875430000000 1.0
C      1  0.5256730000000  0.5398010000000  0.5521410000000 1.0
C      1  0.4712130000000  0.4605550000000  0.4537730000000 1.0
C      1  0.4224930000000  0.4752530000000  0.5341550000000 1.0
C      1  0.5797540000000  0.5345960000000  0.4722570000000 1.0
C      1  0.5478940000000  0.4623840000000  0.5289420000000 1.0
C      1  0.4570110000000  0.5325400000000  0.4597070000000 1.0
C      1  0.4935540000000  0.5691940000000  0.4604410000000 1.0
C      1  0.5041720000000  0.4294260000000  0.5373960000000 1.0
C      1  0.5430900000000  0.5155410000000  0.4972600000000 1.0
C      1  0.4546160000000  0.4871210000000  0.4999990000000 1.0
C      1  0.4883510000000  0.4470580000000  0.5544780000000 1.0
C      1  0.5125010000000  0.5526320000000  0.4448540000000 1.0
END
