TITL C-3289330-4660-453 -0.00375649841189747 125000 -755.825978050335 0 0 137 (C1) n - 1
REM
REM in /nfs/bkarasulu/CARBON/AIRSS/Generating-Clusters/AIREBO/with-SteepDescent/Higher-Symm/SD-CG/HFTN-CG
REM
REM
REM
REM
REM
REM ./C.cell (b20cbc046b6831c77cfcea5457e17084)
REM
REM compiler GCC version 9.2.1 20190827 (Red Hat 9.2.1-1)
REM options -cpp -mtune=generic -march=x86-64 -g -O0 -fpre-include=/usr/include/finclude/math-vector-fortran.h
REM seed -663749304 1706733210 -1674953664 75952584 -1498609283 -1751086658 -1865775432 -1549016966 813681246 -175072409 -810754729 -127797232 -518112552 -709083824 767912911 -61596393 1615481811 -1244758426 1988734904 1776267966 -1879615090 1337393638 -448114494 751281459 -793711636 -630104064 1673105327 1665701075 805598731 -1728220285 873935356 1329444980 -796691571
REM
CELL 1.54180   50.00000   50.00000   50.00000   90.00000   90.00000   90.00000
LATT -1
SFAC C  
C      1  0.5876340000000  0.5546340000000  0.5086540000000 1.0
C      1  0.4759280000000  0.6042300000000  0.4963020000000 1.0
C      1  0.4052020000000  0.5081660000000  0.5112090000000 1.0
C      1  0.4644370000000  0.4067770000000  0.5028870000000 1.0
C      1  0.5594070000000  0.4469730000000  0.5154760000000 1.0
C      1  0.4977830000000  0.5233430000000  0.4041080000000 1.0
C      1  0.4724560000000  0.5047950000000  0.4049880000000 1.0
C      1  0.4805780000000  0.4780550000000  0.3966240000000 1.0
C      1  0.5144980000000  0.4762420000000  0.3987490000000 1.0
C      1  0.5279790000000  0.5074460000000  0.3998890000000 1.0
C      1  0.4957620000000  0.5623950000000  0.5216680000000 1.0
C      1  0.4550870000000  0.5219980000000  0.5099190000000 1.0
C      1  0.4665430000000  0.4597540000000  0.5133960000000 1.0
C      1  0.5326490000000  0.4644790000000  0.5251890000000 1.0
C      1  0.5472860000000  0.5155540000000  0.5140590000000 1.0
C      1  0.4693990000000  0.5466230000000  0.5775240000000 1.0
C      1  0.4547530000000  0.4909260000000  0.5908990000000 1.0
C      1  0.4958780000000  0.4409030000000  0.5812760000000 1.0
C      1  0.5485880000000  0.4782250000000  0.5752480000000 1.0
C      1  0.5346810000000  0.5373900000000  0.5831120000000 1.0
C      1  0.4759330000000  0.4297660000000  0.4291850000000 1.0
C      1  0.5556020000000  0.4530090000000  0.4304600000000 1.0
C      1  0.5689370000000  0.5482370000000  0.4325260000000 1.0
C      1  0.4716930000000  0.5661760000000  0.4316170000000 1.0
C      1  0.4281500000000  0.4909740000000  0.4389130000000 1.0
C      1  0.4568420000000  0.5073630000000  0.4606150000000 1.0
C      1  0.4779680000000  0.4617130000000  0.4330230000000 1.0
C      1  0.5340720000000  0.4752090000000  0.4554510000000 1.0
C      1  0.5409130000000  0.5306750000000  0.4404340000000 1.0
C      1  0.5022390000000  0.5587270000000  0.4428490000000 1.0
C      1  0.4363180000000  0.5700170000000  0.5362620000000 1.0
C      1  0.4170860000000  0.4619250000000  0.5372930000000 1.0
C      1  0.5153280000000  0.3953260000000  0.5552710000000 1.0
C      1  0.5979480000000  0.4739990000000  0.5243290000000 1.0
C      1  0.5445680000000  0.5789840000000  0.5387170000000 1.0
C      1  0.5307180000000  0.4933240000000  0.4306960000000 1.0
C      1  0.5114710000000  0.5212240000000  0.4333820000000 1.0
C      1  0.4884630000000  0.5303070000000  0.4548500000000 1.0
C      1  0.4849800000000  0.4967740000000  0.4503960000000 1.0
C      1  0.5019490000000  0.4804430000000  0.4300950000000 1.0
C      1  0.4079630000000  0.5333140000000  0.4979540000000 1.0
C      1  0.4385670000000  0.4172100000000  0.4953970000000 1.0
C      1  0.5271630000000  0.4201180000000  0.4967150000000 1.0
C      1  0.5969840000000  0.5245740000000  0.5045280000000 1.0
C      1  0.5254460000000  0.5959450000000  0.4955620000000 1.0
C      1  0.5606930000000  0.4432930000000  0.4591610000000 1.0
C      1  0.5818910000000  0.5422320000000  0.4612610000000 1.0
C      1  0.4744380000000  0.5884540000000  0.4539620000000 1.0
C      1  0.4170520000000  0.5043590000000  0.4615360000000 1.0
C      1  0.4628980000000  0.4192710000000  0.4551270000000 1.0
C      1  0.4487940000000  0.4993240000000  0.4880760000000 1.0
C      1  0.4866330000000  0.4545010000000  0.4853720000000 1.0
C      1  0.5492420000000  0.4832260000000  0.4814020000000 1.0
C      1  0.5500690000000  0.5296990000000  0.4848400000000 1.0
C      1  0.4762140000000  0.5529050000000  0.4963130000000 1.0
C      1  0.5898900000000  0.4938610000000  0.4663070000000 1.0
C      1  0.5290890000000  0.5901490000000  0.4616740000000 1.0
C      1  0.4268920000000  0.5641540000000  0.4545410000000 1.0
C      1  0.4249040000000  0.4484060000000  0.4640950000000 1.0
C      1  0.5157820000000  0.4079750000000  0.4510720000000 1.0
C      1  0.5785600000000  0.5359230000000  0.5342660000000 1.0
C      1  0.4725030000000  0.6063470000000  0.5238570000000 1.0
C      1  0.4164530000000  0.5096060000000  0.5369610000000 1.0
C      1  0.4671850000000  0.4064650000000  0.5306340000000 1.0
C      1  0.5629810000000  0.4238590000000  0.5402260000000 1.0
C      1  0.4251960000000  0.4857680000000  0.5473230000000 1.0
C      1  0.4891770000000  0.4041510000000  0.5504400000000 1.0
C      1  0.5811440000000  0.4525200000000  0.5404590000000 1.0
C      1  0.5509090000000  0.5516690000000  0.5392330000000 1.0
C      1  0.4580510000000  0.5858620000000  0.5417320000000 1.0
C      1  0.5671160000000  0.5569360000000  0.4854290000000 1.0
C      1  0.4625240000000  0.5780390000000  0.4831210000000 1.0
C      1  0.4188910000000  0.4889790000000  0.4911070000000 1.0
C      1  0.4816940000000  0.4209570000000  0.4813800000000 1.0
C      1  0.5668520000000  0.4571320000000  0.4886990000000 1.0
C      1  0.5229130000000  0.4321890000000  0.5208670000000 1.0
C      1  0.5775660000000  0.5001930000000  0.5168890000000 1.0
C      1  0.5191130000000  0.5864420000000  0.5229370000000 1.0
C      1  0.4347330000000  0.5492250000000  0.5085030000000 1.0
C      1  0.4358230000000  0.4448420000000  0.5150260000000 1.0
C      1  0.5734830000000  0.5059940000000  0.5499890000000 1.0
C      1  0.4960530000000  0.5968170000000  0.5418830000000 1.0
C      1  0.4299810000000  0.5367930000000  0.5398020000000 1.0
C      1  0.4466630000000  0.4259730000000  0.5411580000000 1.0
C      1  0.5399940000000  0.4132680000000  0.5514810000000 1.0
C      1  0.5059460000000  0.5311360000000  0.5816010000000 1.0
C      1  0.4796580000000  0.5148240000000  0.5711800000000 1.0
C      1  0.4768160000000  0.4870260000000  0.6072870000000 1.0
C      1  0.5052640000000  0.4654000000000  0.5973100000000 1.0
C      1  0.5284490000000  0.4981470000000  0.5793080000000 1.0
C      1  0.4635170000000  0.5394090000000  0.5448200000000 1.0
C      1  0.4536390000000  0.4847230000000  0.5600830000000 1.0
C      1  0.5147400000000  0.4351220000000  0.5535330000000 1.0
C      1  0.5582200000000  0.4758930000000  0.5452380000000 1.0
C      1  0.5246040000000  0.5340270000000  0.5309970000000 1.0
C      1  0.4490670000000  0.5459340000000  0.4380080000000 1.0
C      1  0.4397140000000  0.4662920000000  0.4475260000000 1.0
C      1  0.5076340000000  0.4350310000000  0.4353500000000 1.0
C      1  0.5660040000000  0.4816360000000  0.4454250000000 1.0
C      1  0.5421740000000  0.5639020000000  0.4476020000000 1.0
C      1  0.5287760000000  0.4525600000000  0.4185520000000 1.0
C      1  0.5538110000000  0.5275410000000  0.4091160000000 1.0
C      1  0.4943700000000  0.5539910000000  0.4100930000000 1.0
C      1  0.4511200000000  0.5133750000000  0.4276310000000 1.0
C      1  0.4675660000000  0.4505210000000  0.4033080000000 1.0
C      1  0.4269000000000  0.5298480000000  0.4744650000000 1.0
C      1  0.4369240000000  0.4228530000000  0.4672990000000 1.0
C      1  0.5360200000000  0.4366710000000  0.4739410000000 1.0
C      1  0.5954080000000  0.5205720000000  0.4727960000000 1.0
C      1  0.4993830000000  0.5908290000000  0.4753660000000 1.0
C      1  0.5066430000000  0.4735770000000  0.5051800000000 1.0
C      1  0.5282010000000  0.4947720000000  0.4994730000000 1.0
C      1  0.5167850000000  0.5256120000000  0.4905060000000 1.0
C      1  0.4864120000000  0.5216160000000  0.4968070000000 1.0
C      1  0.4766380000000  0.4893140000000  0.5023370000000 1.0
C      1  0.4573600000000  0.5079140000000  0.5387850000000 1.0
C      1  0.4744280000000  0.4639380000000  0.5448360000000 1.0
C      1  0.5141400000000  0.4672420000000  0.5584250000000 1.0
C      1  0.5209990000000  0.5097830000000  0.5515810000000 1.0
C      1  0.4976690000000  0.5431520000000  0.5496590000000 1.0
C      1  0.5325740000000  0.4548440000000  0.5841800000000 1.0
C      1  0.5502070000000  0.5253310000000  0.5599890000000 1.0
C      1  0.4817680000000  0.5719040000000  0.5584450000000 1.0
C      1  0.4499790000000  0.5210750000000  0.5874960000000 1.0
C      1  0.4750460000000  0.4345740000000  0.5577860000000 1.0
C      1  0.4686730000000  0.4694240000000  0.4623680000000 1.0
C      1  0.5120650000000  0.4530890000000  0.4627870000000 1.0
C      1  0.5537700000000  0.5095950000000  0.4604190000000 1.0
C      1  0.5199040000000  0.5497060000000  0.4686270000000 1.0
C      1  0.4591130000000  0.5398260000000  0.4699260000000 1.0
C      1  0.4340640000000  0.5688540000000  0.4812870000000 1.0
C      1  0.4186060000000  0.4594240000000  0.4895880000000 1.0
C      1  0.5082490000000  0.4081700000000  0.4775340000000 1.0
C      1  0.5875320000000  0.4791430000000  0.4921060000000 1.0
C      1  0.5534630000000  0.5821690000000  0.4828950000000 1.0
C      1  0.5047470000000  0.5019630000000  0.5991640000000 1.0
C      1  0.4926730000000  0.4911020000000  0.5541640000000 1.0
END
