TITL C-3289334-2237-391 -0.000457195000786133 125000 -466.348111247225 0 0 84 (C1) n - 1
REM
REM in /nfs/bkarasulu/CARBON/AIRSS/Generating-Clusters/AIREBO/with-SteepDescent/Higher-Symm/SD-CG/HFTN-CG
REM
REM
REM
REM
REM
REM ./C.cell (b20cbc046b6831c77cfcea5457e17084)
REM
REM compiler GCC version 9.2.1 20190827 (Red Hat 9.2.1-1)
REM options -cpp -mtune=generic -march=x86-64 -g -O0 -fpre-include=/usr/include/finclude/math-vector-fortran.h
REM seed -458952580 1565246596 -1837555321 -165828824 -327595207 706748104 -181500838 -1061306121 -1688154778 864297195 -1562089938 -1852263881 994027870 1408411058 165081630 -933206934 -1891484719 981449196 2077521976 714365738 -1991834721 -653443786 1331929708 1586261368 1552107484 1655584022 -1945890470 -767761960 713314982 -397766016 -193124149 -1092921120 -575308363
REM
CELL 1.54180   50.00000   50.00000   50.00000   90.00000   90.00000   90.00000
LATT -1
SFAC C  
C      1  0.4929250000000  0.4459210000000  0.5814260000000 1.0
C      1  0.4878210000000  0.5530390000000  0.4304940000000 1.0
C      1  0.4968070000000  0.4413740000000  0.4301870000000 1.0
C      1  0.4897070000000  0.5577010000000  0.5693330000000 1.0
C      1  0.5109050000000  0.5920590000000  0.4867500000000 1.0
C      1  0.4985270000000  0.4306510000000  0.5213750000000 1.0
C      1  0.5060340000000  0.5767820000000  0.5112250000000 1.0
C      1  0.4896540000000  0.4117450000000  0.5007740000000 1.0
C      1  0.4705900000000  0.5135810000000  0.5488650000000 1.0
C      1  0.4683870000000  0.4807430000000  0.4353350000000 1.0
C      1  0.4674530000000  0.5115150000000  0.4493620000000 1.0
C      1  0.4664200000000  0.4837780000000  0.5621760000000 1.0
C      1  0.4625790000000  0.5514120000000  0.4688080000000 1.0
C      1  0.4693090000000  0.4460110000000  0.5493380000000 1.0
C      1  0.4689650000000  0.5512330000000  0.5357270000000 1.0
C      1  0.4593650000000  0.4481030000000  0.4564980000000 1.0
C      1  0.4506140000000  0.4786050000000  0.5152900000000 1.0
C      1  0.4405030000000  0.5174130000000  0.4861820000000 1.0
C      1  0.4523890000000  0.4876100000000  0.4848150000000 1.0
C      1  0.4422900000000  0.5085300000000  0.5172050000000 1.0
C      1  0.5316890000000  0.5131970000000  0.4856680000000 1.0
C      1  0.5398950000000  0.4855810000000  0.5133660000000 1.0
C      1  0.5395910000000  0.5157920000000  0.5170080000000 1.0
C      1  0.5317260000000  0.4816250000000  0.4810620000000 1.0
C      1  0.5625580000000  0.5274970000000  0.4869930000000 1.0
C      1  0.5686080000000  0.4703830000000  0.5189720000000 1.0
C      1  0.5682790000000  0.5300070000000  0.5231710000000 1.0
C      1  0.5639420000000  0.4719350000000  0.4848730000000 1.0
C      1  0.4391270000000  0.5125710000000  0.5584810000000 1.0
C      1  0.4358240000000  0.4891310000000  0.4409190000000 1.0
C      1  0.4352180000000  0.5206810000000  0.4440660000000 1.0
C      1  0.4332720000000  0.4824790000000  0.5643430000000 1.0
C      1  0.4888680000000  0.5257510000000  0.4309730000000 1.0
C      1  0.4909130000000  0.4733130000000  0.5779070000000 1.0
C      1  0.4877490000000  0.5303610000000  0.5689400000000 1.0
C      1  0.4957150000000  0.4688310000000  0.4262970000000 1.0
C      1  0.5147150000000  0.4552390000000  0.5076420000000 1.0
C      1  0.5105980000000  0.5600870000000  0.4751720000000 1.0
C      1  0.4997340000000  0.4382310000000  0.4822280000000 1.0
C      1  0.5166610000000  0.5463290000000  0.5058950000000 1.0
C      1  0.5337710000000  0.4699390000000  0.5427260000000 1.0
C      1  0.5404770000000  0.5304370000000  0.4451100000000 1.0
C      1  0.5465050000000  0.4748780000000  0.4389750000000 1.0
C      1  0.5351320000000  0.5316130000000  0.5591700000000 1.0
C      1  0.5599180000000  0.4310540000000  0.4550690000000 1.0
C      1  0.5459210000000  0.5725440000000  0.5383230000000 1.0
C      1  0.5482360000000  0.4224030000000  0.5319650000000 1.0
C      1  0.5589970000000  0.5705540000000  0.4644340000000 1.0
C      1  0.5065870000000  0.5264030000000  0.4728230000000 1.0
C      1  0.5014050000000  0.4825140000000  0.5230120000000 1.0
C      1  0.5060320000000  0.5169820000000  0.5195310000000 1.0
C      1  0.5043540000000  0.4698740000000  0.4706770000000 1.0
C      1  0.4840200000000  0.4340150000000  0.4544200000000 1.0
C      1  0.4966640000000  0.5674150000000  0.5393020000000 1.0
C      1  0.4994180000000  0.4316750000000  0.5534010000000 1.0
C      1  0.4841800000000  0.5638390000000  0.4564130000000 1.0
C      1  0.4398270000000  0.4569970000000  0.5470370000000 1.0
C      1  0.4349070000000  0.5463940000000  0.4596610000000 1.0
C      1  0.4339220000000  0.4637440000000  0.4586870000000 1.0
C      1  0.4408470000000  0.5397920000000  0.5417630000000 1.0
C      1  0.5362400000000  0.5572250000000  0.4541620000000 1.0
C      1  0.5290570000000  0.4402530000000  0.5452760000000 1.0
C      1  0.5264810000000  0.5595530000000  0.5537650000000 1.0
C      1  0.5531010000000  0.4478230000000  0.4339510000000 1.0
C      1  0.4252970000000  0.4650580000000  0.4880290000000 1.0
C      1  0.4238280000000  0.5370730000000  0.5162520000000 1.0
C      1  0.4270480000000  0.4560590000000  0.5179020000000 1.0
C      1  0.4190710000000  0.5439460000000  0.4865310000000 1.0
C      1  0.5102410000000  0.5159690000000  0.5532570000000 1.0
C      1  0.5179300000000  0.4834940000000  0.4426220000000 1.0
C      1  0.5146120000000  0.5135480000000  0.4427930000000 1.0
C      1  0.5094680000000  0.4852380000000  0.5559330000000 1.0
C      1  0.5488630000000  0.5547680000000  0.5128340000000 1.0
C      1  0.5596380000000  0.4400170000000  0.4801750000000 1.0
C      1  0.5677530000000  0.5585900000000  0.4871720000000 1.0
C      1  0.5463580000000  0.4463570000000  0.5097610000000 1.0
C      1  0.5631870000000  0.4882770000000  0.4572970000000 1.0
C      1  0.5598750000000  0.5172270000000  0.5510880000000 1.0
C      1  0.5611310000000  0.4886030000000  0.5470300000000 1.0
C      1  0.5609910000000  0.5160070000000  0.4586980000000 1.0
C      1  0.4730040000000  0.4759800000000  0.4677260000000 1.0
C      1  0.4728080000000  0.5235090000000  0.5164000000000 1.0
C      1  0.4731260000000  0.4737390000000  0.5325440000000 1.0
C      1  0.4738470000000  0.5217950000000  0.4811550000000 1.0
END
