TITL C-3289321-8710-193 -0.000802172440807646 125000 -550.771416557165 0 0 101 (C1) n - 1
REM
REM in /nfs/bkarasulu/CARBON/AIRSS/Generating-Clusters/AIREBO/with-SteepDescent/Higher-Symm/SD-CG/HFTN-CG
REM
REM
REM
REM
REM
REM ./C.cell (b20cbc046b6831c77cfcea5457e17084)
REM
REM compiler GCC version 9.2.1 20190827 (Red Hat 9.2.1-1)
REM options -cpp -mtune=generic -march=x86-64 -g -O0 -fpre-include=/usr/include/finclude/math-vector-fortran.h
REM seed -1072159728 -722456414 1487915834 -1715536754 -198005125 -755276488 -532571363 1484162684 -341829170 291641496 480594236 -233515623 1871343388 -544282989 -109745591 1562979924 -1152124172 -614318892 -989276155 -54727751 865699477 898610424 1564696183 539487850 1479681546 -1937355379 -212208326 1876001013 -1596539498 -216264749 -786003151 392611886 -1728711556
REM
CELL 1.54180   50.00000   50.00000   50.00000   90.00000   90.00000   90.00000
LATT -1
SFAC C  
C      1  0.4599250000000  0.4992360000000  0.4328070000000 1.0
C      1  0.4577660000000  0.4374880000000  0.4843790000000 1.0
C      1  0.4606650000000  0.4631120000000  0.5542780000000 1.0
C      1  0.4567960000000  0.5387630000000  0.5484560000000 1.0
C      1  0.4552350000000  0.5669410000000  0.4783650000000 1.0
C      1  0.4274280000000  0.4663090000000  0.5470210000000 1.0
C      1  0.4236160000000  0.5314780000000  0.5430290000000 1.0
C      1  0.4259580000000  0.5520020000000  0.4834350000000 1.0
C      1  0.4281100000000  0.5002130000000  0.4456130000000 1.0
C      1  0.4231890000000  0.4490070000000  0.4869270000000 1.0
C      1  0.5054540000000  0.4259380000000  0.4520630000000 1.0
C      1  0.5069110000000  0.4299650000000  0.5536520000000 1.0
C      1  0.5018240000000  0.5269150000000  0.5777540000000 1.0
C      1  0.5034060000000  0.5923900000000  0.4959800000000 1.0
C      1  0.5097510000000  0.5175170000000  0.4063770000000 1.0
C      1  0.5102350000000  0.4790300000000  0.5813530000000 1.0
C      1  0.5087310000000  0.5636820000000  0.5373890000000 1.0
C      1  0.5152630000000  0.5586390000000  0.4502430000000 1.0
C      1  0.5093420000000  0.4714720000000  0.4217390000000 1.0
C      1  0.5064200000000  0.4205360000000  0.5053540000000 1.0
C      1  0.5043700000000  0.4948000000000  0.5544280000000 1.0
C      1  0.4874010000000  0.5519700000000  0.5160500000000 1.0
C      1  0.4998140000000  0.5314810000000  0.4534490000000 1.0
C      1  0.4938800000000  0.4736060000000  0.4501800000000 1.0
C      1  0.4921330000000  0.4445650000000  0.5195330000000 1.0
C      1  0.4781350000000  0.4443110000000  0.4461850000000 1.0
C      1  0.4808830000000  0.4165700000000  0.5483580000000 1.0
C      1  0.4756380000000  0.5123000000000  0.5804790000000 1.0
C      1  0.4810350000000  0.5992520000000  0.5072640000000 1.0
C      1  0.4612880000000  0.5533360000000  0.4219990000000 1.0
C      1  0.5581060000000  0.5478100000000  0.4894380000000 1.0
C      1  0.5591940000000  0.4961670000000  0.4327500000000 1.0
C      1  0.5515090000000  0.4389020000000  0.4865610000000 1.0
C      1  0.5543450000000  0.4650560000000  0.5528520000000 1.0
C      1  0.5550030000000  0.5431590000000  0.5521560000000 1.0
C      1  0.5451950000000  0.4673410000000  0.5020490000000 1.0
C      1  0.5581700000000  0.4821140000000  0.5273140000000 1.0
C      1  0.5477190000000  0.5400800000000  0.5187190000000 1.0
C      1  0.5495020000000  0.5095940000000  0.4600720000000 1.0
C      1  0.5702510000000  0.4731980000000  0.4534280000000 1.0
C      1  0.5746790000000  0.5266040000000  0.5317280000000 1.0
C      1  0.5676570000000  0.5220180000000  0.4774590000000 1.0
C      1  0.5854770000000  0.4782630000000  0.4774260000000 1.0
C      1  0.5773940000000  0.4573380000000  0.4955580000000 1.0
C      1  0.5787820000000  0.5021760000000  0.5191110000000 1.0
C      1  0.5082320000000  0.5245120000000  0.5437460000000 1.0
C      1  0.5013390000000  0.5611140000000  0.4875450000000 1.0
C      1  0.5134720000000  0.5073300000000  0.4383880000000 1.0
C      1  0.5057810000000  0.4526830000000  0.4737780000000 1.0
C      1  0.5141350000000  0.4599180000000  0.5384010000000 1.0
C      1  0.4921900000000  0.4743760000000  0.5083640000000 1.0
C      1  0.4822980000000  0.4954780000000  0.5319050000000 1.0
C      1  0.4793940000000  0.5227350000000  0.5161690000000 1.0
C      1  0.4748090000000  0.5133550000000  0.4857930000000 1.0
C      1  0.4819370000000  0.4840210000000  0.4799180000000 1.0
C      1  0.5258530000000  0.4902900000000  0.5284620000000 1.0
C      1  0.5222490000000  0.5221310000000  0.5160220000000 1.0
C      1  0.5057680000000  0.5274120000000  0.4867180000000 1.0
C      1  0.5214810000000  0.5019620000000  0.4709960000000 1.0
C      1  0.5201180000000  0.4769030000000  0.4890350000000 1.0
C      1  0.4332370000000  0.4763710000000  0.5091830000000 1.0
C      1  0.4383950000000  0.4986110000000  0.5265340000000 1.0
C      1  0.4341890000000  0.5234420000000  0.5097950000000 1.0
C      1  0.4438540000000  0.5162670000000  0.4821340000000 1.0
C      1  0.4378950000000  0.4856890000000  0.4814980000000 1.0
C      1  0.4442530000000  0.5616550000000  0.5287950000000 1.0
C      1  0.4488270000000  0.5489700000000  0.4513250000000 1.0
C      1  0.4426330000000  0.4710440000000  0.4358990000000 1.0
C      1  0.4447060000000  0.4355870000000  0.5131240000000 1.0
C      1  0.4406410000000  0.4831360000000  0.5731020000000 1.0
C      1  0.4839390000000  0.5674950000000  0.4601140000000 1.0
C      1  0.4877230000000  0.4971810000000  0.4185920000000 1.0
C      1  0.4866000000000  0.4254910000000  0.4803700000000 1.0
C      1  0.4914940000000  0.4582740000000  0.5637180000000 1.0
C      1  0.4857920000000  0.5471360000000  0.5556140000000 1.0
C      1  0.5532890000000  0.4381020000000  0.5478240000000 1.0
C      1  0.5521350000000  0.5285220000000  0.5791440000000 1.0
C      1  0.5499510000000  0.5786180000000  0.5012900000000 1.0
C      1  0.5595550000000  0.5296920000000  0.4270650000000 1.0
C      1  0.5532480000000  0.4499780000000  0.4564050000000 1.0
C      1  0.4629930000000  0.5735610000000  0.5080720000000 1.0
C      1  0.4723670000000  0.5285550000000  0.4406660000000 1.0
C      1  0.4582270000000  0.4644200000000  0.4654350000000 1.0
C      1  0.4647400000000  0.4376640000000  0.5343250000000 1.0
C      1  0.4579400000000  0.5051570000000  0.5535750000000 1.0
C      1  0.5425350000000  0.4783070000000  0.5741670000000 1.0
C      1  0.5386990000000  0.5688090000000  0.5496270000000 1.0
C      1  0.5440070000000  0.5643850000000  0.4663380000000 1.0
C      1  0.5427280000000  0.4719880000000  0.4206220000000 1.0
C      1  0.5381140000000  0.4176130000000  0.5019370000000 1.0
C      1  0.5323950000000  0.5823640000000  0.5215960000000 1.0
C      1  0.5457240000000  0.5503780000000  0.4372760000000 1.0
C      1  0.5265500000000  0.4487700000000  0.4399460000000 1.0
C      1  0.5304650000000  0.4238470000000  0.5331100000000 1.0
C      1  0.5286720000000  0.5080400000000  0.5831170000000 1.0
C      1  0.4189520000000  0.4699270000000  0.4602720000000 1.0
C      1  0.4151330000000  0.4497910000000  0.5199600000000 1.0
C      1  0.4184190000000  0.4993300000000  0.5531000000000 1.0
C      1  0.4159670000000  0.5505110000000  0.5159030000000 1.0
C      1  0.4240260000000  0.5286010000000  0.4587830000000 1.0
C      1  0.5837640000000  0.5035620000000  0.4909640000000 1.0
END
