TITL C-3289333-7213-768 -0.000599944662923847 125000 -714.420279763983 0 0 134 (C1) n - 1
REM
REM in /nfs/bkarasulu/CARBON/AIRSS/Generating-Clusters/AIREBO/with-SteepDescent/Higher-Symm/SD-CG/HFTN-CG
REM
REM
REM
REM
REM
REM ./C.cell (b20cbc046b6831c77cfcea5457e17084)
REM
REM compiler GCC version 9.2.1 20190827 (Red Hat 9.2.1-1)
REM options -cpp -mtune=generic -march=x86-64 -g -O0 -fpre-include=/usr/include/finclude/math-vector-fortran.h
REM seed 585343550 -1333876418 -2042395988 -1098908882 -1855964327 -983700513 -887642298 -256526873 -1629127583 -772206131 343645905 498986267 -854009382 487237360 -1509662355 1772257707 -906136697 1011940912 1507610239 -1944528741 -442036147 737001038 -1060953705 -1240992743 1487318918 1757816103 -736754224 734198106 1417524390 -1036414227 2063107980 1142358221 -1172420913
REM
CELL 1.54180   50.00000   50.00000   50.00000   90.00000   90.00000   90.00000
LATT -1
SFAC C  
C      1  0.5107190000000  0.4304350000000  0.5199310000000 1.0
C      1  0.4656570000000  0.4197930000000  0.4961420000000 1.0
C      1  0.5236070000000  0.4323240000000  0.4758960000000 1.0
C      1  0.5126780000000  0.5789460000000  0.5340100000000 1.0
C      1  0.4630810000000  0.5821050000000  0.4963520000000 1.0
C      1  0.5127730000000  0.5631430000000  0.4842130000000 1.0
C      1  0.4439490000000  0.5152760000000  0.4563430000000 1.0
C      1  0.5619340000000  0.5147080000000  0.4781980000000 1.0
C      1  0.4883320000000  0.5164540000000  0.5680520000000 1.0
C      1  0.4409520000000  0.4892380000000  0.4733490000000 1.0
C      1  0.5648490000000  0.4813030000000  0.4734250000000 1.0
C      1  0.4936660000000  0.4860450000000  0.5590140000000 1.0
C      1  0.5959200000000  0.4761900000000  0.4839980000000 1.0
C      1  0.4633610000000  0.4800430000000  0.5923110000000 1.0
C      1  0.4386410000000  0.4757960000000  0.4266780000000 1.0
C      1  0.5912090000000  0.5061260000000  0.4895740000000 1.0
C      1  0.4629720000000  0.5074130000000  0.5830590000000 1.0
C      1  0.4468720000000  0.5037440000000  0.4288760000000 1.0
C      1  0.4740960000000  0.4396000000000  0.5722570000000 1.0
C      1  0.4557920000000  0.4451290000000  0.4504930000000 1.0
C      1  0.5740780000000  0.4431460000000  0.4805540000000 1.0
C      1  0.4828700000000  0.5647420000000  0.5747380000000 1.0
C      1  0.4430620000000  0.5596750000000  0.4441590000000 1.0
C      1  0.5714960000000  0.5625910000000  0.4809580000000 1.0
C      1  0.4409500000000  0.4876640000000  0.5260510000000 1.0
C      1  0.5132930000000  0.4808700000000  0.4366950000000 1.0
C      1  0.5490520000000  0.4837500000000  0.5399650000000 1.0
C      1  0.4370540000000  0.5216390000000  0.5229810000000 1.0
C      1  0.5173920000000  0.5143150000000  0.4321160000000 1.0
C      1  0.5507670000000  0.5179110000000  0.5429640000000 1.0
C      1  0.6058600000000  0.4802740000000  0.5162070000000 1.0
C      1  0.4311470000000  0.4835210000000  0.5850050000000 1.0
C      1  0.4631780000000  0.4782000000000  0.4032390000000 1.0
C      1  0.6096370000000  0.5141840000000  0.5150120000000 1.0
C      1  0.4350200000000  0.5198140000000  0.5877180000000 1.0
C      1  0.4602110000000  0.5123550000000  0.4008190000000 1.0
C      1  0.5256040000000  0.5542280000000  0.5423150000000 1.0
C      1  0.4489960000000  0.5555580000000  0.4991220000000 1.0
C      1  0.5321660000000  0.5545440000000  0.4601600000000 1.0
C      1  0.5210820000000  0.4449580000000  0.5460400000000 1.0
C      1  0.4490850000000  0.4434610000000  0.5022810000000 1.0
C      1  0.5272040000000  0.4316090000000  0.4436360000000 1.0
C      1  0.4915860000000  0.4661150000000  0.5843870000000 1.0
C      1  0.4286040000000  0.4644660000000  0.4570580000000 1.0
C      1  0.5730020000000  0.4584230000000  0.4509100000000 1.0
C      1  0.5002350000000  0.5410680000000  0.5840440000000 1.0
C      1  0.4233760000000  0.5392200000000  0.4568660000000 1.0
C      1  0.5700850000000  0.5400920000000  0.4595420000000 1.0
C      1  0.5820160000000  0.5526310000000  0.5091300000000 1.0
C      1  0.4551660000000  0.5576910000000  0.5632490000000 1.0
C      1  0.4690910000000  0.5482750000000  0.4314930000000 1.0
C      1  0.6016930000000  0.4371510000000  0.4925470000000 1.0
C      1  0.4492070000000  0.4360280000000  0.5901030000000 1.0
C      1  0.4524860000000  0.4338880000000  0.4221050000000 1.0
C      1  0.4520560000000  0.4480670000000  0.4012620000000 1.0
C      1  0.6167050000000  0.4512050000000  0.5070570000000 1.0
C      1  0.4333150000000  0.4542220000000  0.5974080000000 1.0
C      1  0.4739050000000  0.5396110000000  0.4057600000000 1.0
C      1  0.5998010000000  0.5407780000000  0.5264010000000 1.0
C      1  0.4315080000000  0.5480610000000  0.5728330000000 1.0
C      1  0.4927990000000  0.5839060000000  0.4760590000000 1.0
C      1  0.5263750000000  0.5926540000000  0.5144260000000 1.0
C      1  0.4670840000000  0.5935520000000  0.5232700000000 1.0
C      1  0.5012450000000  0.4161200000000  0.4568130000000 1.0
C      1  0.5305780000000  0.4110770000000  0.5107270000000 1.0
C      1  0.4760320000000  0.4079090000000  0.5185790000000 1.0
C      1  0.4854750000000  0.4272430000000  0.5424900000000 1.0
C      1  0.4762990000000  0.4282630000000  0.4692600000000 1.0
C      1  0.5494500000000  0.4239040000000  0.4912180000000 1.0
C      1  0.4841170000000  0.5759090000000  0.5425730000000 1.0
C      1  0.4668020000000  0.5679720000000  0.4656370000000 1.0
C      1  0.5418820000000  0.5738790000000  0.4936840000000 1.0
C      1  0.5341800000000  0.4817810000000  0.4843190000000 1.0
C      1  0.4958680000000  0.4840670000000  0.5276150000000 1.0
C      1  0.4683620000000  0.4828830000000  0.4857050000000 1.0
C      1  0.5305820000000  0.5143570000000  0.4895490000000 1.0
C      1  0.4979700000000  0.5174270000000  0.5354330000000 1.0
C      1  0.4685620000000  0.5164170000000  0.4800380000000 1.0
C      1  0.5233530000000  0.5475580000000  0.4281600000000 1.0
C      1  0.5538850000000  0.5490130000000  0.5563710000000 1.0
C      1  0.4215970000000  0.5513080000000  0.5168540000000 1.0
C      1  0.5279130000000  0.4571100000000  0.4222880000000 1.0
C      1  0.5451340000000  0.4595340000000  0.5635110000000 1.0
C      1  0.4263040000000  0.4647230000000  0.5120400000000 1.0
C      1  0.5514390000000  0.4505610000000  0.4001580000000 1.0
C      1  0.5716130000000  0.4538510000000  0.5773080000000 1.0
C      1  0.3963810000000  0.4535770000000  0.5038770000000 1.0
C      1  0.5429040000000  0.5665650000000  0.4089160000000 1.0
C      1  0.5548650000000  0.5618080000000  0.5865110000000 1.0
C      1  0.3967430000000  0.5661920000000  0.5009030000000 1.0
C      1  0.4760630000000  0.5429110000000  0.5408840000000 1.0
C      1  0.4823370000000  0.5377060000000  0.4610860000000 1.0
C      1  0.5517730000000  0.5494540000000  0.5120990000000 1.0
C      1  0.4671470000000  0.4548610000000  0.5439810000000 1.0
C      1  0.4804920000000  0.4615910000000  0.4676360000000 1.0
C      1  0.5496530000000  0.4562630000000  0.5006130000000 1.0
C      1  0.5844350000000  0.5126710000000  0.4453990000000 1.0
C      1  0.5020610000000  0.5147080000000  0.6054450000000 1.0
C      1  0.4048610000000  0.5121150000000  0.4489200000000 1.0
C      1  0.5840650000000  0.4884070000000  0.4392380000000 1.0
C      1  0.5051600000000  0.4897660000000  0.6047030000000 1.0
C      1  0.4038430000000  0.4872090000000  0.4519320000000 1.0
C      1  0.4315660000000  0.5125290000000  0.5552850000000 1.0
C      1  0.4862040000000  0.5051470000000  0.4215180000000 1.0
C      1  0.5783210000000  0.5071050000000  0.5262210000000 1.0
C      1  0.4231800000000  0.4810580000000  0.5542760000000 1.0
C      1  0.4950130000000  0.4750470000000  0.4086220000000 1.0
C      1  0.5821950000000  0.4763470000000  0.5381330000000 1.0
C      1  0.5187380000000  0.5209630000000  0.3987890000000 1.0
C      1  0.5772450000000  0.5182830000000  0.5643370000000 1.0
C      1  0.4033800000000  0.5176330000000  0.5275430000000 1.0
C      1  0.5271310000000  0.5002810000000  0.3818540000000 1.0
C      1  0.5882100000000  0.4978410000000  0.5798460000000 1.0
C      1  0.3850200000000  0.4970780000000  0.5298580000000 1.0
C      1  0.5554660000000  0.5525520000000  0.4354340000000 1.0
C      1  0.5267880000000  0.5489820000000  0.5756430000000 1.0
C      1  0.4194170000000  0.5507940000000  0.4832570000000 1.0
C      1  0.5566670000000  0.4433820000000  0.4318580000000 1.0
C      1  0.5180330000000  0.4499700000000  0.5784930000000 1.0
C      1  0.4211420000000  0.4482950000000  0.4831130000000 1.0
C      1  0.3935100000000  0.4766200000000  0.5464610000000 1.0
C      1  0.5132880000000  0.4765010000000  0.3837830000000 1.0
C      1  0.5892220000000  0.4725410000000  0.5675460000000 1.0
C      1  0.4106410000000  0.5390440000000  0.5513500000000 1.0
C      1  0.4992020000000  0.5409700000000  0.3929440000000 1.0
C      1  0.5949730000000  0.5390440000000  0.5543300000000 1.0
C      1  0.5264490000000  0.5282970000000  0.5203310000000 1.0
C      1  0.4683440000000  0.5306460000000  0.5101240000000 1.0
C      1  0.5129390000000  0.5275570000000  0.4635650000000 1.0
C      1  0.5252270000000  0.4678650000000  0.5212540000000 1.0
C      1  0.4675880000000  0.4697990000000  0.5147580000000 1.0
C      1  0.5108640000000  0.4685410000000  0.4647420000000 1.0
C      1  0.4998970000000  0.5422010000000  0.5042360000000 1.0
C      1  0.5082250000000  0.4536600000000  0.4952190000000 1.0
END
