TITL C-3289335-9438-328 -0.000559167406602348 125000 -183.05605555093 0 0 33 (C2) n - 1
REM
REM in /nfs/bkarasulu/CARBON/AIRSS/Generating-Clusters/AIREBO/with-SteepDescent/Higher-Symm/SD-CG/HFTN-CG
REM
REM
REM
REM
REM
REM ./C.cell (b20cbc046b6831c77cfcea5457e17084)
REM
REM compiler GCC version 9.2.1 20190827 (Red Hat 9.2.1-1)
REM options -cpp -mtune=generic -march=x86-64 -g -O0 -fpre-include=/usr/include/finclude/math-vector-fortran.h
REM seed -329986073 1304000542 -1681845950 1940677066 1691426604 1018995466 954088060 1049467224 1860817577 1069596391 -2016758187 -127469855 1433151360 -1477914160 1130941637 -845873787 288296710 1923333062 1545465373 -222325752 -261276269 -1357978224 -143301467 -1430497744 -100048347 577969302 -1523572818 -506662473 -1624114411 -1780204011 249681053 -1410836836 1994011340
REM
CELL 1.54180   50.00000   50.00000   50.00000   90.00000   90.00000   90.00000
LATT -1
SFAC C  
C      1  0.5230890000000  0.5477300000000  0.5119620000000 1.0
C      1  0.4783460000000  0.5477060000000  0.4866280000000 1.0
C      1  0.5187380000000  0.4523960000000  0.4842750000000 1.0
C      1  0.4827910000000  0.4523790000000  0.5143240000000 1.0
C      1  0.5526650000000  0.5096000000000  0.5004860000000 1.0
C      1  0.4488070000000  0.5095480000000  0.4981070000000 1.0
C      1  0.5501100000000  0.4855990000000  0.5076270000000 1.0
C      1  0.4513860000000  0.4855490000000  0.4909680000000 1.0
C      1  0.5260990000000  0.5237290000000  0.4923670000000 1.0
C      1  0.4753590000000  0.5237050000000  0.5062250000000 1.0
C      1  0.5198780000000  0.4745120000000  0.5054210000000 1.0
C      1  0.4816300000000  0.4744920000000  0.4931760000000 1.0
C      1  0.4736400000000  0.4681070000000  0.4628100000000 1.0
C      1  0.5278740000000  0.4681370000000  0.5357870000000 1.0
C      1  0.4729030000000  0.5321110000000  0.5352600000000 1.0
C      1  0.5285470000000  0.5321360000000  0.4633310000000 1.0
C      1  0.4956650000000  0.4665430000000  0.4455250000000 1.0
C      1  0.5058510000000  0.4665530000000  0.5530720000000 1.0
C      1  0.4965040000000  0.5334250000000  0.5502810000000 1.0
C      1  0.5049450000000  0.5334240000000  0.4483100000000 1.0
C      1  0.5028840000000  0.4870960000000  0.5717690000000 1.0
C      1  0.4986110000000  0.4870870000000  0.4268260000000 1.0
C      1  0.5012660000000  0.5140950000000  0.4284930000000 1.0
C      1  0.5002020000000  0.5141020000000  0.5701000000000 1.0
C      1  0.4845390000000  0.5484760000000  0.4602230000000 1.0
C      1  0.5168950000000  0.5484960000000  0.5383660000000 1.0
C      1  0.4849410000000  0.4517410000000  0.5414880000000 1.0
C      1  0.5165890000000  0.4517520000000  0.4571110000000 1.0
C      1  0.5540910000000  0.4641160000000  0.5424570000000 1.0
C      1  0.4474270000000  0.4640590000000  0.4561410000000 1.0
C      1  0.5531200000000  0.5392750000000  0.4534900000000 1.0
C      1  0.4483230000000  0.5392270000000  0.5451000000000 1.0
C      1  0.5007400000000  0.5019880000000  0.4992970000000 1.0
END
