TITL C-3289324-3781-422 0.0005808964114418 125000 -318.951750955385 0 0 62 (C1) n - 1
REM
REM in /nfs/bkarasulu/CARBON/AIRSS/Generating-Clusters/AIREBO/with-SteepDescent/Higher-Symm/SD-CG/HFTN-CG
REM
REM
REM
REM
REM
REM ./C.cell (b20cbc046b6831c77cfcea5457e17084)
REM
REM compiler GCC version 9.2.1 20190827 (Red Hat 9.2.1-1)
REM options -cpp -mtune=generic -march=x86-64 -g -O0 -fpre-include=/usr/include/finclude/math-vector-fortran.h
REM seed -2088358498 -1720042987 1113528509 218468357 -1044519060 -751697031 -55180226 -1591119781 -1444185276 -1746533604 137338851 329358043 -33212222 283128984 575796355 -1159115487 1931329289 183575591 1976535805 -1693526344 898181016 -740264557 1966031688 -986058382 -1100054354 -1133570735 1605946751 1820084039 2047583180 -1740020653 1316740035 -1725032290 -2097731899
REM
CELL 1.54180   50.00000   50.00000   50.00000   90.00000   90.00000   90.00000
LATT -1
SFAC C  
C      1  0.4558500000000  0.5017150000000  0.5589280000000 1.0
C      1  0.5316870000000  0.4908020000000  0.4468050000000 1.0
C      1  0.5661120000000  0.4433860000000  0.5330000000000 1.0
C      1  0.4311980000000  0.5280870000000  0.4861600000000 1.0
C      1  0.4859340000000  0.5398130000000  0.5510080000000 1.0
C      1  0.5062270000000  0.4540340000000  0.4359770000000 1.0
C      1  0.5291410000000  0.4460320000000  0.5146920000000 1.0
C      1  0.4744490000000  0.5576470000000  0.4806040000000 1.0
C      1  0.5399210000000  0.4184600000000  0.5159560000000 1.0
C      1  0.4637800000000  0.5834700000000  0.4713950000000 1.0
C      1  0.5109290000000  0.5044030000000  0.5298040000000 1.0
C      1  0.4770020000000  0.5005870000000  0.4623820000000 1.0
C      1  0.5633400000000  0.4944270000000  0.4876220000000 1.0
C      1  0.4443990000000  0.5143870000000  0.5145070000000 1.0
C      1  0.5265330000000  0.4721850000000  0.4287530000000 1.0
C      1  0.4655130000000  0.5233280000000  0.5666110000000 1.0
C      1  0.4934510000000  0.5655250000000  0.5076950000000 1.0
C      1  0.5121640000000  0.4461870000000  0.4852180000000 1.0
C      1  0.5215160000000  0.5043330000000  0.5604550000000 1.0
C      1  0.4720940000000  0.4950140000000  0.4311790000000 1.0
C      1  0.5201960000000  0.5251400000000  0.4819770000000 1.0
C      1  0.4775770000000  0.4699390000000  0.5161930000000 1.0
C      1  0.4683510000000  0.4351460000000  0.5332040000000 1.0
C      1  0.5392480000000  0.5589840000000  0.4729160000000 1.0
C      1  0.4499040000000  0.4550150000000  0.5464780000000 1.0
C      1  0.5504310000000  0.5391820000000  0.4547080000000 1.0
C      1  0.5684480000000  0.4453950000000  0.5074700000000 1.0
C      1  0.4281150000000  0.5503620000000  0.5089560000000 1.0
C      1  0.5166780000000  0.5339580000000  0.5558900000000 1.0
C      1  0.4803210000000  0.4666340000000  0.4391720000000 1.0
C      1  0.5480620000000  0.4682390000000  0.4971510000000 1.0
C      1  0.4601370000000  0.5438680000000  0.5082200000000 1.0
C      1  0.4584700000000  0.4443580000000  0.5048450000000 1.0
C      1  0.5586520000000  0.5582490000000  0.4955050000000 1.0
C      1  0.5320650000000  0.4803560000000  0.5667750000000 1.0
C      1  0.4567730000000  0.5200930000000  0.4340650000000 1.0
C      1  0.4330890000000  0.4760900000000  0.4833580000000 1.0
C      1  0.5653020000000  0.5122950000000  0.5158070000000 1.0
C      1  0.5564980000000  0.5428890000000  0.5234460000000 1.0
C      1  0.4498770000000  0.4535590000000  0.4796260000000 1.0
C      1  0.5127410000000  0.4374400000000  0.4591390000000 1.0
C      1  0.4817540000000  0.5672730000000  0.5333100000000 1.0
C      1  0.5309430000000  0.5434100000000  0.5334540000000 1.0
C      1  0.4730150000000  0.4610920000000  0.4660910000000 1.0
C      1  0.5088020000000  0.4994730000000  0.4677210000000 1.0
C      1  0.4862670000000  0.5256390000000  0.5200960000000 1.0
C      1  0.4248720000000  0.4769560000000  0.5099450000000 1.0
C      1  0.5803720000000  0.5335680000000  0.4938020000000 1.0
C      1  0.4557270000000  0.5342620000000  0.4636010000000 1.0
C      1  0.5417030000000  0.4616890000000  0.5421620000000 1.0
C      1  0.5439120000000  0.4927260000000  0.5284310000000 1.0
C      1  0.4457160000000  0.5019140000000  0.4745600000000 1.0
C      1  0.5911550000000  0.4871440000000  0.4768880000000 1.0
C      1  0.4234190000000  0.5131570000000  0.5386460000000 1.0
C      1  0.5471650000000  0.5098950000000  0.4671470000000 1.0
C      1  0.4506820000000  0.4850540000000  0.5305500000000 1.0
C      1  0.4951040000000  0.4755040000000  0.4875740000000 1.0
C      1  0.5136000000000  0.5420680000000  0.5088400000000 1.0
C      1  0.5071150000000  0.5543700000000  0.4716230000000 1.0
C      1  0.4980670000000  0.4456160000000  0.5285510000000 1.0
C      1  0.4788160000000  0.5042260000000  0.4961390000000 1.0
C      1  0.5196160000000  0.4839510000000  0.5072200000000 1.0
END
