TITL C-3289329-2751-106 -0.00148306782109867 125000 -608.976112803964 0 0 113 (C1) n - 1
REM
REM in /nfs/bkarasulu/CARBON/AIRSS/Generating-Clusters/AIREBO/with-SteepDescent/Higher-Symm/SD-CG/HFTN-CG
REM
REM
REM
REM
REM
REM ./C.cell (b20cbc046b6831c77cfcea5457e17084)
REM
REM compiler GCC version 9.2.1 20190827 (Red Hat 9.2.1-1)
REM options -cpp -mtune=generic -march=x86-64 -g -O0 -fpre-include=/usr/include/finclude/math-vector-fortran.h
REM seed -278948968 373095289 1079247747 1453662409 -712535938 1728394889 -855002992 -1771225977 -1339635697 1910174996 1435857561 -1235395540 -847057924 -871484869 -329844927 1326636173 423078829 1574765301 -296139175 -330577757 1684562896 -874699136 -909495430 -202035306 466207906 2045783934 -1902090348 -2143894265 618144400 374912020 770953342 -1275069162 913624972
REM
CELL 1.54180   50.00000   50.00000   50.00000   90.00000   90.00000   90.00000
LATT -1
SFAC C  
C      1  0.5717030000000  0.5453240000000  0.4774740000000 1.0
C      1  0.4867780000000  0.5434800000000  0.5753060000000 1.0
C      1  0.4316750000000  0.5498280000000  0.4473600000000 1.0
C      1  0.5148580000000  0.4447560000000  0.5188080000000 1.0
C      1  0.4671390000000  0.4479010000000  0.4962070000000 1.0
C      1  0.4957590000000  0.4471030000000  0.4795390000000 1.0
C      1  0.5490140000000  0.5422170000000  0.4588120000000 1.0
C      1  0.5113750000000  0.5395140000000  0.5548750000000 1.0
C      1  0.4326480000000  0.5450500000000  0.4746890000000 1.0
C      1  0.4226160000000  0.4996840000000  0.4428820000000 1.0
C      1  0.5868870000000  0.4896270000000  0.4723550000000 1.0
C      1  0.4806000000000  0.4883000000000  0.5966900000000 1.0
C      1  0.4785220000000  0.5185460000000  0.4892980000000 1.0
C      1  0.5245240000000  0.5147160000000  0.4966760000000 1.0
C      1  0.4958230000000  0.5177790000000  0.5251680000000 1.0
C      1  0.5728960000000  0.5020160000000  0.4448610000000 1.0
C      1  0.5107140000000  0.5008090000000  0.5929000000000 1.0
C      1  0.4105610000000  0.5002150000000  0.4683480000000 1.0
C      1  0.5045710000000  0.4136050000000  0.5105720000000 1.0
C      1  0.4703700000000  0.4101570000000  0.5103770000000 1.0
C      1  0.4869490000000  0.4144910000000  0.4834200000000 1.0
C      1  0.5186270000000  0.5656110000000  0.4350270000000 1.0
C      1  0.5418360000000  0.5654600000000  0.5485510000000 1.0
C      1  0.4336810000000  0.5634940000000  0.5127400000000 1.0
C      1  0.5102520000000  0.4640640000000  0.4164360000000 1.0
C      1  0.5766290000000  0.4644320000000  0.5434530000000 1.0
C      1  0.4320650000000  0.4577810000000  0.5375490000000 1.0
C      1  0.4568770000000  0.4727950000000  0.5448750000000 1.0
C      1  0.4940500000000  0.4756400000000  0.4376900000000 1.0
C      1  0.5838520000000  0.4800140000000  0.5226810000000 1.0
C      1  0.5151480000000  0.5601860000000  0.5281250000000 1.0
C      1  0.4597950000000  0.5535230000000  0.4933650000000 1.0
C      1  0.5179850000000  0.5535930000000  0.4668330000000 1.0
C      1  0.4963670000000  0.5880350000000  0.5227960000000 1.0
C      1  0.4737110000000  0.5822210000000  0.4793290000000 1.0
C      1  0.5210210000000  0.5829290000000  0.4837540000000 1.0
C      1  0.5850220000000  0.5213010000000  0.4965460000000 1.0
C      1  0.4664720000000  0.5182550000000  0.5749460000000 1.0
C      1  0.4550930000000  0.5335970000000  0.4325040000000 1.0
C      1  0.5223220000000  0.5438810000000  0.4991300000000 1.0
C      1  0.4859730000000  0.5486100000000  0.5145390000000 1.0
C      1  0.4859340000000  0.5448980000000  0.4733860000000 1.0
C      1  0.5785420000000  0.4436170000000  0.4876900000000 1.0
C      1  0.4810800000000  0.4382130000000  0.5877650000000 1.0
C      1  0.4446240000000  0.4547150000000  0.4402580000000 1.0
C      1  0.4405780000000  0.4257260000000  0.5157090000000 1.0
C      1  0.5187150000000  0.4349660000000  0.4491830000000 1.0
C      1  0.5451030000000  0.4267330000000  0.5377720000000 1.0
C      1  0.5322570000000  0.4647480000000  0.4418350000000 1.0
C      1  0.5477550000000  0.4547700000000  0.5499910000000 1.0
C      1  0.4218560000000  0.4502430000000  0.5070440000000 1.0
C      1  0.4632110000000  0.5536730000000  0.5568680000000 1.0
C      1  0.4832580000000  0.5441010000000  0.4335050000000 1.0
C      1  0.5624540000000  0.5527840000000  0.5062580000000 1.0
C      1  0.4810630000000  0.5044210000000  0.5481980000000 1.0
C      1  0.4645230000000  0.5170260000000  0.4583390000000 1.0
C      1  0.5552720000000  0.5076990000000  0.4965010000000 1.0
C      1  0.4940880000000  0.4472050000000  0.5412140000000 1.0
C      1  0.4604240000000  0.4374340000000  0.4644060000000 1.0
C      1  0.5559010000000  0.4213860000000  0.4863820000000 1.0
C      1  0.5042930000000  0.4429350000000  0.5707330000000 1.0
C      1  0.4274900000000  0.4351420000000  0.4585270000000 1.0
C      1  0.5692810000000  0.4339070000000  0.4591090000000 1.0
C      1  0.5507460000000  0.4968850000000  0.5698950000000 1.0
C      1  0.4200550000000  0.4937360000000  0.5066440000000 1.0
C      1  0.5296800000000  0.4987150000000  0.4143650000000 1.0
C      1  0.5865310000000  0.5080890000000  0.5256440000000 1.0
C      1  0.4474660000000  0.5017090000000  0.5553530000000 1.0
C      1  0.4773470000000  0.4979790000000  0.4278440000000 1.0
C      1  0.5581360000000  0.5428710000000  0.5530030000000 1.0
C      1  0.4226640000000  0.5418940000000  0.5269230000000 1.0
C      1  0.5191610000000  0.5463860000000  0.4155060000000 1.0
C      1  0.5300750000000  0.4836000000000  0.5463660000000 1.0
C      1  0.4496280000000  0.4937060000000  0.5008540000000 1.0
C      1  0.5263620000000  0.4881550000000  0.4652370000000 1.0
C      1  0.5269750000000  0.5159590000000  0.5363860000000 1.0
C      1  0.4547090000000  0.5244770000000  0.5106680000000 1.0
C      1  0.5225230000000  0.5209690000000  0.4569960000000 1.0
C      1  0.5411400000000  0.5265380000000  0.4138760000000 1.0
C      1  0.5505610000000  0.5252780000000  0.5742390000000 1.0
C      1  0.4098030000000  0.5219010000000  0.5119060000000 1.0
C      1  0.5742590000000  0.4724650000000  0.4940750000000 1.0
C      1  0.4729000000000  0.4674190000000  0.5744360000000 1.0
C      1  0.4491670000000  0.4844350000000  0.4413190000000 1.0
C      1  0.5630010000000  0.4505840000000  0.4385920000000 1.0
C      1  0.5284690000000  0.4560250000000  0.5752670000000 1.0
C      1  0.4088070000000  0.4421490000000  0.4776440000000 1.0
C      1  0.4774050000000  0.5691300000000  0.5378310000000 1.0
C      1  0.4822190000000  0.5701310000000  0.4509260000000 1.0
C      1  0.5396410000000  0.5733880000000  0.5085460000000 1.0
C      1  0.4726610000000  0.4757600000000  0.5149020000000 1.0
C      1  0.4947490000000  0.4774050000000  0.4716430000000 1.0
C      1  0.5226520000000  0.4739440000000  0.5146120000000 1.0
C      1  0.4692870000000  0.4384050000000  0.5287880000000 1.0
C      1  0.4902870000000  0.4257400000000  0.4530810000000 1.0
C      1  0.5364270000000  0.4208200000000  0.5076800000000 1.0
C      1  0.5929280000000  0.5220790000000  0.4636390000000 1.0
C      1  0.4857440000000  0.5219240000000  0.6018340000000 1.0
C      1  0.4241290000000  0.5242890000000  0.4290250000000 1.0
C      1  0.5230820000000  0.5295040000000  0.5837390000000 1.0
C      1  0.4136600000000  0.5249970000000  0.4827010000000 1.0
C      1  0.5602700000000  0.5289610000000  0.4340080000000 1.0
C      1  0.5569570000000  0.4823860000000  0.4264960000000 1.0
C      1  0.5324460000000  0.4807470000000  0.5874720000000 1.0
C      1  0.4056720000000  0.4732720000000  0.4875500000000 1.0
C      1  0.5575490000000  0.5258730000000  0.5252600000000 1.0
C      1  0.4471130000000  0.5311790000000  0.5425090000000 1.0
C      1  0.5047410000000  0.5182910000000  0.4281220000000 1.0
C      1  0.4624030000000  0.4869210000000  0.4714640000000 1.0
C      1  0.5425970000000  0.4795080000000  0.4916160000000 1.0
C      1  0.4972190000000  0.4784650000000  0.5540300000000 1.0
C      1  0.4982660000000  0.4936130000000  0.5013550000000 1.0
C      1  0.4959650000000  0.5921840000000  0.4942630000000 1.0
END
