TITL C-3289322-3858-315 -0.000438953595895417 125000 -234.103478833473 0 0 43 (C1) n - 1
REM
REM in /nfs/bkarasulu/CARBON/AIRSS/Generating-Clusters/AIREBO/with-SteepDescent/Higher-Symm/SD-CG/HFTN-CG
REM
REM
REM
REM
REM
REM ./C.cell (b20cbc046b6831c77cfcea5457e17084)
REM
REM compiler GCC version 9.2.1 20190827 (Red Hat 9.2.1-1)
REM options -cpp -mtune=generic -march=x86-64 -g -O0 -fpre-include=/usr/include/finclude/math-vector-fortran.h
REM seed 1787231688 223167941 245850163 -459384161 -23676096 742553785 -545841634 1942031034 -1903156223 1554135208 -1350796562 1681679479 -1942837126 1996835879 842763191 849861314 2079339016 457346741 1011299555 -184461083 1782980964 760906171 -1028972030 -1024032565 2131545352 1752614947 -869234359 -1638943226 -2037066501 -1590291404 -60574809 -2015760375 1527612738
REM
CELL 1.54180   50.00000   50.00000   50.00000   90.00000   90.00000   90.00000
LATT -1
SFAC C  
C      1  0.5497800000000  0.5593250000000  0.5143670000000 1.0
C      1  0.4860470000000  0.5541380000000  0.4443200000000 1.0
C      1  0.4565770000000  0.5535970000000  0.5434780000000 1.0
C      1  0.4448620000000  0.5562200000000  0.5212330000000 1.0
C      1  0.5112240000000  0.5554260000000  0.4430610000000 1.0
C      1  0.5385060000000  0.5594020000000  0.5365080000000 1.0
C      1  0.5217000000000  0.4803520000000  0.5541400000000 1.0
C      1  0.5379450000000  0.4782560000000  0.4591750000000 1.0
C      1  0.4528720000000  0.4839130000000  0.4872310000000 1.0
C      1  0.4894670000000  0.4773480000000  0.5563200000000 1.0
C      1  0.4612470000000  0.4784950000000  0.4546510000000 1.0
C      1  0.5555660000000  0.4789410000000  0.4882710000000 1.0
C      1  0.5389070000000  0.5105350000000  0.4480810000000 1.0
C      1  0.4415510000000  0.5133830000000  0.4890740000000 1.0
C      1  0.5262260000000  0.5106720000000  0.5490810000000 1.0
C      1  0.4691740000000  0.5087100000000  0.4605510000000 1.0
C      1  0.5620150000000  0.5097690000000  0.4941900000000 1.0
C      1  0.4782220000000  0.5078390000000  0.5463180000000 1.0
C      1  0.4492200000000  0.4703170000000  0.5179000000000 1.0
C      1  0.5396470000000  0.4646420000000  0.5375900000000 1.0
C      1  0.5115460000000  0.4636400000000  0.4460020000000 1.0
C      1  0.5518700000000  0.4633450000000  0.5122420000000 1.0
C      1  0.4603530000000  0.4733300000000  0.5400680000000 1.0
C      1  0.4840250000000  0.4637890000000  0.4455130000000 1.0
C      1  0.5320890000000  0.5398560000000  0.4607570000000 1.0
C      1  0.4534590000000  0.5430430000000  0.4950000000000 1.0
C      1  0.5167540000000  0.5398560000000  0.5504080000000 1.0
C      1  0.4696340000000  0.5383140000000  0.4654670000000 1.0
C      1  0.5516740000000  0.5408410000000  0.4881310000000 1.0
C      1  0.4831190000000  0.5379340000000  0.5458180000000 1.0
C      1  0.4836860000000  0.4754030000000  0.4984710000000 1.0
C      1  0.5184050000000  0.5027980000000  0.5214170000000 1.0
C      1  0.5190200000000  0.5011960000000  0.4733460000000 1.0
C      1  0.5312010000000  0.5085410000000  0.4990070000000 1.0
C      1  0.4916220000000  0.4908290000000  0.5223630000000 1.0
C      1  0.4912490000000  0.4945550000000  0.4751190000000 1.0
C      1  0.4852890000000  0.4327240000000  0.4744920000000 1.0
C      1  0.4713110000000  0.4335650000000  0.5191060000000 1.0
C      1  0.5164110000000  0.4408620000000  0.5081600000000 1.0
C      1  0.4863300000000  0.5427400000000  0.4933650000000 1.0
C      1  0.5181000000000  0.5454850000000  0.4910500000000 1.0
C      1  0.5027700000000  0.5503030000000  0.5210950000000 1.0
C      1  0.4893310000000  0.4450160000000  0.4999900000000 1.0
END
