TITL C-3289326-3776-150 -0.0017670792847738 125000 -505.766398637026 0 0 94 (C1) n - 1
REM
REM in /nfs/bkarasulu/CARBON/AIRSS/Generating-Clusters/AIREBO/with-SteepDescent/Higher-Symm/SD-CG/HFTN-CG
REM
REM
REM
REM
REM
REM ./C.cell (b20cbc046b6831c77cfcea5457e17084)
REM
REM compiler GCC version 9.2.1 20190827 (Red Hat 9.2.1-1)
REM options -cpp -mtune=generic -march=x86-64 -g -O0 -fpre-include=/usr/include/finclude/math-vector-fortran.h
REM seed 312022416 -24382993 -1262781320 1565240320 1914482170 -1145670879 -1402042395 -64646920 -1718136247 1696880903 762818979 -234920729 -34330850 430181934 1352617093 -503527307 -2015457480 -203760223 -859157899 1465046416 -1809793790 -1572887363 -1489472054 261241775 -1153516131 -1584080795 -221151449 589477761 -1986704407 621196501 -1755205660 406618666 -1935025596
REM
CELL 1.54180   50.00000   50.00000   50.00000   90.00000   90.00000   90.00000
LATT -1
SFAC C  
C      1  0.4364030000000  0.4865780000000  0.4879160000000 1.0
C      1  0.5766450000000  0.4949490000000  0.5116480000000 1.0
C      1  0.5758410000000  0.5000950000000  0.4780060000000 1.0
C      1  0.4269780000000  0.5011830000000  0.5171620000000 1.0
C      1  0.4806300000000  0.4918540000000  0.4333230000000 1.0
C      1  0.5151550000000  0.4986310000000  0.5791620000000 1.0
C      1  0.4827740000000  0.5071040000000  0.5717880000000 1.0
C      1  0.5122020000000  0.5044270000000  0.4315150000000 1.0
C      1  0.4555980000000  0.5525700000000  0.5562050000000 1.0
C      1  0.5245960000000  0.5584350000000  0.4559670000000 1.0
C      1  0.5323400000000  0.4459670000000  0.5525500000000 1.0
C      1  0.4724190000000  0.4373490000000  0.4340090000000 1.0
C      1  0.5520340000000  0.5499870000000  0.4685260000000 1.0
C      1  0.4412130000000  0.5564850000000  0.5283140000000 1.0
C      1  0.5527720000000  0.4461620000000  0.5335790000000 1.0
C      1  0.4552250000000  0.4416860000000  0.4630190000000 1.0
C      1  0.4520840000000  0.5208080000000  0.5665600000000 1.0
C      1  0.5331390000000  0.5302370000000  0.4389200000000 1.0
C      1  0.5263340000000  0.4748630000000  0.5624500000000 1.0
C      1  0.4577930000000  0.4670580000000  0.4287380000000 1.0
C      1  0.5591060000000  0.5183960000000  0.4582080000000 1.0
C      1  0.4372130000000  0.5239010000000  0.5355090000000 1.0
C      1  0.5629870000000  0.4738040000000  0.5309330000000 1.0
C      1  0.4469490000000  0.4730710000000  0.4607250000000 1.0
C      1  0.5141320000000  0.4825450000000  0.4802900000000 1.0
C      1  0.5023190000000  0.4884900000000  0.5336450000000 1.0
C      1  0.4985630000000  0.5114460000000  0.4708140000000 1.0
C      1  0.4956360000000  0.5167130000000  0.5239800000000 1.0
C      1  0.4825080000000  0.4810350000000  0.4909540000000 1.0
C      1  0.5377680000000  0.4834020000000  0.5014670000000 1.0
C      1  0.4801280000000  0.5135600000000  0.4973990000000 1.0
C      1  0.5414670000000  0.5125150000000  0.4942130000000 1.0
C      1  0.4985260000000  0.4445650000000  0.5559140000000 1.0
C      1  0.4987060000000  0.4434390000000  0.4547120000000 1.0
C      1  0.5007360000000  0.5667360000000  0.5309950000000 1.0
C      1  0.4957830000000  0.5638850000000  0.4738140000000 1.0
C      1  0.5311680000000  0.4283860000000  0.4903270000000 1.0
C      1  0.4559240000000  0.4352430000000  0.4934410000000 1.0
C      1  0.5521160000000  0.5624700000000  0.4994320000000 1.0
C      1  0.4541780000000  0.5792930000000  0.5069760000000 1.0
C      1  0.4359660000000  0.5109720000000  0.4665570000000 1.0
C      1  0.5626660000000  0.5131760000000  0.5368000000000 1.0
C      1  0.5594610000000  0.4784720000000  0.4575070000000 1.0
C      1  0.4453230000000  0.4761370000000  0.5295440000000 1.0
C      1  0.4605400000000  0.5143670000000  0.4443800000000 1.0
C      1  0.5428920000000  0.5099230000000  0.5629650000000 1.0
C      1  0.4629340000000  0.4835930000000  0.5572740000000 1.0
C      1  0.5355260000000  0.4798050000000  0.4333810000000 1.0
C      1  0.5796130000000  0.5359600000000  0.5170700000000 1.0
C      1  0.4256310000000  0.5396810000000  0.4825680000000 1.0
C      1  0.4235270000000  0.4523720000000  0.5316390000000 1.0
C      1  0.5768750000000  0.4477520000000  0.4921930000000 1.0
C      1  0.5235900000000  0.5325810000000  0.5598800000000 1.0
C      1  0.4845980000000  0.5460900000000  0.4267230000000 1.0
C      1  0.5153110000000  0.4643820000000  0.4112490000000 1.0
C      1  0.4681110000000  0.4729270000000  0.5864100000000 1.0
C      1  0.5578010000000  0.4322820000000  0.5097020000000 1.0
C      1  0.4275240000000  0.4361390000000  0.5044820000000 1.0
C      1  0.4254220000000  0.5633960000000  0.5006140000000 1.0
C      1  0.5811050000000  0.5521130000000  0.4863790000000 1.0
C      1  0.4906630000000  0.4505090000000  0.5846140000000 1.0
C      1  0.5045930000000  0.4397790000000  0.4214200000000 1.0
C      1  0.4977240000000  0.5686200000000  0.4405380000000 1.0
C      1  0.4840530000000  0.5554150000000  0.5567240000000 1.0
C      1  0.4959970000000  0.5259830000000  0.4126600000000 1.0
C      1  0.4980210000000  0.5353250000000  0.5706480000000 1.0
C      1  0.4942230000000  0.4812700000000  0.4040050000000 1.0
C      1  0.4972060000000  0.4796070000000  0.5975550000000 1.0
C      1  0.4092410000000  0.5146450000000  0.4960430000000 1.0
C      1  0.5951050000000  0.5226360000000  0.4901860000000 1.0
C      1  0.4165440000000  0.4657990000000  0.5020680000000 1.0
C      1  0.5928650000000  0.4682600000000  0.5002880000000 1.0
C      1  0.5067290000000  0.4188290000000  0.5384140000000 1.0
C      1  0.4913060000000  0.4023060000000  0.4809540000000 1.0
C      1  0.4902400000000  0.5976230000000  0.5338660000000 1.0
C      1  0.5126750000000  0.5926410000000  0.5012750000000 1.0
C      1  0.5221450000000  0.4170860000000  0.5192110000000 1.0
C      1  0.4700920000000  0.4081170000000  0.4970300000000 1.0
C      1  0.5366260000000  0.5873460000000  0.5044770000000 1.0
C      1  0.4683200000000  0.6033570000000  0.5224130000000 1.0
C      1  0.5224370000000  0.4638620000000  0.4575120000000 1.0
C      1  0.4826440000000  0.4652600000000  0.5382700000000 1.0
C      1  0.4799990000000  0.5376690000000  0.4594920000000 1.0
C      1  0.5174040000000  0.5390230000000  0.5301550000000 1.0
C      1  0.4685810000000  0.4614430000000  0.5094510000000 1.0
C      1  0.5461380000000  0.4574830000000  0.4810400000000 1.0
C      1  0.4574690000000  0.5303530000000  0.4826910000000 1.0
C      1  0.5456540000000  0.5342470000000  0.5162270000000 1.0
C      1  0.5270840000000  0.5187460000000  0.4687250000000 1.0
C      1  0.5308060000000  0.4793930000000  0.5303510000000 1.0
C      1  0.4692750000000  0.5205790000000  0.5372150000000 1.0
C      1  0.4809330000000  0.4717900000000  0.4607790000000 1.0
C      1  0.5089510000000  0.4204950000000  0.4718960000000 1.0
C      1  0.4857590000000  0.5741810000000  0.5013820000000 1.0
END
