TITL C-3289323-3850-139 0.00124819743458852 125000 -499.911054607363 0 0 91 (C1) n - 1
REM
REM in /nfs/bkarasulu/CARBON/AIRSS/Generating-Clusters/AIREBO/with-SteepDescent/Higher-Symm/SD-CG/HFTN-CG
REM
REM
REM
REM
REM
REM ./C.cell (b20cbc046b6831c77cfcea5457e17084)
REM
REM compiler GCC version 9.2.1 20190827 (Red Hat 9.2.1-1)
REM options -cpp -mtune=generic -march=x86-64 -g -O0 -fpre-include=/usr/include/finclude/math-vector-fortran.h
REM seed 1992480257 652730627 -1207849782 1944517353 -1538054516 -628096451 -1837279096 -611669488 910056886 -145656068 13562467 446251870 660260215 204400316 1198580906 445558336 344801736 778512548 -1566450892 1165287677 -16788097 540103490 398579448 -1892133272 -1513496403 -685846981 1192156818 -2042219225 -1324931758 -1930979766 1779663662 -1499304140 43825884
REM
CELL 1.54180   50.00000   50.00000   50.00000   90.00000   90.00000   90.00000
LATT -1
SFAC C  
C      1  0.5422720000000  0.4795020000000  0.4959060000000 1.0
C      1  0.5803370000000  0.4905850000000  0.4319440000000 1.0
C      1  0.4924080000000  0.4082650000000  0.4856600000000 1.0
C      1  0.4401340000000  0.4722560000000  0.4600630000000 1.0
C      1  0.4621370000000  0.5037290000000  0.5129650000000 1.0
C      1  0.4580550000000  0.4669420000000  0.4348440000000 1.0
C      1  0.5329660000000  0.4350160000000  0.5336570000000 1.0
C      1  0.5416160000000  0.5098570000000  0.4904840000000 1.0
C      1  0.4899500000000  0.4502830000000  0.5660040000000 1.0
C      1  0.5059140000000  0.4341880000000  0.4878570000000 1.0
C      1  0.4748310000000  0.5335420000000  0.5729740000000 1.0
C      1  0.4964620000000  0.5832600000000  0.4439310000000 1.0
C      1  0.5007960000000  0.4514060000000  0.5167270000000 1.0
C      1  0.4531480000000  0.4581850000000  0.4840740000000 1.0
C      1  0.3984010000000  0.4841100000000  0.5706570000000 1.0
C      1  0.5713370000000  0.5055220000000  0.5373360000000 1.0
C      1  0.4655340000000  0.5480920000000  0.5480400000000 1.0
C      1  0.4769800000000  0.5167640000000  0.4699980000000 1.0
C      1  0.5337120000000  0.4831080000000  0.5712120000000 1.0
C      1  0.5088330000000  0.5263240000000  0.5230290000000 1.0
C      1  0.5394980000000  0.4669860000000  0.4694950000000 1.0
C      1  0.5600090000000  0.4783430000000  0.4514420000000 1.0
C      1  0.5237870000000  0.4762100000000  0.5202390000000 1.0
C      1  0.4938670000000  0.4799400000000  0.5821900000000 1.0
C      1  0.5268800000000  0.5458730000000  0.4328290000000 1.0
C      1  0.4245720000000  0.5083250000000  0.4559570000000 1.0
C      1  0.5556540000000  0.5147730000000  0.5607410000000 1.0
C      1  0.4935340000000  0.4871750000000  0.4730480000000 1.0
C      1  0.5033150000000  0.4294520000000  0.5426840000000 1.0
C      1  0.4985480000000  0.5453460000000  0.5831870000000 1.0
C      1  0.4605680000000  0.4461810000000  0.5583160000000 1.0
C      1  0.5200380000000  0.4398020000000  0.4354970000000 1.0
C      1  0.5178580000000  0.4937070000000  0.5959400000000 1.0
C      1  0.4878770000000  0.5095200000000  0.3730710000000 1.0
C      1  0.4551680000000  0.4403230000000  0.5317160000000 1.0
C      1  0.4509950000000  0.4704730000000  0.5157080000000 1.0
C      1  0.5437380000000  0.4769260000000  0.4041370000000 1.0
C      1  0.4197980000000  0.4740280000000  0.5576400000000 1.0
C      1  0.4794310000000  0.5024350000000  0.5678190000000 1.0
C      1  0.4386970000000  0.4577930000000  0.5712310000000 1.0
C      1  0.5657020000000  0.5515910000000  0.4667370000000 1.0
C      1  0.5161530000000  0.5094810000000  0.4489330000000 1.0
C      1  0.5335980000000  0.4279260000000  0.5066000000000 1.0
C      1  0.4365620000000  0.5610580000000  0.5091110000000 1.0
C      1  0.5022610000000  0.5607460000000  0.5040290000000 1.0
C      1  0.4046660000000  0.4907620000000  0.5141340000000 1.0
C      1  0.4197840000000  0.5261420000000  0.4798910000000 1.0
C      1  0.5899250000000  0.4781440000000  0.4872040000000 1.0
C      1  0.5079240000000  0.5629470000000  0.5622140000000 1.0
C      1  0.5702520000000  0.4775700000000  0.5330340000000 1.0
C      1  0.5145790000000  0.4657680000000  0.5512630000000 1.0
C      1  0.4591330000000  0.5359300000000  0.5179950000000 1.0
C      1  0.5004180000000  0.5046020000000  0.5014390000000 1.0
C      1  0.5248510000000  0.4409200000000  0.4622590000000 1.0
C      1  0.5267410000000  0.5727230000000  0.4981860000000 1.0
C      1  0.5017970000000  0.5212200000000  0.3919470000000 1.0
C      1  0.4545860000000  0.5036540000000  0.4500980000000 1.0
C      1  0.4502590000000  0.5215740000000  0.4883900000000 1.0
C      1  0.4841740000000  0.4778980000000  0.5148250000000 1.0
C      1  0.5642880000000  0.5221670000000  0.5125480000000 1.0
C      1  0.5533380000000  0.5493420000000  0.4371130000000 1.0
C      1  0.4943700000000  0.5537650000000  0.5343490000000 1.0
C      1  0.5161080000000  0.4777450000000  0.4493390000000 1.0
C      1  0.4229910000000  0.4775810000000  0.5301590000000 1.0
C      1  0.5880080000000  0.5683910000000  0.4693260000000 1.0
C      1  0.4092090000000  0.4827250000000  0.4539370000000 1.0
C      1  0.5164000000000  0.5251690000000  0.6005750000000 1.0
C      1  0.5692190000000  0.5239630000000  0.4788640000000 1.0
C      1  0.5823550000000  0.4998860000000  0.4647190000000 1.0
C      1  0.4502830000000  0.5020390000000  0.5711890000000 1.0
C      1  0.5105680000000  0.5611590000000  0.4535170000000 1.0
C      1  0.5705210000000  0.4724720000000  0.5056120000000 1.0
C      1  0.5048620000000  0.5161170000000  0.5532330000000 1.0
C      1  0.5361640000000  0.5365120000000  0.5195230000000 1.0
C      1  0.4000810000000  0.5129180000000  0.4995460000000 1.0
C      1  0.5141520000000  0.5322380000000  0.4128100000000 1.0
C      1  0.4839100000000  0.4566020000000  0.4747990000000 1.0
C      1  0.4234990000000  0.5565880000000  0.4863240000000 1.0
C      1  0.5303980000000  0.5237500000000  0.5728390000000 1.0
C      1  0.5692620000000  0.4881250000000  0.4061600000000 1.0
C      1  0.5320970000000  0.4996030000000  0.5414150000000 1.0
C      1  0.5482300000000  0.4618060000000  0.5483720000000 1.0
C      1  0.4955770000000  0.5440840000000  0.4780050000000 1.0
C      1  0.4792390000000  0.4513320000000  0.4434640000000 1.0
C      1  0.5223070000000  0.5860020000000  0.5645380000000 1.0
C      1  0.4482410000000  0.4325370000000  0.5038670000000 1.0
C      1  0.4613610000000  0.4920440000000  0.4195350000000 1.0
C      1  0.5164810000000  0.5197000000000  0.4755530000000 1.0
C      1  0.4427250000000  0.5672030000000  0.5365770000000 1.0
C      1  0.5242080000000  0.4653410000000  0.4203790000000 1.0
C      1  0.5365240000000  0.5658890000000  0.4732760000000 1.0
END
