TITL C-3289326-3776-745 -0.00116162821626274 125000 -223.948072863388 0 0 41 (C1) n - 1
REM
REM in /nfs/bkarasulu/CARBON/AIRSS/Generating-Clusters/AIREBO/with-SteepDescent/Higher-Symm/SD-CG/HFTN-CG
REM
REM
REM
REM
REM
REM ./C.cell (b20cbc046b6831c77cfcea5457e17084)
REM
REM compiler GCC version 9.2.1 20190827 (Red Hat 9.2.1-1)
REM options -cpp -mtune=generic -march=x86-64 -g -O0 -fpre-include=/usr/include/finclude/math-vector-fortran.h
REM seed -364430082 22756332 797204237 -812876954 1618342999 -1275411122 253651234 1299086316 -510692752 160539293 -978430712 -1385121950 -773054099 -1301500828 377907896 1309081344 -1234266513 748932324 726797395 735244418 585605003 211817893 1670925919 -1619551197 411333781 -1116722678 1158791427 -720419616 -128844669 98016997 973281104 1175523227 -1974108886
REM
CELL 1.54180   50.00000   50.00000   50.00000   90.00000   90.00000   90.00000
LATT -1
SFAC C  
C      1  0.5190120000000  0.5208160000000  0.5514730000000 1.0
C      1  0.4504460000000  0.5289780000000  0.5293430000000 1.0
C      1  0.4487630000000  0.5489400000000  0.4596470000000 1.0
C      1  0.5184500000000  0.5520210000000  0.4376930000000 1.0
C      1  0.5640070000000  0.5423180000000  0.4995510000000 1.0
C      1  0.4569370000000  0.4479000000000  0.5164490000000 1.0
C      1  0.4757260000000  0.4581850000000  0.4918770000000 1.0
C      1  0.5277290000000  0.4622070000000  0.4835800000000 1.0
C      1  0.5329870000000  0.4465110000000  0.5110020000000 1.0
C      1  0.5101230000000  0.4585880000000  0.5329140000000 1.0
C      1  0.5464630000000  0.5415900000000  0.5216870000000 1.0
C      1  0.4957630000000  0.5363510000000  0.5413550000000 1.0
C      1  0.4501720000000  0.5460790000000  0.5068260000000 1.0
C      1  0.4747070000000  0.5607720000000  0.4566910000000 1.0
C      1  0.5336860000000  0.5559340000000  0.4611700000000 1.0
C      1  0.5025750000000  0.4118200000000  0.4854020000000 1.0
C      1  0.5204510000000  0.4165290000000  0.5075270000000 1.0
C      1  0.5030390000000  0.4279530000000  0.5297670000000 1.0
C      1  0.4743080000000  0.4236950000000  0.5237450000000 1.0
C      1  0.4777040000000  0.4247450000000  0.4917820000000 1.0
C      1  0.4927300000000  0.5415880000000  0.4443700000000 1.0
C      1  0.5515340000000  0.5354360000000  0.4751610000000 1.0
C      1  0.5351510000000  0.5156270000000  0.5289820000000 1.0
C      1  0.4755020000000  0.5176590000000  0.5318570000000 1.0
C      1  0.4506050000000  0.5311050000000  0.4819960000000 1.0
C      1  0.5594770000000  0.4475750000000  0.5202370000000 1.0
C      1  0.5086860000000  0.4711050000000  0.5598210000000 1.0
C      1  0.4357980000000  0.4594390000000  0.5287290000000 1.0
C      1  0.4641970000000  0.4712620000000  0.4702290000000 1.0
C      1  0.5353450000000  0.4624260000000  0.4592300000000 1.0
C      1  0.5029050000000  0.4731560000000  0.5035690000000 1.0
C      1  0.5188650000000  0.5043410000000  0.5053200000000 1.0
C      1  0.4850550000000  0.5017780000000  0.5079130000000 1.0
C      1  0.4730800000000  0.5124250000000  0.4803910000000 1.0
C      1  0.4948950000000  0.5196650000000  0.4631160000000 1.0
C      1  0.5140350000000  0.5561530000000  0.4876310000000 1.0
C      1  0.5190700000000  0.5552690000000  0.5189330000000 1.0
C      1  0.4903250000000  0.5651370000000  0.5295350000000 1.0
C      1  0.4712880000000  0.5664250000000  0.5071510000000 1.0
C      1  0.4860610000000  0.5684980000000  0.4823170000000 1.0
C      1  0.5205700000000  0.5234380000000  0.4803850000000 1.0
END
