TITL C-3289332-8317-340 -0.000165286299525168 125000 -160.413690356415 0 0 31 (C1) n - 1
REM
REM in /nfs/bkarasulu/CARBON/AIRSS/Generating-Clusters/AIREBO/with-SteepDescent/Higher-Symm/SD-CG/HFTN-CG
REM
REM
REM
REM
REM
REM ./C.cell (b20cbc046b6831c77cfcea5457e17084)
REM
REM compiler GCC version 9.2.1 20190827 (Red Hat 9.2.1-1)
REM options -cpp -mtune=generic -march=x86-64 -g -O0 -fpre-include=/usr/include/finclude/math-vector-fortran.h
REM seed 737979852 -113123502 -270240520 -367616507 1950760603 -133484335 887634409 626898378 -102278307 425189915 1150273597 -2133778922 1654889117 1827446465 791383289 1398641574 2147247362 -898158239 -1711949109 1397834354 835435773 -911386942 141495202 -500710653 -619388512 -785781934 -1527962976 -1376611454 -1343949386 1023689664 739050935 -1190580109 76063153
REM
CELL 1.54180   50.00000   50.00000   50.00000   90.00000   90.00000   90.00000
LATT -1
SFAC C  
C      1  0.4691810000000  0.5373910000000  0.4899280000000 1.0
C      1  0.4812010000000  0.5486750000000  0.5213410000000 1.0
C      1  0.5118980000000  0.5491120000000  0.5308380000000 1.0
C      1  0.5306730000000  0.5491920000000  0.4717280000000 1.0
C      1  0.5008580000000  0.5490420000000  0.4822970000000 1.0
C      1  0.4687950000000  0.4799530000000  0.4739670000000 1.0
C      1  0.4648020000000  0.4772750000000  0.5222010000000 1.0
C      1  0.5114970000000  0.4780500000000  0.5429430000000 1.0
C      1  0.5472860000000  0.4758380000000  0.5051350000000 1.0
C      1  0.5161580000000  0.4729360000000  0.4566730000000 1.0
C      1  0.5425680000000  0.4833650000000  0.4581420000000 1.0
C      1  0.4624620000000  0.5020840000000  0.4486090000000 1.0
C      1  0.4417520000000  0.5015080000000  0.5294200000000 1.0
C      1  0.4947990000000  0.4796580000000  0.5726880000000 1.0
C      1  0.5628930000000  0.4830230000000  0.5328790000000 1.0
C      1  0.5339920000000  0.4956870000000  0.5335430000000 1.0
C      1  0.5488350000000  0.4946940000000  0.4826820000000 1.0
C      1  0.4943070000000  0.4945350000000  0.4568630000000 1.0
C      1  0.4479650000000  0.4922760000000  0.4972920000000 1.0
C      1  0.4818440000000  0.4926210000000  0.5463500000000 1.0
C      1  0.4807010000000  0.4539760000000  0.5132340000000 1.0
C      1  0.5072750000000  0.4550220000000  0.5236480000000 1.0
C      1  0.5258480000000  0.4554020000000  0.5019760000000 1.0
C      1  0.5103440000000  0.4538590000000  0.4771200000000 1.0
C      1  0.4821120000000  0.4542520000000  0.4845990000000 1.0
C      1  0.5060950000000  0.5177670000000  0.4697570000000 1.0
C      1  0.4525950000000  0.5162920000000  0.4768880000000 1.0
C      1  0.4723440000000  0.5161530000000  0.5270310000000 1.0
C      1  0.5265410000000  0.5218850000000  0.5205420000000 1.0
C      1  0.5334120000000  0.5200880000000  0.4890350000000 1.0
C      1  0.4966530000000  0.5235380000000  0.5044150000000 1.0
END
