TITL C-3289321-8710-716 0.00069955705291148 125000 -315.506436358596 0 0 57 (C1) n - 1
REM
REM in /nfs/bkarasulu/CARBON/AIRSS/Generating-Clusters/AIREBO/with-SteepDescent/Higher-Symm/SD-CG/HFTN-CG
REM
REM
REM
REM
REM
REM ./C.cell (b20cbc046b6831c77cfcea5457e17084)
REM
REM compiler GCC version 9.2.1 20190827 (Red Hat 9.2.1-1)
REM options -cpp -mtune=generic -march=x86-64 -g -O0 -fpre-include=/usr/include/finclude/math-vector-fortran.h
REM seed -131440067 -127110257 1109871141 -1588215287 592902781 -430354378 -844204618 -749237823 1248249839 2097045084 -165674037 977860936 65640120 636928423 -2136748888 -1303988387 404424619 1124685712 -1778669408 -170259758 -799742695 -16064475 1618489461 -790297840 -1818487236 -2048444923 -2118627397 -841466350 -672900797 -2080910539 -2132622846 -758974794 -683297043
REM
CELL 1.54180   50.00000   50.00000   50.00000   90.00000   90.00000   90.00000
LATT -1
SFAC C  
C      1  0.5212190000000  0.5434530000000  0.5325680000000 1.0
C      1  0.4688750000000  0.5436080000000  0.5355680000000 1.0
C      1  0.4509910000000  0.5548250000000  0.4831520000000 1.0
C      1  0.5060420000000  0.5423920000000  0.4522790000000 1.0
C      1  0.5600970000000  0.5492650000000  0.4776450000000 1.0
C      1  0.4664000000000  0.4638770000000  0.4486150000000 1.0
C      1  0.5395440000000  0.4732810000000  0.4466580000000 1.0
C      1  0.5633450000000  0.4768520000000  0.5255950000000 1.0
C      1  0.4905870000000  0.4613240000000  0.5659120000000 1.0
C      1  0.4410330000000  0.4665010000000  0.5163010000000 1.0
C      1  0.5353210000000  0.5334140000000  0.4944550000000 1.0
C      1  0.5189730000000  0.5140120000000  0.5161550000000 1.0
C      1  0.4892370000000  0.5301640000000  0.5128030000000 1.0
C      1  0.4783540000000  0.5346700000000  0.4819710000000 1.0
C      1  0.5097300000000  0.5250420000000  0.4789100000000 1.0
C      1  0.5282930000000  0.5239010000000  0.5535390000000 1.0
C      1  0.4565670000000  0.5229620000000  0.5497400000000 1.0
C      1  0.4393400000000  0.5271620000000  0.4819760000000 1.0
C      1  0.5036260000000  0.5228880000000  0.4316290000000 1.0
C      1  0.5668460000000  0.5190110000000  0.4755910000000 1.0
C      1  0.4806770000000  0.4966780000000  0.5185020000000 1.0
C      1  0.4842630000000  0.4780610000000  0.4920510000000 1.0
C      1  0.5077730000000  0.4942340000000  0.4738840000000 1.0
C      1  0.5265110000000  0.4766230000000  0.4914860000000 1.0
C      1  0.5109160000000  0.4814330000000  0.5216130000000 1.0
C      1  0.4790480000000  0.5083260000000  0.4346370000000 1.0
C      1  0.5582250000000  0.5015300000000  0.4478720000000 1.0
C      1  0.5525400000000  0.5064200000000  0.5416370000000 1.0
C      1  0.4759290000000  0.5070140000000  0.5641460000000 1.0
C      1  0.4307390000000  0.5095690000000  0.5023010000000 1.0
C      1  0.5104400000000  0.4856590000000  0.4444740000000 1.0
C      1  0.5563210000000  0.4825630000000  0.4948560000000 1.0
C      1  0.5139860000000  0.4781870000000  0.5553210000000 1.0
C      1  0.4570950000000  0.4853500000000  0.5362860000000 1.0
C      1  0.4584980000000  0.4821530000000  0.4729690000000 1.0
C      1  0.4959780000000  0.4320250000000  0.5299640000000 1.0
C      1  0.4829930000000  0.4458920000000  0.5030520000000 1.0
C      1  0.4921020000000  0.4334460000000  0.4755870000000 1.0
C      1  0.5204550000000  0.4438850000000  0.4859820000000 1.0
C      1  0.5195610000000  0.4486590000000  0.5188020000000 1.0
C      1  0.4752640000000  0.4378320000000  0.4550400000000 1.0
C      1  0.5411940000000  0.4505760000000  0.4620270000000 1.0
C      1  0.5460720000000  0.4496230000000  0.5339490000000 1.0
C      1  0.4900300000000  0.4351300000000  0.5559770000000 1.0
C      1  0.4528010000000  0.4426520000000  0.5111460000000 1.0
C      1  0.4827320000000  0.4791450000000  0.4317150000000 1.0
C      1  0.5709280000000  0.4798250000000  0.4704300000000 1.0
C      1  0.5461920000000  0.4759300000000  0.5552790000000 1.0
C      1  0.4678190000000  0.4779400000000  0.5652020000000 1.0
C      1  0.4353160000000  0.4825860000000  0.4937060000000 1.0
C      1  0.5580110000000  0.5123360000000  0.5084950000000 1.0
C      1  0.5059390000000  0.5077980000000  0.5620800000000 1.0
C      1  0.4354870000000  0.5100860000000  0.5314920000000 1.0
C      1  0.4623480000000  0.5129730000000  0.4612050000000 1.0
C      1  0.5307470000000  0.5074080000000  0.4285520000000 1.0
C      1  0.5032650000000  0.5610370000000  0.5179570000000 1.0
C      1  0.4973430000000  0.5866720000000  0.5130320000000 1.0
END
