TITL C-3289320-4661-343 0.000304800562096257 125000 -311.700688933161 0 0 57 (C1) n - 1
REM
REM in /nfs/bkarasulu/CARBON/AIRSS/Generating-Clusters/AIREBO/with-SteepDescent/Higher-Symm/SD-CG/HFTN-CG
REM
REM
REM
REM
REM
REM ./C.cell (b20cbc046b6831c77cfcea5457e17084)
REM
REM compiler GCC version 9.2.1 20190827 (Red Hat 9.2.1-1)
REM options -cpp -mtune=generic -march=x86-64 -g -O0 -fpre-include=/usr/include/finclude/math-vector-fortran.h
REM seed -559502849 1308924283 815693137 1530207613 777798143 -122051708 -318238423 1749049352 -290496974 800380689 -76377299 -584750348 1791661397 229442497 -856554559 -1293573099 1578022548 -2105046324 -453396959 -1486173767 -1343342607 134039544 1240066795 -281458923 1705529180 26880036 1073723221 1871866773 -319843283 -1629828330 741707986 -1972971982 -2121000103
REM
CELL 1.54180   50.00000   50.00000   50.00000   90.00000   90.00000   90.00000
LATT -1
SFAC C  
C      1  0.5694830000000  0.5061070000000  0.5668910000000 1.0
C      1  0.4241670000000  0.4846000000000  0.5194420000000 1.0
C      1  0.5242120000000  0.4850030000000  0.4315790000000 1.0
C      1  0.4801070000000  0.4713490000000  0.5453390000000 1.0
C      1  0.4064360000000  0.5083540000000  0.4334580000000 1.0
C      1  0.5539810000000  0.4683370000000  0.4958270000000 1.0
C      1  0.5689870000000  0.5313200000000  0.4904590000000 1.0
C      1  0.4741330000000  0.5331110000000  0.5555430000000 1.0
C      1  0.4581260000000  0.5230990000000  0.4506440000000 1.0
C      1  0.4899070000000  0.5444440000000  0.5305210000000 1.0
C      1  0.4734340000000  0.5459680000000  0.4695550000000 1.0
C      1  0.5370510000000  0.5421530000000  0.4947930000000 1.0
C      1  0.5269390000000  0.4562280000000  0.4161020000000 1.0
C      1  0.5721220000000  0.4735210000000  0.5713080000000 1.0
C      1  0.4224680000000  0.4514210000000  0.5214830000000 1.0
C      1  0.5041240000000  0.5172030000000  0.5561180000000 1.0
C      1  0.4448610000000  0.5063040000000  0.4756280000000 1.0
C      1  0.5576790000000  0.5137540000000  0.4634510000000 1.0
C      1  0.5305660000000  0.5358940000000  0.5563530000000 1.0
C      1  0.4403560000000  0.5249610000000  0.4993180000000 1.0
C      1  0.5340540000000  0.5290690000000  0.4502190000000 1.0
C      1  0.5004390000000  0.5603040000000  0.4643800000000 1.0
C      1  0.5324690000000  0.5631050000000  0.5168700000000 1.0
C      1  0.4680790000000  0.5613160000000  0.5160540000000 1.0
C      1  0.5790460000000  0.4502840000000  0.5951440000000 1.0
C      1  0.4015810000000  0.4249010000000  0.5174260000000 1.0
C      1  0.5343520000000  0.4358600000000  0.3898630000000 1.0
C      1  0.4599430000000  0.4817810000000  0.4852310000000 1.0
C      1  0.5396370000000  0.4868020000000  0.4621190000000 1.0
C      1  0.5250900000000  0.4980270000000  0.5401710000000 1.0
C      1  0.4420950000000  0.4667460000000  0.5004720000000 1.0
C      1  0.5492440000000  0.4634580000000  0.4399380000000 1.0
C      1  0.5467470000000  0.4862100000000  0.5546620000000 1.0
C      1  0.5552570000000  0.5248690000000  0.5491270000000 1.0
C      1  0.4339810000000  0.5106200000000  0.5231850000000 1.0
C      1  0.5149880000000  0.5131310000000  0.4383250000000 1.0
C      1  0.4967560000000  0.4900850000000  0.5255960000000 1.0
C      1  0.4919040000000  0.4857550000000  0.4923650000000 1.0
C      1  0.5247220000000  0.4835140000000  0.4893330000000 1.0
C      1  0.4556740000000  0.5483510000000  0.4956320000000 1.0
C      1  0.5246400000000  0.5483600000000  0.4680430000000 1.0
C      1  0.5175330000000  0.5546310000000  0.5380070000000 1.0
C      1  0.4277000000000  0.5115500000000  0.4473340000000 1.0
C      1  0.5615960000000  0.4982690000000  0.4934680000000 1.0
C      1  0.4764330000000  0.4991920000000  0.5588200000000 1.0
C      1  0.4144700000000  0.4278230000000  0.5446480000000 1.0
C      1  0.5113050000000  0.4272510000000  0.4076170000000 1.0
C      1  0.5949850000000  0.4483900000000  0.5694500000000 1.0
C      1  0.5268510000000  0.5109890000000  0.5087810000000 1.0
C      1  0.4948610000000  0.5209210000000  0.5107280000000 1.0
C      1  0.4832780000000  0.5157630000000  0.4808160000000 1.0
C      1  0.4769660000000  0.4465740000000  0.5507460000000 1.0
C      1  0.3838050000000  0.5072850000000  0.4202800000000 1.0
C      1  0.5644070000000  0.4451300000000  0.4976360000000 1.0
C      1  0.5577850000000  0.5192800000000  0.5202180000000 1.0
C      1  0.4488300000000  0.5144710000000  0.5459600000000 1.0
C      1  0.4893590000000  0.5168020000000  0.4475230000000 1.0
END
