TITL C-3289331-6719-255 0.00113336549635001 125000 -538.638177565032 0 0 98 (C1) n - 1
REM
REM in /nfs/bkarasulu/CARBON/AIRSS/Generating-Clusters/AIREBO/with-SteepDescent/Higher-Symm/SD-CG/HFTN-CG
REM
REM
REM
REM
REM
REM ./C.cell (b20cbc046b6831c77cfcea5457e17084)
REM
REM compiler GCC version 9.2.1 20190827 (Red Hat 9.2.1-1)
REM options -cpp -mtune=generic -march=x86-64 -g -O0 -fpre-include=/usr/include/finclude/math-vector-fortran.h
REM seed 2003155286 -1470498654 56113088 -2136239400 377189045 359876159 529270011 -465867544 770724789 -971385837 -1870056200 1178008626 -1525923251 1989101568 1477055858 749262701 -409983399 -225782420 -816408955 -2099412329 -1902677072 -1477434709 492678282 1463706688 1667391385 -1451545283 36797209 1569659375 1879860344 379232784 2081614514 -1443951718 -1132343949
REM
CELL 1.54180   50.00000   50.00000   50.00000   90.00000   90.00000   90.00000
LATT -1
SFAC C  
C      1  0.5587380000000  0.5483420000000  0.5018650000000 1.0
C      1  0.5543370000000  0.5061860000000  0.4537460000000 1.0
C      1  0.5554860000000  0.4422850000000  0.4757420000000 1.0
C      1  0.5549770000000  0.4547450000000  0.5359330000000 1.0
C      1  0.5538900000000  0.5173430000000  0.5522760000000 1.0
C      1  0.4449160000000  0.5557540000000  0.5056930000000 1.0
C      1  0.4493580000000  0.5130280000000  0.5492040000000 1.0
C      1  0.4441880000000  0.4512850000000  0.5217740000000 1.0
C      1  0.4516950000000  0.4579460000000  0.4590830000000 1.0
C      1  0.4489890000000  0.5188710000000  0.4482430000000 1.0
C      1  0.5213550000000  0.4984240000000  0.4113700000000 1.0
C      1  0.5173990000000  0.4130370000000  0.4770650000000 1.0
C      1  0.5124360000000  0.4609940000000  0.5733430000000 1.0
C      1  0.5206280000000  0.5518480000000  0.5674670000000 1.0
C      1  0.5117320000000  0.5826600000000  0.4745880000000 1.0
C      1  0.4836780000000  0.4950590000000  0.5873980000000 1.0
C      1  0.4819980000000  0.4181330000000  0.5255210000000 1.0
C      1  0.4940970000000  0.4552580000000  0.4240450000000 1.0
C      1  0.4810140000000  0.5510510000000  0.4305030000000 1.0
C      1  0.4843030000000  0.5802880000000  0.5307110000000 1.0
C      1  0.4208390000000  0.4608490000000  0.4989660000000 1.0
C      1  0.4308380000000  0.4989330000000  0.5243870000000 1.0
C      1  0.4304550000000  0.5548510000000  0.5329360000000 1.0
C      1  0.4261850000000  0.5195000000000  0.4726480000000 1.0
C      1  0.4278240000000  0.4815030000000  0.4605110000000 1.0
C      1  0.5821540000000  0.4456630000000  0.4947090000000 1.0
C      1  0.5758850000000  0.4878650000000  0.4728200000000 1.0
C      1  0.5701980000000  0.5501870000000  0.4760380000000 1.0
C      1  0.5716050000000  0.5418580000000  0.5460470000000 1.0
C      1  0.5784150000000  0.4779010000000  0.5275150000000 1.0
C      1  0.4654500000000  0.5144490000000  0.4774160000000 1.0
C      1  0.4624020000000  0.4823200000000  0.4802610000000 1.0
C      1  0.4666310000000  0.4740130000000  0.5100830000000 1.0
C      1  0.4706380000000  0.5017410000000  0.5262580000000 1.0
C      1  0.4625790000000  0.5272900000000  0.5053190000000 1.0
C      1  0.5395040000000  0.5082780000000  0.5234700000000 1.0
C      1  0.5402420000000  0.4774760000000  0.5160280000000 1.0
C      1  0.5343130000000  0.4667460000000  0.4862290000000 1.0
C      1  0.5394510000000  0.5001570000000  0.4832020000000 1.0
C      1  0.5350140000000  0.5287900000000  0.4977780000000 1.0
C      1  0.5130760000000  0.4172450000000  0.5195220000000 1.0
C      1  0.5183310000000  0.4967150000000  0.5895850000000 1.0
C      1  0.5122160000000  0.5829030000000  0.5249400000000 1.0
C      1  0.5103940000000  0.5550550000000  0.4284950000000 1.0
C      1  0.5213620000000  0.4535710000000  0.4315540000000 1.0
C      1  0.4842990000000  0.4107050000000  0.4864510000000 1.0
C      1  0.4918500000000  0.4950140000000  0.4086760000000 1.0
C      1  0.4796170000000  0.5792620000000  0.4746230000000 1.0
C      1  0.4929760000000  0.5526980000000  0.5741920000000 1.0
C      1  0.4854260000000  0.4594740000000  0.5669780000000 1.0
C      1  0.4791700000000  0.4340620000000  0.5522240000000 1.0
C      1  0.4843020000000  0.5293890000000  0.5913510000000 1.0
C      1  0.4658710000000  0.5792680000000  0.5047980000000 1.0
C      1  0.4723040000000  0.5189010000000  0.4234970000000 1.0
C      1  0.4715860000000  0.4418780000000  0.4431500000000 1.0
C      1  0.5238290000000  0.4277070000000  0.4467070000000 1.0
C      1  0.5218070000000  0.5296660000000  0.4150440000000 1.0
C      1  0.5197790000000  0.5921830000000  0.4990190000000 1.0
C      1  0.5335400000000  0.5237200000000  0.5729730000000 1.0
C      1  0.5349170000000  0.4442030000000  0.5570260000000 1.0
C      1  0.4669780000000  0.5542700000000  0.4597880000000 1.0
C      1  0.4747480000000  0.4799470000000  0.4319410000000 1.0
C      1  0.4638290000000  0.4312830000000  0.5025350000000 1.0
C      1  0.4634720000000  0.4851250000000  0.5628710000000 1.0
C      1  0.4755940000000  0.5563300000000  0.5504740000000 1.0
C      1  0.5289680000000  0.5616840000000  0.5377630000000 1.0
C      1  0.5361690000000  0.4834310000000  0.5638680000000 1.0
C      1  0.5338970000000  0.4287090000000  0.4982900000000 1.0
C      1  0.5392920000000  0.4825480000000  0.4343960000000 1.0
C      1  0.5254910000000  0.5593200000000  0.4549190000000 1.0
C      1  0.5167680000000  0.5316150000000  0.5332040000000 1.0
C      1  0.5137320000000  0.5434940000000  0.4820510000000 1.0
C      1  0.5167800000000  0.5016330000000  0.4585030000000 1.0
C      1  0.5060820000000  0.4560190000000  0.4831500000000 1.0
C      1  0.5163880000000  0.4792060000000  0.5381010000000 1.0
C      1  0.4900080000000  0.5315250000000  0.4648840000000 1.0
C      1  0.4871240000000  0.5404930000000  0.5247950000000 1.0
C      1  0.4985970000000  0.5038260000000  0.5368740000000 1.0
C      1  0.4924560000000  0.4582350000000  0.5096740000000 1.0
C      1  0.4882320000000  0.4737690000000  0.4602950000000 1.0
C      1  0.5582100000000  0.5580160000000  0.5281450000000 1.0
C      1  0.5534160000000  0.5401280000000  0.4561820000000 1.0
C      1  0.5600730000000  0.4668820000000  0.4556570000000 1.0
C      1  0.5613970000000  0.4339060000000  0.5140290000000 1.0
C      1  0.5666100000000  0.4884350000000  0.5537120000000 1.0
C      1  0.4411910000000  0.5463430000000  0.4760910000000 1.0
C      1  0.4476690000000  0.5429680000000  0.5516520000000 1.0
C      1  0.4410710000000  0.4754280000000  0.5407100000000 1.0
C      1  0.4405650000000  0.4420490000000  0.4833560000000 1.0
C      1  0.4473540000000  0.4899530000000  0.4355620000000 1.0
C      1  0.4915910000000  0.5579310000000  0.4985170000000 1.0
C      1  0.5015270000000  0.5145860000000  0.5660300000000 1.0
C      1  0.5079510000000  0.4463090000000  0.5364190000000 1.0
C      1  0.5013670000000  0.5180320000000  0.4396080000000 1.0
C      1  0.4938180000000  0.4323700000000  0.4620200000000 1.0
C      1  0.5840250000000  0.4753130000000  0.4984550000000 1.0
C      1  0.4234690000000  0.4930350000000  0.4922320000000 1.0
C      1  0.4998650000000  0.4950200000000  0.4827340000000 1.0
END
