TITL C-3289325-7307-307 -0.000950553441759999 125000 -912.38446432004 0 0 174 (C1) n - 1
REM
REM in /nfs/bkarasulu/CARBON/AIRSS/Generating-Clusters/AIREBO/with-SteepDescent/Higher-Symm/SD-CG/HFTN-CG
REM
REM
REM
REM
REM
REM ./C.cell (b20cbc046b6831c77cfcea5457e17084)
REM
REM compiler GCC version 9.2.1 20190827 (Red Hat 9.2.1-1)
REM options -cpp -mtune=generic -march=x86-64 -g -O0 -fpre-include=/usr/include/finclude/math-vector-fortran.h
REM seed -1082416226 -946358574 -1033468298 1417474402 -1990590230 -788033984 -1292414909 -281303575 -59716146 2145568824 797388166 -638914277 -472685311 -1099678727 -2122162655 1705263014 -2061999990 592637365 490156573 -2139942236 -219472469 1753896353 -220460303 -1894023273 562958980 -1047741194 1932231713 -2090141734 3975886 2051447273 -1628606246 303729467 -692344697
REM
CELL 1.54180   50.00000   50.00000   50.00000   90.00000   90.00000   90.00000
LATT -1
SFAC C  
C      1  0.4813520000000  0.4429470000000  0.5284600000000 1.0
C      1  0.5492490000000  0.4646420000000  0.5067680000000 1.0
C      1  0.5456780000000  0.5312150000000  0.5250340000000 1.0
C      1  0.4830500000000  0.5637120000000  0.5308310000000 1.0
C      1  0.4380370000000  0.4935320000000  0.5254580000000 1.0
C      1  0.4111780000000  0.5114750000000  0.5148150000000 1.0
C      1  0.4607190000000  0.4207680000000  0.5130190000000 1.0
C      1  0.5654520000000  0.4429100000000  0.5110340000000 1.0
C      1  0.5721590000000  0.5352890000000  0.5177110000000 1.0
C      1  0.4894720000000  0.5919210000000  0.5128920000000 1.0
C      1  0.4824590000000  0.3975730000000  0.4371590000000 1.0
C      1  0.5757950000000  0.4659610000000  0.4373470000000 1.0
C      1  0.5704770000000  0.5640220000000  0.4481930000000 1.0
C      1  0.4622360000000  0.5950470000000  0.4395740000000 1.0
C      1  0.4062960000000  0.4919200000000  0.4404950000000 1.0
C      1  0.5153470000000  0.5606880000000  0.5896720000000 1.0
C      1  0.4561580000000  0.5301580000000  0.5987630000000 1.0
C      1  0.4564220000000  0.4615890000000  0.5883540000000 1.0
C      1  0.5172770000000  0.4546530000000  0.6005710000000 1.0
C      1  0.5504890000000  0.5037350000000  0.5984860000000 1.0
C      1  0.5945470000000  0.5416620000000  0.4709290000000 1.0
C      1  0.4851660000000  0.6167020000000  0.4677200000000 1.0
C      1  0.3878370000000  0.5182200000000  0.4663330000000 1.0
C      1  0.4485300000000  0.3990010000000  0.4604600000000 1.0
C      1  0.5647620000000  0.4222060000000  0.4729900000000 1.0
C      1  0.5175590000000  0.4774110000000  0.4015820000000 1.0
C      1  0.5222350000000  0.5111230000000  0.4012400000000 1.0
C      1  0.4936920000000  0.5283070000000  0.4014380000000 1.0
C      1  0.4729630000000  0.5018870000000  0.4067820000000 1.0
C      1  0.4859120000000  0.4746810000000  0.3984640000000 1.0
C      1  0.4794940000000  0.5170860000000  0.6072420000000 1.0
C      1  0.4778960000000  0.4847240000000  0.6012320000000 1.0
C      1  0.5079300000000  0.4797940000000  0.6076200000000 1.0
C      1  0.5241780000000  0.5026970000000  0.6071260000000 1.0
C      1  0.5084480000000  0.5305640000000  0.6033180000000 1.0
C      1  0.5521300000000  0.4963460000000  0.5430310000000 1.0
C      1  0.5308460000000  0.5468820000000  0.5483950000000 1.0
C      1  0.4585670000000  0.5238520000000  0.5445940000000 1.0
C      1  0.4600110000000  0.4798160000000  0.5445240000000 1.0
C      1  0.5176580000000  0.4584660000000  0.5449100000000 1.0
C      1  0.4837940000000  0.4176430000000  0.4618130000000 1.0
C      1  0.5646520000000  0.4617840000000  0.4685510000000 1.0
C      1  0.5559460000000  0.5559900000000  0.4726890000000 1.0
C      1  0.4712190000000  0.5797250000000  0.4652230000000 1.0
C      1  0.4152990000000  0.4852140000000  0.4678380000000 1.0
C      1  0.4403460000000  0.4348620000000  0.5509810000000 1.0
C      1  0.5410250000000  0.4290320000000  0.5518720000000 1.0
C      1  0.5849880000000  0.5177570000000  0.5511370000000 1.0
C      1  0.5161070000000  0.5888830000000  0.5560680000000 1.0
C      1  0.4200310000000  0.5301910000000  0.5525450000000 1.0
C      1  0.5190440000000  0.4388670000000  0.5025000000000 1.0
C      1  0.5633650000000  0.4873030000000  0.4993050000000 1.0
C      1  0.5225280000000  0.5545190000000  0.4992840000000 1.0
C      1  0.4586160000000  0.5383140000000  0.4937600000000 1.0
C      1  0.4435290000000  0.4626470000000  0.5007070000000 1.0
C      1  0.4596560000000  0.4075580000000  0.5443300000000 1.0
C      1  0.5693090000000  0.4363410000000  0.5402980000000 1.0
C      1  0.5882560000000  0.5495980000000  0.5401430000000 1.0
C      1  0.4999350000000  0.6053620000000  0.5407670000000 1.0
C      1  0.4014180000000  0.5042530000000  0.5456530000000 1.0
C      1  0.4385570000000  0.5556360000000  0.5583370000000 1.0
C      1  0.4177860000000  0.4587100000000  0.5598630000000 1.0
C      1  0.5110650000000  0.4180200000000  0.5636330000000 1.0
C      1  0.5850170000000  0.4854810000000  0.5629460000000 1.0
C      1  0.5479640000000  0.5848410000000  0.5573710000000 1.0
C      1  0.5424010000000  0.4169910000000  0.4909260000000 1.0
C      1  0.5888070000000  0.5207040000000  0.4937330000000 1.0
C      1  0.5145960000000  0.5871830000000  0.4941130000000 1.0
C      1  0.4106330000000  0.5374530000000  0.4928730000000 1.0
C      1  0.4399110000000  0.4307600000000  0.4894710000000 1.0
C      1  0.5235230000000  0.5313450000000  0.4275530000000 1.0
C      1  0.4779490000000  0.5329020000000  0.4312250000000 1.0
C      1  0.4538800000000  0.4939550000000  0.4314430000000 1.0
C      1  0.5038510000000  0.4589950000000  0.4378790000000 1.0
C      1  0.5469240000000  0.4847540000000  0.4170950000000 1.0
C      1  0.5882750000000  0.5284060000000  0.4461460000000 1.0
C      1  0.5017630000000  0.6000680000000  0.4428310000000 1.0
C      1  0.4162160000000  0.5291110000000  0.4510980000000 1.0
C      1  0.4473470000000  0.4217040000000  0.4389760000000 1.0
C      1  0.5562470000000  0.4200390000000  0.4455520000000 1.0
C      1  0.4590960000000  0.4371990000000  0.4653160000000 1.0
C      1  0.5324110000000  0.4624670000000  0.4656120000000 1.0
C      1  0.5588700000000  0.5268240000000  0.4809760000000 1.0
C      1  0.5016940000000  0.5768670000000  0.4655660000000 1.0
C      1  0.4255580000000  0.5122070000000  0.4777290000000 1.0
C      1  0.6022030000000  0.4925020000000  0.4814560000000 1.0
C      1  0.5435140000000  0.5934240000000  0.4773410000000 1.0
C      1  0.4242610000000  0.5666440000000  0.4819830000000 1.0
C      1  0.4124090000000  0.4468630000000  0.4775920000000 1.0
C      1  0.5188070000000  0.3939110000000  0.4827570000000 1.0
C      1  0.5321040000000  0.4869420000000  0.5673640000000 1.0
C      1  0.5242310000000  0.5255860000000  0.5735930000000 1.0
C      1  0.4844610000000  0.5309110000000  0.5655730000000 1.0
C      1  0.4680440000000  0.4950100000000  0.5703560000000 1.0
C      1  0.4972000000000  0.4676360000000  0.5685550000000 1.0
C      1  0.4686890000000  0.4031180000000  0.4869240000000 1.0
C      1  0.5859110000000  0.4420330000000  0.4863500000000 1.0
C      1  0.5934570000000  0.5672080000000  0.4806800000000 1.0
C      1  0.4679090000000  0.5986560000000  0.4908220000000 1.0
C      1  0.3885620000000  0.5042200000000  0.4904770000000 1.0
C      1  0.4744400000000  0.4663400000000  0.4928270000000 1.0
C      1  0.5178090000000  0.4831410000000  0.4851490000000 1.0
C      1  0.5309890000000  0.5126390000000  0.4860730000000 1.0
C      1  0.4990960000000  0.5356420000000  0.4926740000000 1.0
C      1  0.4536930000000  0.5085290000000  0.4857230000000 1.0
C      1  0.5159730000000  0.5235850000000  0.4575660000000 1.0
C      1  0.4830040000000  0.5296630000000  0.4633200000000 1.0
C      1  0.4694270000000  0.4905640000000  0.4614960000000 1.0
C      1  0.4892360000000  0.4632540000000  0.4657960000000 1.0
C      1  0.5268500000000  0.4818130000000  0.4401520000000 1.0
C      1  0.5083920000000  0.4270880000000  0.4317650000000 1.0
C      1  0.5790120000000  0.4939130000000  0.4176380000000 1.0
C      1  0.5367920000000  0.5621930000000  0.4276200000000 1.0
C      1  0.4549210000000  0.5574390000000  0.4285420000000 1.0
C      1  0.4473670000000  0.4641760000000  0.4254090000000 1.0
C      1  0.5387070000000  0.5755940000000  0.5861550000000 1.0
C      1  0.4595660000000  0.5511480000000  0.5768540000000 1.0
C      1  0.4286870000000  0.4626260000000  0.5860760000000 1.0
C      1  0.4994580000000  0.4364620000000  0.5819380000000 1.0
C      1  0.5629940000000  0.4811020000000  0.5803280000000 1.0
C      1  0.4845040000000  0.4762560000000  0.5212010000000 1.0
C      1  0.5175270000000  0.4701250000000  0.5158230000000 1.0
C      1  0.5294330000000  0.5020980000000  0.5183720000000 1.0
C      1  0.4881930000000  0.5341300000000  0.5201310000000 1.0
C      1  0.4679570000000  0.5070250000000  0.5165640000000 1.0
C      1  0.5625180000000  0.5399080000000  0.4271460000000 1.0
C      1  0.4845680000000  0.5742050000000  0.4279440000000 1.0
C      1  0.4273890000000  0.5103790000000  0.4278670000000 1.0
C      1  0.4766090000000  0.4277580000000  0.4227290000000 1.0
C      1  0.5568290000000  0.4428130000000  0.4283690000000 1.0
C      1  0.4688880000000  0.4534390000000  0.4093430000000 1.0
C      1  0.5289080000000  0.4492610000000  0.4170170000000 1.0
C      1  0.5555420000000  0.5167900000000  0.4085800000000 1.0
C      1  0.5053840000000  0.5571340000000  0.4151870000000 1.0
C      1  0.4503140000000  0.5283260000000  0.4115820000000 1.0
C      1  0.4495030000000  0.5438830000000  0.5218290000000 1.0
C      1  0.4259620000000  0.4449420000000  0.5238390000000 1.0
C      1  0.5247370000000  0.4168120000000  0.5264780000000 1.0
C      1  0.5809150000000  0.4963240000000  0.5249290000000 1.0
C      1  0.5344230000000  0.5692370000000  0.5236370000000 1.0
C      1  0.4426130000000  0.5153710000000  0.5728280000000 1.0
C      1  0.4689530000000  0.4517150000000  0.5583230000000 1.0
C      1  0.5343910000000  0.4539240000000  0.5737500000000 1.0
C      1  0.5562740000000  0.5185590000000  0.5684400000000 1.0
C      1  0.5008530000000  0.5589180000000  0.5589660000000 1.0
C      1  0.4932610000000  0.3952050000000  0.5051670000000 1.0
C      1  0.5973810000000  0.4669280000000  0.5035390000000 1.0
C      1  0.5660690000000  0.5770710000000  0.4969100000000 1.0
C      1  0.4414300000000  0.5850380000000  0.5042840000000 1.0
C      1  0.4017440000000  0.4735020000000  0.4967690000000 1.0
C      1  0.5103690000000  0.4370180000000  0.4704490000000 1.0
C      1  0.5626100000000  0.4957170000000  0.4692930000000 1.0
C      1  0.5242140000000  0.5545750000000  0.4671320000000 1.0
C      1  0.4594440000000  0.5537250000000  0.4680450000000 1.0
C      1  0.4445410000000  0.4679110000000  0.4665350000000 1.0
C      1  0.4201600000000  0.5576010000000  0.5168170000000 1.0
C      1  0.4096790000000  0.4236990000000  0.5033600000000 1.0
C      1  0.5367760000000  0.3904920000000  0.5114760000000 1.0
C      1  0.6129480000000  0.4960980000000  0.5135140000000 1.0
C      1  0.5391770000000  0.6012520000000  0.5129340000000 1.0
C      1  0.5889050000000  0.4946280000000  0.4501720000000 1.0
C      1  0.5340500000000  0.5897210000000  0.4463310000000 1.0
C      1  0.4315480000000  0.5549520000000  0.4526730000000 1.0
C      1  0.4258570000000  0.4479610000000  0.4462850000000 1.0
C      1  0.5266070000000  0.4117120000000  0.4545730000000 1.0
C      1  0.4517160000000  0.5744140000000  0.5341130000000 1.0
C      1  0.4103690000000  0.4745490000000  0.5298710000000 1.0
C      1  0.4925850000000  0.4115760000000  0.5352220000000 1.0
C      1  0.5874690000000  0.4648500000000  0.5360120000000 1.0
C      1  0.5662950000000  0.5738340000000  0.5308500000000 1.0
C      1  0.4925170000000  0.5034880000000  0.4828800000000 1.0
C      1  0.5035280000000  0.5117330000000  0.5346620000000 1.0
C      1  0.5012880000000  0.5013710000000  0.5669690000000 1.0
C      1  0.4980750000000  0.4977490000000  0.4445610000000 1.0
END
