TITL C-3289327-5623-686 -0.000682821145134829 125000 -365.92864517862 0 0 66 (C1) n - 1
REM
REM in /nfs/bkarasulu/CARBON/AIRSS/Generating-Clusters/AIREBO/with-SteepDescent/Higher-Symm/SD-CG/HFTN-CG
REM
REM
REM
REM
REM
REM ./C.cell (b20cbc046b6831c77cfcea5457e17084)
REM
REM compiler GCC version 9.2.1 20190827 (Red Hat 9.2.1-1)
REM options -cpp -mtune=generic -march=x86-64 -g -O0 -fpre-include=/usr/include/finclude/math-vector-fortran.h
REM seed -774422337 -1886591233 1406746604 992690484 -2000007462 -1054186818 1540740146 61058332 555044194 -1086250054 -425919300 -80841457 -205965286 -1503220818 -830494986 932878219 -529875309 1433140822 860140537 1075267177 -164217110 -785897908 -1080609904 -799915929 544350221 1235559472 2024293770 252760880 -841145298 944939965 -1054389712 -1743877035 1459078544
REM
CELL 1.54180   50.00000   50.00000   50.00000   90.00000   90.00000   90.00000
LATT -1
SFAC C  
C      1  0.5040510000000  0.5313270000000  0.4537890000000 1.0
C      1  0.4800010000000  0.5173390000000  0.4561630000000 1.0
C      1  0.4804350000000  0.4856830000000  0.4566010000000 1.0
C      1  0.5089650000000  0.4808950000000  0.4427100000000 1.0
C      1  0.5336240000000  0.4827750000000  0.4545440000000 1.0
C      1  0.5278260000000  0.5222870000000  0.4441280000000 1.0
C      1  0.5023830000000  0.5282780000000  0.5608760000000 1.0
C      1  0.5262070000000  0.5190670000000  0.5495220000000 1.0
C      1  0.5264920000000  0.4922650000000  0.5437340000000 1.0
C      1  0.5039240000000  0.4768280000000  0.5426360000000 1.0
C      1  0.4759650000000  0.4824250000000  0.5422290000000 1.0
C      1  0.4816710000000  0.5309570000000  0.5441060000000 1.0
C      1  0.4890030000000  0.5730400000000  0.4841070000000 1.0
C      1  0.4338180000000  0.5300220000000  0.4905000000000 1.0
C      1  0.4423690000000  0.4558720000000  0.4842800000000 1.0
C      1  0.5007330000000  0.4349260000000  0.4836200000000 1.0
C      1  0.5693500000000  0.4663700000000  0.4880740000000 1.0
C      1  0.5616470000000  0.5388790000000  0.4807970000000 1.0
C      1  0.5063580000000  0.5748800000000  0.5118890000000 1.0
C      1  0.5656150000000  0.5320960000000  0.5127730000000 1.0
C      1  0.5568590000000  0.4552360000000  0.5158440000000 1.0
C      1  0.4908680000000  0.4325330000000  0.5132270000000 1.0
C      1  0.4330760000000  0.4673750000000  0.5129250000000 1.0
C      1  0.4418830000000  0.5368150000000  0.5199430000000 1.0
C      1  0.4538360000000  0.4841500000000  0.4765940000000 1.0
C      1  0.4794480000000  0.4535940000000  0.4680160000000 1.0
C      1  0.5383720000000  0.4641360000000  0.4784130000000 1.0
C      1  0.5472160000000  0.5103190000000  0.4691310000000 1.0
C      1  0.5099110000000  0.5498410000000  0.4776350000000 1.0
C      1  0.4589040000000  0.5349820000000  0.4710390000000 1.0
C      1  0.5475980000000  0.4856380000000  0.5222040000000 1.0
C      1  0.5109280000000  0.4498340000000  0.5289360000000 1.0
C      1  0.4632300000000  0.4617770000000  0.5216550000000 1.0
C      1  0.4601050000000  0.5099560000000  0.5301090000000 1.0
C      1  0.4859150000000  0.5508700000000  0.5184390000000 1.0
C      1  0.5360050000000  0.5364900000000  0.5261390000000 1.0
C      1  0.4566990000000  0.5819460000000  0.4904910000000 1.0
C      1  0.4087320000000  0.5082500000000  0.4906460000000 1.0
C      1  0.4461140000000  0.4220440000000  0.4872410000000 1.0
C      1  0.5293690000000  0.4160460000000  0.4914880000000 1.0
C      1  0.5937960000000  0.4898480000000  0.4914450000000 1.0
C      1  0.5548750000000  0.5720780000000  0.4884290000000 1.0
C      1  0.5390120000000  0.5841120000000  0.5073760000000 1.0
C      1  0.5918670000000  0.5100970000000  0.5096700000000 1.0
C      1  0.5480570000000  0.4223690000000  0.5110150000000 1.0
C      1  0.4631140000000  0.4132000000000  0.5070990000000 1.0
C      1  0.4086910000000  0.4900280000000  0.5111960000000 1.0
C      1  0.4422250000000  0.5703270000000  0.5106090000000 1.0
C      1  0.5373520000000  0.4369710000000  0.5364580000000 1.0
C      1  0.5701140000000  0.5043380000000  0.5309010000000 1.0
C      1  0.5316300000000  0.5659790000000  0.5316610000000 1.0
C      1  0.4587580000000  0.5615790000000  0.5358720000000 1.0
C      1  0.4310730000000  0.4935340000000  0.5339750000000 1.0
C      1  0.4637340000000  0.4316730000000  0.5325720000000 1.0
C      1  0.4542990000000  0.4358660000000  0.4596830000000 1.0
C      1  0.4318660000000  0.5036170000000  0.4694340000000 1.0
C      1  0.4623430000000  0.5646260000000  0.4650870000000 1.0
C      1  0.5376620000000  0.5580060000000  0.4670650000000 1.0
C      1  0.5748340000000  0.4920770000000  0.4665090000000 1.0
C      1  0.5298680000000  0.4364170000000  0.4684610000000 1.0
C      1  0.4819350000000  0.5272080000000  0.4948160000000 1.0
C      1  0.5149650000000  0.5282470000000  0.5028310000000 1.0
C      1  0.5306630000000  0.5007110000000  0.4968420000000 1.0
C      1  0.4708560000000  0.4985640000000  0.5007850000000 1.0
C      1  0.5158250000000  0.4711270000000  0.5028830000000 1.0
C      1  0.4850800000000  0.4693570000000  0.4966200000000 1.0
END
