TITL C-3289328-6581-27 0.0197115711157143 125000 -749.216312624608 0 0 147 (C1) n - 1
REM
REM in /nfs/bkarasulu/CARBON/AIRSS/Generating-Clusters/AIREBO/with-SteepDescent/Higher-Symm/SD-CG/HFTN-CG
REM
REM
REM
REM
REM
REM ./C.cell (b20cbc046b6831c77cfcea5457e17084)
REM
REM compiler GCC version 9.2.1 20190827 (Red Hat 9.2.1-1)
REM options -cpp -mtune=generic -march=x86-64 -g -O0 -fpre-include=/usr/include/finclude/math-vector-fortran.h
REM seed -838819670 118641405 1896553158 1364861756 -1069073292 -231205333 -15407262 864625639 -565470314 -542469191 913840018 -931179092 -605806417 -1092225286 -1251114070 -2037371881 1768754247 -996585849 -1591482023 -93731375 -2123723460 -292221644 89272673 -167376747 -1052868419 1964459782 1791578313 1965537866 2101590731 -1699816062 570284418 -1437498629 -355926799
REM
CELL 1.54180   50.00000   50.00000   50.00000   90.00000   90.00000   90.00000
LATT -1
SFAC C  
C      1  0.4779700000000  0.5913650000000  0.5102190000000 1.0
C      1  0.5308250000000  0.5858160000000  0.4726070000000 1.0
C      1  0.4854020000000  0.5669260000000  0.4680920000000 1.0
C      1  0.5347380000000  0.5820480000000  0.5316200000000 1.0
C      1  0.5901980000000  0.4862160000000  0.5308080000000 1.0
C      1  0.4062640000000  0.4831430000000  0.4765700000000 1.0
C      1  0.5891850000000  0.4865210000000  0.4708330000000 1.0
C      1  0.4064540000000  0.4811810000000  0.5271740000000 1.0
C      1  0.5099780000000  0.4133050000000  0.3933400000000 1.0
C      1  0.5218380000000  0.4160690000000  0.5890920000000 1.0
C      1  0.4785230000000  0.4177690000000  0.5895400000000 1.0
C      1  0.5058970000000  0.4295930000000  0.4125560000000 1.0
C      1  0.4241340000000  0.4519610000000  0.5286990000000 1.0
C      1  0.5705460000000  0.4581120000000  0.4724090000000 1.0
C      1  0.4223980000000  0.4535740000000  0.4715690000000 1.0
C      1  0.5704000000000  0.4586470000000  0.5284460000000 1.0
C      1  0.4794650000000  0.6267950000000  0.5444080000000 1.0
C      1  0.5440260000000  0.6345360000000  0.4510740000000 1.0
C      1  0.4055800000000  0.5823130000000  0.4498460000000 1.0
C      1  0.5532030000000  0.6252840000000  0.5635650000000 1.0
C      1  0.5542020000000  0.3902980000000  0.4895840000000 1.0
C      1  0.4350140000000  0.3816530000000  0.5130530000000 1.0
C      1  0.5522140000000  0.3965780000000  0.5217410000000 1.0
C      1  0.4380890000000  0.3853370000000  0.4796080000000 1.0
C      1  0.5505500000000  0.4841720000000  0.5301290000000 1.0
C      1  0.4443600000000  0.4781300000000  0.4659430000000 1.0
C      1  0.5494970000000  0.4843040000000  0.4672190000000 1.0
C      1  0.4451100000000  0.4755160000000  0.5336130000000 1.0
C      1  0.4730920000000  0.5435650000000  0.5334090000000 1.0
C      1  0.5355320000000  0.5583890000000  0.4563710000000 1.0
C      1  0.4730430000000  0.5378940000000  0.4739330000000 1.0
C      1  0.5326410000000  0.5503450000000  0.5351350000000 1.0
C      1  0.4097580000000  0.5469440000000  0.5267920000000 1.0
C      1  0.6022860000000  0.5455780000000  0.4736100000000 1.0
C      1  0.4202580000000  0.5390480000000  0.4720020000000 1.0
C      1  0.5884200000000  0.5522770000000  0.5310890000000 1.0
C      1  0.5172860000000  0.5212280000000  0.4812570000000 1.0
C      1  0.4792430000000  0.4956090000000  0.5335700000000 1.0
C      1  0.5135930000000  0.5153930000000  0.5313840000000 1.0
C      1  0.4912460000000  0.5099800000000  0.4663280000000 1.0
C      1  0.5301030000000  0.4603020000000  0.4376390000000 1.0
C      1  0.4725700000000  0.4555890000000  0.5677850000000 1.0
C      1  0.5305720000000  0.4523430000000  0.5667390000000 1.0
C      1  0.4660560000000  0.4565570000000  0.4281890000000 1.0
C      1  0.4756790000000  0.4635380000000  0.5246090000000 1.0
C      1  0.5220110000000  0.4701970000000  0.4755320000000 1.0
C      1  0.4712250000000  0.4579150000000  0.4676520000000 1.0
C      1  0.5239890000000  0.4681320000000  0.5306660000000 1.0
C      1  0.4625290000000  0.5017770000000  0.4571940000000 1.0
C      1  0.5534140000000  0.5169530000000  0.5282740000000 1.0
C      1  0.4494420000000  0.5080840000000  0.5372030000000 1.0
C      1  0.5400470000000  0.5163470000000  0.4633880000000 1.0
C      1  0.4716520000000  0.5193140000000  0.4148510000000 1.0
C      1  0.5241500000000  0.5304430000000  0.5883880000000 1.0
C      1  0.4745180000000  0.5206440000000  0.5869610000000 1.0
C      1  0.5300770000000  0.5334880000000  0.4083190000000 1.0
C      1  0.5687660000000  0.4935200000000  0.5563970000000 1.0
C      1  0.4206640000000  0.4956050000000  0.4489260000000 1.0
C      1  0.5703400000000  0.4980300000000  0.4448670000000 1.0
C      1  0.4235310000000  0.4940420000000  0.5536550000000 1.0
C      1  0.4472380000000  0.5304780000000  0.4530610000000 1.0
C      1  0.5509600000000  0.5304410000000  0.5546120000000 1.0
C      1  0.4512010000000  0.5335780000000  0.5571810000000 1.0
C      1  0.5556720000000  0.5350800000000  0.4419780000000 1.0
C      1  0.5872410000000  0.5470970000000  0.4520940000000 1.0
C      1  0.4290830000000  0.5557170000000  0.5438850000000 1.0
C      1  0.5691690000000  0.5566420000000  0.5501320000000 1.0
C      1  0.4237570000000  0.5627840000000  0.4530020000000 1.0
C      1  0.4814810000000  0.5774620000000  0.5577050000000 1.0
C      1  0.5078150000000  0.5824190000000  0.4212310000000 1.0
C      1  0.4844740000000  0.5771810000000  0.4408020000000 1.0
C      1  0.5122210000000  0.5882750000000  0.5564130000000 1.0
C      1  0.4802000000000  0.6007030000000  0.5362520000000 1.0
C      1  0.5283450000000  0.6162460000000  0.4628520000000 1.0
C      1  0.4844430000000  0.6329600000000  0.4831960000000 1.0
C      1  0.5383240000000  0.6076900000000  0.5530250000000 1.0
C      1  0.5464970000000  0.5673350000000  0.5684220000000 1.0
C      1  0.4488560000000  0.5599910000000  0.4362550000000 1.0
C      1  0.5738520000000  0.5576320000000  0.4241500000000 1.0
C      1  0.4521490000000  0.5656680000000  0.5684030000000 1.0
C      1  0.5354230000000  0.4813990000000  0.5729870000000 1.0
C      1  0.4630920000000  0.4868330000000  0.4201250000000 1.0
C      1  0.5294400000000  0.4876560000000  0.4290030000000 1.0
C      1  0.4738680000000  0.4887030000000  0.5751480000000 1.0
C      1  0.5464860000000  0.4464900000000  0.4545870000000 1.0
C      1  0.4469060000000  0.4404270000000  0.5514150000000 1.0
C      1  0.5506830000000  0.4414310000000  0.5469330000000 1.0
C      1  0.4413010000000  0.4442050000000  0.4451350000000 1.0
C      1  0.4664220000000  0.4270040000000  0.4542840000000 1.0
C      1  0.5227030000000  0.4341650000000  0.5314750000000 1.0
C      1  0.4737230000000  0.4325430000000  0.5352160000000 1.0
C      1  0.5330690000000  0.4245140000000  0.4659060000000 1.0
C      1  0.4815180000000  0.5521800000000  0.5801310000000 1.0
C      1  0.5128490000000  0.5506010000000  0.4321250000000 1.0
C      1  0.4790310000000  0.5467590000000  0.4283500000000 1.0
C      1  0.5140960000000  0.5570470000000  0.5697450000000 1.0
C      1  0.4401760000000  0.5112920000000  0.4258710000000 1.0
C      1  0.5490160000000  0.5099130000000  0.5787420000000 1.0
C      1  0.4452870000000  0.5064930000000  0.5768820000000 1.0
C      1  0.5506510000000  0.5098420000000  0.4197490000000 1.0
C      1  0.5588710000000  0.4984400000000  0.4937730000000 1.0
C      1  0.4484040000000  0.4896780000000  0.4948640000000 1.0
C      1  0.5011290000000  0.5276550000000  0.4010980000000 1.0
C      1  0.5021190000000  0.5224710000000  0.6035790000000 1.0
C      1  0.5062600000000  0.4875540000000  0.5466230000000 1.0
C      1  0.4960620000000  0.4779550000000  0.4558770000000 1.0
C      1  0.4959770000000  0.4868260000000  0.4230250000000 1.0
C      1  0.5038930000000  0.4791350000000  0.5794880000000 1.0
C      1  0.5233880000000  0.3931180000000  0.5040420000000 1.0
C      1  0.4635640000000  0.3950530000000  0.4999230000000 1.0
C      1  0.4261800000000  0.4102450000000  0.4983860000000 1.0
C      1  0.5723290000000  0.4143600000000  0.5029160000000 1.0
C      1  0.5232770000000  0.4255110000000  0.4984520000000 1.0
C      1  0.4656940000000  0.4242910000000  0.5037060000000 1.0
C      1  0.4737380000000  0.5086870000000  0.5056890000000 1.0
C      1  0.5312610000000  0.5093280000000  0.5058060000000 1.0
C      1  0.5080530000000  0.5185810000000  0.4395800000000 1.0
C      1  0.5011820000000  0.5424600000000  0.5418700000000 1.0
C      1  0.4991730000000  0.4256660000000  0.4630630000000 1.0
C      1  0.4994640000000  0.4206160000000  0.5455470000000 1.0
C      1  0.5077650000000  0.4772290000000  0.3965440000000 1.0
C      1  0.5019980000000  0.4562900000000  0.6034020000000 1.0
C      1  0.4045620000000  0.4958270000000  0.5018140000000 1.0
C      1  0.5900930000000  0.5019040000000  0.5015340000000 1.0
C      1  0.4424740000000  0.5206420000000  0.4995860000000 1.0
C      1  0.5635870000000  0.5317680000000  0.5002440000000 1.0
C      1  0.4271150000000  0.4394090000000  0.4994840000000 1.0
C      1  0.5692270000000  0.4439600000000  0.5004800000000 1.0
C      1  0.4556720000000  0.5769430000000  0.5038270000000 1.0
C      1  0.5437190000000  0.5829490000000  0.5029700000000 1.0
C      1  0.5374370000000  0.4562450000000  0.5017850000000 1.0
C      1  0.4563270000000  0.4568070000000  0.4984530000000 1.0
C      1  0.5440860000000  0.5520480000000  0.4887620000000 1.0
C      1  0.4608340000000  0.5463910000000  0.5045270000000 1.0
C      1  0.4119650000000  0.5273700000000  0.5011700000000 1.0
C      1  0.5952340000000  0.5355220000000  0.5022570000000 1.0
C      1  0.4998770000000  0.3922590000000  0.5383400000000 1.0
C      1  0.4964470000000  0.3938010000000  0.4746230000000 1.0
C      1  0.5008100000000  0.4379470000000  0.5747780000000 1.0
C      1  0.4980660000000  0.4489100000000  0.4382480000000 1.0
C      1  0.5156430000000  0.5549000000000  0.5064390000000 1.0
C      1  0.5043700000000  0.6146310000000  0.4802960000000 1.0
C      1  0.4988180000000  0.4662300000000  0.4998360000000 1.0
C      1  0.5023770000000  0.5822070000000  0.4908880000000 1.0
C      1  0.4965330000000  0.5284750000000  0.5047970000000 1.0
C      1  0.4924970000000  0.4361190000000  0.4933500000000 1.0
C      1  0.4923000000000  0.3842700000000  0.5070180000000 1.0
END
