TITL C-3289333-7213-127 -0.00124739938058719 125000 -720.382940329239 0 0 137 (C1) n - 1
REM
REM in /nfs/bkarasulu/CARBON/AIRSS/Generating-Clusters/AIREBO/with-SteepDescent/Higher-Symm/SD-CG/HFTN-CG
REM
REM
REM
REM
REM
REM ./C.cell (b20cbc046b6831c77cfcea5457e17084)
REM
REM compiler GCC version 9.2.1 20190827 (Red Hat 9.2.1-1)
REM options -cpp -mtune=generic -march=x86-64 -g -O0 -fpre-include=/usr/include/finclude/math-vector-fortran.h
REM seed 936577300 1190276572 -303991671 2076409670 2029042701 1062305809 1589486216 438572915 -564459218 445657240 -1177807175 355122199 1305729359 2099656824 -875416479 -1961303274 1522505129 -1359675769 -1522028871 956264626 -137011602 -1207574098 38845020 2072103832 -1105673910 1215989876 -1242477842 1184042003 1415493472 -1099287810 -1534895566 1180837309 -1493747670
REM
CELL 1.54180   50.00000   50.00000   50.00000   90.00000   90.00000   90.00000
LATT -1
SFAC C  
C      1  0.4288660000000  0.5414280000000  0.4534370000000 1.0
C      1  0.4327130000000  0.5165130000000  0.5645000000000 1.0
C      1  0.4297040000000  0.4361480000000  0.4872200000000 1.0
C      1  0.5581310000000  0.4797890000000  0.5056930000000 1.0
C      1  0.5629060000000  0.4988460000000  0.4710240000000 1.0
C      1  0.5491070000000  0.5207520000000  0.5162890000000 1.0
C      1  0.4053370000000  0.5100630000000  0.5361570000000 1.0
C      1  0.4080010000000  0.4695920000000  0.4985830000000 1.0
C      1  0.4102280000000  0.5174240000000  0.4792900000000 1.0
C      1  0.5345940000000  0.4337570000000  0.4967100000000 1.0
C      1  0.5519470000000  0.5405100000000  0.4522030000000 1.0
C      1  0.5427120000000  0.5257840000000  0.5598450000000 1.0
C      1  0.5408050000000  0.4550600000000  0.5479690000000 1.0
C      1  0.5382310000000  0.4874770000000  0.4326000000000 1.0
C      1  0.5382190000000  0.5667910000000  0.5111780000000 1.0
C      1  0.4408280000000  0.5495570000000  0.5602070000000 1.0
C      1  0.4434490000000  0.4284760000000  0.5177680000000 1.0
C      1  0.4434460000000  0.5232910000000  0.4291050000000 1.0
C      1  0.4197740000000  0.4792830000000  0.5367500000000 1.0
C      1  0.4215940000000  0.4745920000000  0.4686580000000 1.0
C      1  0.4270380000000  0.5369010000000  0.4988630000000 1.0
C      1  0.5739210000000  0.4880660000000  0.5645870000000 1.0
C      1  0.5778460000000  0.4452560000000  0.4598550000000 1.0
C      1  0.5858210000000  0.5625050000000  0.4690440000000 1.0
C      1  0.5308670000000  0.5458520000000  0.5750790000000 1.0
C      1  0.5346900000000  0.4035300000000  0.5066490000000 1.0
C      1  0.5372920000000  0.5494180000000  0.4235880000000 1.0
C      1  0.5578530000000  0.5775320000000  0.4673570000000 1.0
C      1  0.5469030000000  0.4807630000000  0.5839120000000 1.0
C      1  0.5475830000000  0.4406070000000  0.4542380000000 1.0
C      1  0.5092220000000  0.4581470000000  0.4631330000000 1.0
C      1  0.5076810000000  0.5582650000000  0.4871250000000 1.0
C      1  0.5080230000000  0.4917110000000  0.5547290000000 1.0
C      1  0.5239270000000  0.4461510000000  0.5238410000000 1.0
C      1  0.5318900000000  0.5160080000000  0.4446500000000 1.0
C      1  0.5220200000000  0.5384050000000  0.5107060000000 1.0
C      1  0.4803110000000  0.5132770000000  0.4852900000000 1.0
C      1  0.4751220000000  0.4994250000000  0.5223600000000 1.0
C      1  0.4756100000000  0.4839260000000  0.4930640000000 1.0
C      1  0.5610360000000  0.5064860000000  0.4190530000000 1.0
C      1  0.5528670000000  0.5662490000000  0.5386790000000 1.0
C      1  0.5612680000000  0.4300820000000  0.5374530000000 1.0
C      1  0.4377600000000  0.4817610000000  0.4330230000000 1.0
C      1  0.4318440000000  0.5700170000000  0.5202250000000 1.0
C      1  0.4359160000000  0.4441800000000  0.5469700000000 1.0
C      1  0.5655540000000  0.5371410000000  0.5410060000000 1.0
C      1  0.5608730000000  0.4483590000000  0.5087740000000 1.0
C      1  0.5766030000000  0.5181160000000  0.4469590000000 1.0
C      1  0.4576320000000  0.5929370000000  0.5149510000000 1.0
C      1  0.4632010000000  0.4347580000000  0.5746040000000 1.0
C      1  0.4572490000000  0.4658140000000  0.4099380000000 1.0
C      1  0.4983330000000  0.4197470000000  0.5055090000000 1.0
C      1  0.5046480000000  0.5294800000000  0.4349480000000 1.0
C      1  0.4937750000000  0.5523260000000  0.5625870000000 1.0
C      1  0.5417580000000  0.5166760000000  0.4842170000000 1.0
C      1  0.5285940000000  0.5052460000000  0.5368000000000 1.0
C      1  0.5325890000000  0.4662630000000  0.4869350000000 1.0
C      1  0.4927050000000  0.4375940000000  0.5339000000000 1.0
C      1  0.4897410000000  0.5042750000000  0.4236700000000 1.0
C      1  0.4831650000000  0.5705130000000  0.5398730000000 1.0
C      1  0.4454800000000  0.4296400000000  0.4634460000000 1.0
C      1  0.4411470000000  0.5663790000000  0.4590820000000 1.0
C      1  0.4408730000000  0.4904810000000  0.5842710000000 1.0
C      1  0.4670670000000  0.4424310000000  0.4987590000000 1.0
C      1  0.4672840000000  0.5312230000000  0.4520150000000 1.0
C      1  0.4650620000000  0.5297160000000  0.5469720000000 1.0
C      1  0.6062770000000  0.5182970000000  0.4837770000000 1.0
C      1  0.5913300000000  0.4911890000000  0.5254270000000 1.0
C      1  0.5860750000000  0.4950530000000  0.4940820000000 1.0
C      1  0.4112630000000  0.4507820000000  0.5256250000000 1.0
C      1  0.4190020000000  0.5004770000000  0.4505850000000 1.0
C      1  0.4187270000000  0.5409620000000  0.5282600000000 1.0
C      1  0.5193530000000  0.4432790000000  0.5696840000000 1.0
C      1  0.5170060000000  0.4788010000000  0.4103850000000 1.0
C      1  0.5124270000000  0.5864800000000  0.5169240000000 1.0
C      1  0.4685170000000  0.5657700000000  0.4883010000000 1.0
C      1  0.4733090000000  0.4718310000000  0.5655830000000 1.0
C      1  0.4727440000000  0.4674700000000  0.4459700000000 1.0
C      1  0.5294890000000  0.5814390000000  0.4751240000000 1.0
C      1  0.5128830000000  0.4832020000000  0.5839990000000 1.0
C      1  0.5175280000000  0.4310320000000  0.4476810000000 1.0
C      1  0.4865790000000  0.4454470000000  0.6113340000000 1.0
C      1  0.5043520000000  0.4351700000000  0.4195440000000 1.0
C      1  0.5019940000000  0.5925090000000  0.4676120000000 1.0
C      1  0.5047910000000  0.5361860000000  0.5876870000000 1.0
C      1  0.5104330000000  0.3967970000000  0.4888610000000 1.0
C      1  0.5100560000000  0.5615290000000  0.4301750000000 1.0
C      1  0.4421330000000  0.4614370000000  0.5738560000000 1.0
C      1  0.4454130000000  0.4495240000000  0.4406890000000 1.0
C      1  0.4377990000000  0.5799130000000  0.4882420000000 1.0
C      1  0.5898690000000  0.4636120000000  0.4414710000000 1.0
C      1  0.5844450000000  0.5488950000000  0.4974170000000 1.0
C      1  0.5813580000000  0.4643970000000  0.5394750000000 1.0
C      1  0.5108920000000  0.5122530000000  0.4704510000000 1.0
C      1  0.4945610000000  0.5251180000000  0.5206030000000 1.0
C      1  0.5060380000000  0.4758340000000  0.5059030000000 1.0
C      1  0.4964320000000  0.4495470000000  0.4904760000000 1.0
C      1  0.4969180000000  0.5426320000000  0.4641680000000 1.0
C      1  0.4950920000000  0.5202790000000  0.5519360000000 1.0
C      1  0.5909940000000  0.4383360000000  0.5209620000000 1.0
C      1  0.5868900000000  0.4882110000000  0.4314690000000 1.0
C      1  0.5918720000000  0.5382410000000  0.5211950000000 1.0
C      1  0.4533120000000  0.5765150000000  0.5444110000000 1.0
C      1  0.4653230000000  0.4271610000000  0.5437750000000 1.0
C      1  0.4617650000000  0.4986530000000  0.4175160000000 1.0
C      1  0.5391060000000  0.5253200000000  0.4065070000000 1.0
C      1  0.5330960000000  0.5707750000000  0.5595420000000 1.0
C      1  0.5378120000000  0.4092550000000  0.5354980000000 1.0
C      1  0.5975570000000  0.5341570000000  0.4627270000000 1.0
C      1  0.5890330000000  0.5138680000000  0.5474020000000 1.0
C      1  0.5848700000000  0.4386930000000  0.4867110000000 1.0
C      1  0.4732800000000  0.4230290000000  0.4715250000000 1.0
C      1  0.4678320000000  0.5650740000000  0.4484770000000 1.0
C      1  0.4643690000000  0.5125870000000  0.5763420000000 1.0
C      1  0.4387850000000  0.5136370000000  0.5311420000000 1.0
C      1  0.4415630000000  0.4647950000000  0.5012390000000 1.0
C      1  0.4428410000000  0.5151550000000  0.4699180000000 1.0
C      1  0.4929080000000  0.5100460000000  0.5903350000000 1.0
C      1  0.4987350000000  0.4131810000000  0.4661630000000 1.0
C      1  0.4921810000000  0.5774760000000  0.4451090000000 1.0
C      1  0.5518270000000  0.5491580000000  0.4851070000000 1.0
C      1  0.5539460000000  0.4844610000000  0.5377040000000 1.0
C      1  0.5493730000000  0.4732850000000  0.4582010000000 1.0
C      1  0.5110860000000  0.5852250000000  0.5481170000000 1.0
C      1  0.5150030000000  0.4183320000000  0.5509070000000 1.0
C      1  0.5155640000000  0.5095990000000  0.4021660000000 1.0
C      1  0.4526200000000  0.4850290000000  0.5433950000000 1.0
C      1  0.4555140000000  0.4730450000000  0.4713410000000 1.0
C      1  0.4586030000000  0.5368860000000  0.4908590000000 1.0
C      1  0.4865650000000  0.5555630000000  0.5137400000000 1.0
C      1  0.4893520000000  0.4714140000000  0.5353710000000 1.0
C      1  0.5002430000000  0.4866350000000  0.4507760000000 1.0
C      1  0.4873220000000  0.5922790000000  0.4982830000000 1.0
C      1  0.4934210000000  0.4552940000000  0.5847280000000 1.0
C      1  0.4904870000000  0.4641180000000  0.4171610000000 1.0
C      1  0.4388190000000  0.4988300000000  0.5001740000000 1.0
C      1  0.4052940000000  0.4999730000000  0.5057310000000 1.0
END
