TITL C-3289321-8710-357 -1.79842684532681e-07 125000 -30.3159470800121 0 0 8 (Oh) n - 1
REM
REM in /nfs/bkarasulu/CARBON/AIRSS/Generating-Clusters/AIREBO/with-SteepDescent/Higher-Symm/SD-CG/HFTN-CG
REM
REM
REM
REM
REM
REM ./C.cell (b20cbc046b6831c77cfcea5457e17084)
REM
REM compiler GCC version 9.2.1 20190827 (Red Hat 9.2.1-1)
REM options -cpp -mtune=generic -march=x86-64 -g -O0 -fpre-include=/usr/include/finclude/math-vector-fortran.h
REM seed 392140490 257739620 1098107656 -635283292 553199009 504369104 324376843 -790406320 11071430 -701906526 -1370150893 -1771055479 -1750053521 -1886474897 -1925801686 -1820253985 -1822119233 1530503451 1882972551 -468894624 -1353097160 -1920049764 371652247 1126461314 -1145794463 302729965 719768046 1796839937 1892525141 1316369836 -1899930412 840988602 -341104833
REM
CELL 1.54180   50.00000   50.00000   50.00000   90.00000   90.00000   90.00000
LATT -1
SFAC C  
C      1  0.4833710000000  0.4846270000000  0.5177500000000 1.0
C      1  0.4833710000000  0.5177950000000  0.4845820000000 1.0
C      1  0.5165380000000  0.4846270000000  0.4845820000000 1.0
C      1  0.5165380000000  0.5177950000000  0.4845820000000 1.0
C      1  0.4833710000000  0.5177950000000  0.5177500000000 1.0
C      1  0.5165380000000  0.4846270000000  0.5177500000000 1.0
C      1  0.5165380000000  0.5177950000000  0.5177500000000 1.0
C      1  0.4833710000000  0.4846270000000  0.4845820000000 1.0
END
