TITL C-3289331-6719-644 0.00036640037211737 125000 -528.083323289858 0 0 93 (C1) n - 1
REM
REM in /nfs/bkarasulu/CARBON/AIRSS/Generating-Clusters/AIREBO/with-SteepDescent/Higher-Symm/SD-CG/HFTN-CG
REM
REM
REM
REM
REM
REM ./C.cell (b20cbc046b6831c77cfcea5457e17084)
REM
REM compiler GCC version 9.2.1 20190827 (Red Hat 9.2.1-1)
REM options -cpp -mtune=generic -march=x86-64 -g -O0 -fpre-include=/usr/include/finclude/math-vector-fortran.h
REM seed -1977823355 1463957667 1575260737 693539792 -225078338 1352358788 -1514409390 4962847 -364667154 -1089520929 -723624838 468147409 1317406697 472058183 -1971897168 1388252868 -1843344078 -706078035 387465983 846649399 -1276289465 378911370 -347573940 1179726998 290418363 -933974265 1129013410 -1068678259 -1206859997 -75784700 1453674628 -404607660 -248025477
REM
CELL 1.54180   50.00000   50.00000   50.00000   90.00000   90.00000   90.00000
LATT -1
SFAC C  
C      1  0.4487990000000  0.4938290000000  0.5329190000000 1.0
C      1  0.5094770000000  0.5420850000000  0.5247410000000 1.0
C      1  0.5283530000000  0.4667990000000  0.5196000000000 1.0
C      1  0.4509810000000  0.5102210000000  0.5596900000000 1.0
C      1  0.5252440000000  0.5561670000000  0.5491210000000 1.0
C      1  0.5317080000000  0.4461570000000  0.5434300000000 1.0
C      1  0.4565130000000  0.5361560000000  0.5513620000000 1.0
C      1  0.5495230000000  0.5352080000000  0.5580530000000 1.0
C      1  0.5000620000000  0.4402610000000  0.5524840000000 1.0
C      1  0.6053010000000  0.4942330000000  0.4544430000000 1.0
C      1  0.4417930000000  0.4415530000000  0.4498310000000 1.0
C      1  0.4591870000000  0.5807720000000  0.4442510000000 1.0
C      1  0.4399340000000  0.5500630000000  0.4750460000000 1.0
C      1  0.5751000000000  0.5231010000000  0.4766120000000 1.0
C      1  0.4818290000000  0.4285350000000  0.4733100000000 1.0
C      1  0.5378710000000  0.5390910000000  0.5080590000000 1.0
C      1  0.5185180000000  0.4594890000000  0.4908880000000 1.0
C      1  0.4577750000000  0.4992970000000  0.5004430000000 1.0
C      1  0.5255360000000  0.5406030000000  0.5794910000000 1.0
C      1  0.5196680000000  0.4552420000000  0.5739790000000 1.0
C      1  0.4580850000000  0.4992380000000  0.5844020000000 1.0
C      1  0.5190900000000  0.4992170000000  0.4934460000000 1.0
C      1  0.4873560000000  0.4879910000000  0.4884290000000 1.0
C      1  0.4997590000000  0.5255940000000  0.4964400000000 1.0
C      1  0.4560710000000  0.5333200000000  0.4998680000000 1.0
C      1  0.5497060000000  0.5139820000000  0.4950640000000 1.0
C      1  0.4851050000000  0.4544440000000  0.4935510000000 1.0
C      1  0.5700330000000  0.4389340000000  0.4802010000000 1.0
C      1  0.4069730000000  0.4796070000000  0.4927070000000 1.0
C      1  0.5113240000000  0.5770770000000  0.4795220000000 1.0
C      1  0.6043190000000  0.4962100000000  0.5034780000000 1.0
C      1  0.4391280000000  0.4196500000000  0.4941030000000 1.0
C      1  0.4570080000000  0.5896360000000  0.4934290000000 1.0
C      1  0.5839070000000  0.5026730000000  0.5257830000000 1.0
C      1  0.4490250000000  0.4285970000000  0.5226290000000 1.0
C      1  0.4541920000000  0.5699610000000  0.5178670000000 1.0
C      1  0.4097900000000  0.5245570000000  0.4808470000000 1.0
C      1  0.5586810000000  0.5772380000000  0.4824460000000 1.0
C      1  0.5281120000000  0.4175210000000  0.4717860000000 1.0
C      1  0.5350050000000  0.4754170000000  0.4657500000000 1.0
C      1  0.5037760000000  0.4868850000000  0.4586680000000 1.0
C      1  0.4949640000000  0.5193220000000  0.4649600000000 1.0
C      1  0.4400030000000  0.4685070000000  0.4556490000000 1.0
C      1  0.4819210000000  0.5654860000000  0.4406910000000 1.0
C      1  0.5862740000000  0.4750390000000  0.4488740000000 1.0
C      1  0.5708860000000  0.5116820000000  0.5467280000000 1.0
C      1  0.4723920000000  0.4286450000000  0.5383480000000 1.0
C      1  0.4399570000000  0.5512670000000  0.5316600000000 1.0
C      1  0.4202600000000  0.5040130000000  0.5280520000000 1.0
C      1  0.5315910000000  0.5752780000000  0.5243790000000 1.0
C      1  0.5438930000000  0.4299830000000  0.5191500000000 1.0
C      1  0.4870430000000  0.4557270000000  0.5264140000000 1.0
C      1  0.4763840000000  0.5346290000000  0.5271100000000 1.0
C      1  0.5405150000000  0.5046790000000  0.5493280000000 1.0
C      1  0.5573380000000  0.5132660000000  0.4349390000000 1.0
C      1  0.5046740000000  0.4402590000000  0.4350000000000 1.0
C      1  0.4466860000000  0.5185560000000  0.4412230000000 1.0
C      1  0.5664500000000  0.4683930000000  0.4723260000000 1.0
C      1  0.4370050000000  0.4763590000000  0.4861040000000 1.0
C      1  0.4935550000000  0.5532180000000  0.4674340000000 1.0
C      1  0.4903100000000  0.4807000000000  0.4096210000000 1.0
C      1  0.4880950000000  0.5121900000000  0.4158360000000 1.0
C      1  0.5166140000000  0.4971190000000  0.4198270000000 1.0
C      1  0.5368690000000  0.4948280000000  0.4378380000000 1.0
C      1  0.4958020000000  0.4669000000000  0.4355160000000 1.0
C      1  0.4746470000000  0.5193890000000  0.4393760000000 1.0
C      1  0.5534220000000  0.5643010000000  0.5071500000000 1.0
C      1  0.5263230000000  0.4301250000000  0.4972970000000 1.0
C      1  0.4241280000000  0.5302480000000  0.5111590000000 1.0
C      1  0.4771830000000  0.4831080000000  0.5312840000000 1.0
C      1  0.4941180000000  0.5058290000000  0.5235630000000 1.0
C      1  0.5249110000000  0.4961470000000  0.5268040000000 1.0
C      1  0.4396340000000  0.4890510000000  0.6012020000000 1.0
C      1  0.5275880000000  0.5589890000000  0.6033080000000 1.0
C      1  0.5320190000000  0.4404310000000  0.5972570000000 1.0
C      1  0.5116690000000  0.4831130000000  0.5795500000000 1.0
C      1  0.4852800000000  0.4980970000000  0.5898080000000 1.0
C      1  0.5116370000000  0.5149410000000  0.5842220000000 1.0
C      1  0.4459990000000  0.5766280000000  0.4689550000000 1.0
C      1  0.5999170000000  0.5098230000000  0.4775380000000 1.0
C      1  0.4542200000000  0.4242560000000  0.4686680000000 1.0
C      1  0.4514910000000  0.4520240000000  0.4981110000000 1.0
C      1  0.4746640000000  0.5606240000000  0.4917290000000 1.0
C      1  0.5719080000000  0.4886050000000  0.4965460000000 1.0
C      1  0.4032380000000  0.4845040000000  0.5201270000000 1.0
C      1  0.5105250000000  0.5845370000000  0.5072860000000 1.0
C      1  0.5701060000000  0.4327840000000  0.5083390000000 1.0
C      1  0.3951820000000  0.5006130000000  0.4780720000000 1.0
C      1  0.5361350000000  0.5831480000000  0.4671780000000 1.0
C      1  0.5556680000000  0.4198990000000  0.4639720000000 1.0
C      1  0.4275700000000  0.5306370000000  0.4576690000000 1.0
C      1  0.5674490000000  0.5323880000000  0.4514420000000 1.0
C      1  0.5042720000000  0.4231050000000  0.4572170000000 1.0
END
