TITL C-3289335-9438-432 0.00117682378011616 125000 -325.032365342258 0 0 59 (C1) n - 1
REM
REM in /nfs/bkarasulu/CARBON/AIRSS/Generating-Clusters/AIREBO/with-SteepDescent/Higher-Symm/SD-CG/HFTN-CG
REM
REM
REM
REM
REM
REM ./C.cell (b20cbc046b6831c77cfcea5457e17084)
REM
REM compiler GCC version 9.2.1 20190827 (Red Hat 9.2.1-1)
REM options -cpp -mtune=generic -march=x86-64 -g -O0 -fpre-include=/usr/include/finclude/math-vector-fortran.h
REM seed -1020095993 -1263148149 152623462 125968205 396253858 -245166121 1144794329 -767110513 1252786546 -1972951126 1509917984 -2097672476 -727226915 987923393 -2086129752 -139983917 941108022 -1520288069 1389595651 348275154 -61385530 -1117198461 34751158 -156606986 -315259557 -1368752715 -921388123 547787126 1272742120 -757325222 1763987428 1641364455 -2028938791
REM
CELL 1.54180   50.00000   50.00000   50.00000   90.00000   90.00000   90.00000
LATT -1
SFAC C  
C      1  0.5195970000000  0.4383890000000  0.4833890000000 1.0
C      1  0.5603360000000  0.5238700000000  0.4891360000000 1.0
C      1  0.4844260000000  0.5662670000000  0.4852330000000 1.0
C      1  0.4343670000000  0.4695830000000  0.4667850000000 1.0
C      1  0.4773570000000  0.4372010000000  0.5176260000000 1.0
C      1  0.4370200000000  0.5193490000000  0.5204350000000 1.0
C      1  0.5296300000000  0.5698800000000  0.5089240000000 1.0
C      1  0.5534680000000  0.4674810000000  0.5174620000000 1.0
C      1  0.4835160000000  0.4758330000000  0.4651790000000 1.0
C      1  0.5094410000000  0.4925210000000  0.4507740000000 1.0
C      1  0.4976260000000  0.5119260000000  0.4749900000000 1.0
C      1  0.4666730000000  0.5037500000000  0.4722860000000 1.0
C      1  0.5062360000000  0.4733290000000  0.5291790000000 1.0
C      1  0.4948340000000  0.4977680000000  0.5475200000000 1.0
C      1  0.5013660000000  0.5260300000000  0.5345790000000 1.0
C      1  0.5261640000000  0.4972570000000  0.5227570000000 1.0
C      1  0.5466150000000  0.4441030000000  0.5828390000000 1.0
C      1  0.5690640000000  0.5347980000000  0.5138150000000 1.0
C      1  0.4592890000000  0.5515150000000  0.5124060000000 1.0
C      1  0.4367770000000  0.4643280000000  0.5278480000000 1.0
C      1  0.4677760000000  0.4483850000000  0.4117480000000 1.0
C      1  0.4425100000000  0.5343870000000  0.4901420000000 1.0
C      1  0.5320450000000  0.5628470000000  0.4798720000000 1.0
C      1  0.5757810000000  0.4601610000000  0.4544060000000 1.0
C      1  0.5504570000000  0.4677520000000  0.4616810000000 1.0
C      1  0.5302540000000  0.5445690000000  0.4548390000000 1.0
C      1  0.4531630000000  0.5394220000000  0.4609930000000 1.0
C      1  0.4739610000000  0.4618490000000  0.4356780000000 1.0
C      1  0.4575100000000  0.4687410000000  0.5473390000000 1.0
C      1  0.4687460000000  0.5471740000000  0.5432290000000 1.0
C      1  0.5505280000000  0.5358090000000  0.5362780000000 1.0
C      1  0.5356170000000  0.4562000000000  0.5614910000000 1.0
C      1  0.5087240000000  0.4530250000000  0.5533210000000 1.0
C      1  0.5437650000000  0.5073730000000  0.5473750000000 1.0
C      1  0.4996330000000  0.5555250000000  0.5482940000000 1.0
C      1  0.4657080000000  0.4957830000000  0.5507610000000 1.0
C      1  0.5064780000000  0.4537410000000  0.4414500000000 1.0
C      1  0.4501250000000  0.5122360000000  0.4448250000000 1.0
C      1  0.5018110000000  0.5373280000000  0.4527770000000 1.0
C      1  0.5394590000000  0.4958000000000  0.4543980000000 1.0
C      1  0.4789090000000  0.4486590000000  0.5443880000000 1.0
C      1  0.5506510000000  0.4742810000000  0.5441240000000 1.0
C      1  0.5288220000000  0.5549840000000  0.5335310000000 1.0
C      1  0.4534540000000  0.5204530000000  0.5430510000000 1.0
C      1  0.5262540000000  0.4483170000000  0.4590040000000 1.0
C      1  0.4488210000000  0.4801160000000  0.4457750000000 1.0
C      1  0.4784370000000  0.5528290000000  0.4606570000000 1.0
C      1  0.5490870000000  0.5220050000000  0.4598430000000 1.0
C      1  0.5150990000000  0.5364760000000  0.4907740000000 1.0
C      1  0.4458140000000  0.5008540000000  0.4946910000000 1.0
C      1  0.4740260000000  0.4589490000000  0.4925090000000 1.0
C      1  0.5350260000000  0.4744330000000  0.4912420000000 1.0
C      1  0.4914970000000  0.5454040000000  0.5105070000000 1.0
C      1  0.5329250000000  0.5077580000000  0.4933320000000 1.0
C      1  0.5054470000000  0.4604440000000  0.5013480000000 1.0
C      1  0.4443190000000  0.4702780000000  0.4981030000000 1.0
C      1  0.5023210000000  0.4968970000000  0.4211970000000 1.0
C      1  0.5186390000000  0.5073770000000  0.5674030000000 1.0
C      1  0.4965320000000  0.5057790000000  0.5084120000000 1.0
END
