TITL C-3289327-5623-216 0.00153061328526622 125000 -372.146402086982 0 0 65 (C1) n - 1
REM
REM in /nfs/bkarasulu/CARBON/AIRSS/Generating-Clusters/AIREBO/with-SteepDescent/Higher-Symm/SD-CG/HFTN-CG
REM
REM
REM
REM
REM
REM ./C.cell (b20cbc046b6831c77cfcea5457e17084)
REM
REM compiler GCC version 9.2.1 20190827 (Red Hat 9.2.1-1)
REM options -cpp -mtune=generic -march=x86-64 -g -O0 -fpre-include=/usr/include/finclude/math-vector-fortran.h
REM seed -2018107354 -906472591 -525164856 1382913143 -266656088 -181396221 -1149430212 1089493584 1499570658 -1197245541 -1293354091 682239891 -2046850797 1378951245 160871648 1337495907 -827458670 -1903400971 1101378789 -408270909 1633850315 661363306 -362731514 -1938782940 -1473317606 1068567138 -176816963 -1438943238 -1927146680 252799802 -1528741557 1432653682 -275384893
REM
CELL 1.54180   50.00000   50.00000   50.00000   90.00000   90.00000   90.00000
LATT -1
SFAC C  
C      1  0.4422470000000  0.5342200000000  0.4792360000000 1.0
C      1  0.4694500000000  0.5182080000000  0.4093310000000 1.0
C      1  0.4561910000000  0.4601090000000  0.4397880000000 1.0
C      1  0.4509490000000  0.4356100000000  0.5043480000000 1.0
C      1  0.4545800000000  0.4667510000000  0.5718220000000 1.0
C      1  0.4573270000000  0.5084230000000  0.5695020000000 1.0
C      1  0.4562570000000  0.5769110000000  0.5325100000000 1.0
C      1  0.4679930000000  0.4875590000000  0.5877200000000 1.0
C      1  0.4687970000000  0.5343530000000  0.5706360000000 1.0
C      1  0.4661830000000  0.5471440000000  0.5191140000000 1.0
C      1  0.4574380000000  0.5372760000000  0.4559660000000 1.0
C      1  0.4773250000000  0.4894510000000  0.4004990000000 1.0
C      1  0.4696820000000  0.4425180000000  0.4570210000000 1.0
C      1  0.4606310000000  0.4382080000000  0.5306560000000 1.0
C      1  0.5030720000000  0.5298590000000  0.4807320000000 1.0
C      1  0.4958580000000  0.5073140000000  0.4570830000000 1.0
C      1  0.5025460000000  0.4792320000000  0.4740200000000 1.0
C      1  0.4908290000000  0.4622960000000  0.4971120000000 1.0
C      1  0.4884370000000  0.4766920000000  0.5256860000000 1.0
C      1  0.5002860000000  0.5079530000000  0.5272640000000 1.0
C      1  0.4930040000000  0.5370890000000  0.5124120000000 1.0
C      1  0.5409770000000  0.4623650000000  0.5057170000000 1.0
C      1  0.5426420000000  0.4790420000000  0.5314880000000 1.0
C      1  0.5494240000000  0.5098320000000  0.5274050000000 1.0
C      1  0.5431940000000  0.5365470000000  0.5067930000000 1.0
C      1  0.5431590000000  0.5357650000000  0.4765480000000 1.0
C      1  0.5459250000000  0.5048640000000  0.4619060000000 1.0
C      1  0.5502820000000  0.4775720000000  0.4763160000000 1.0
C      1  0.5104250000000  0.4715400000000  0.5711390000000 1.0
C      1  0.5180390000000  0.5264860000000  0.5685690000000 1.0
C      1  0.5208910000000  0.5783050000000  0.5235660000000 1.0
C      1  0.4989480000000  0.5672720000000  0.4518390000000 1.0
C      1  0.5222520000000  0.4959840000000  0.4161340000000 1.0
C      1  0.5184210000000  0.4427300000000  0.4474060000000 1.0
C      1  0.5074070000000  0.4241670000000  0.5221050000000 1.0
C      1  0.5798460000000  0.4612160000000  0.4740910000000 1.0
C      1  0.5690240000000  0.4485720000000  0.4961910000000 1.0
C      1  0.5639140000000  0.4666060000000  0.5502410000000 1.0
C      1  0.5811490000000  0.5194640000000  0.5344310000000 1.0
C      1  0.5725040000000  0.5414930000000  0.5202020000000 1.0
C      1  0.5720300000000  0.5475660000000  0.4630090000000 1.0
C      1  0.5725620000000  0.5216050000000  0.4536520000000 1.0
C      1  0.4955830000000  0.4826720000000  0.5914930000000 1.0
C      1  0.4952640000000  0.5357230000000  0.5806230000000 1.0
C      1  0.5217560000000  0.6040510000000  0.5283750000000 1.0
C      1  0.4719860000000  0.5609280000000  0.4502150000000 1.0
C      1  0.5049700000000  0.4843670000000  0.3982540000000 1.0
C      1  0.4936220000000  0.4306170000000  0.4474550000000 1.0
C      1  0.4835810000000  0.4223930000000  0.5364210000000 1.0
C      1  0.4619250000000  0.5528070000000  0.5516480000000 1.0
C      1  0.4361850000000  0.5104120000000  0.5243970000000 1.0
C      1  0.4694840000000  0.5129920000000  0.4429620000000 1.0
C      1  0.4618710000000  0.4839820000000  0.4273140000000 1.0
C      1  0.4677850000000  0.4464120000000  0.4848820000000 1.0
C      1  0.4621430000000  0.4673730000000  0.5399070000000 1.0
C      1  0.4476900000000  0.4961110000000  0.5455790000000 1.0
C      1  0.5232290000000  0.5032240000000  0.4418210000000 1.0
C      1  0.5253950000000  0.4633040000000  0.4631360000000 1.0
C      1  0.5153110000000  0.4454260000000  0.5070610000000 1.0
C      1  0.5148160000000  0.4750210000000  0.5446890000000 1.0
C      1  0.5236800000000  0.5161810000000  0.5444830000000 1.0
C      1  0.5197540000000  0.5530040000000  0.5162200000000 1.0
C      1  0.5168670000000  0.5530150000000  0.4658680000000 1.0
C      1  0.4449210000000  0.5303000000000  0.5066930000000 1.0
C      1  0.4977810000000  0.5016270000000  0.4959890000000 1.0
END
