TITL C-3289332-8317-65 0.00388672881218875 125000 -707.275819216399 0 0 120 (C1) n - 1
REM
REM in /nfs/bkarasulu/CARBON/AIRSS/Generating-Clusters/AIREBO/with-SteepDescent/Higher-Symm/SD-CG/HFTN-CG
REM
REM
REM
REM
REM
REM ./C.cell (b20cbc046b6831c77cfcea5457e17084)
REM
REM compiler GCC version 9.2.1 20190827 (Red Hat 9.2.1-1)
REM options -cpp -mtune=generic -march=x86-64 -g -O0 -fpre-include=/usr/include/finclude/math-vector-fortran.h
REM seed -188914623 -1494367656 -767082678 -1956149160 -2140546868 -840004199 754635443 -969938461 -2102571737 -83276652 -677734978 -553377753 -841746580 276715645 -1056083258 334999660 -505685694 -372733835 -2102806404 1553870187 1337718821 -559975199 -1076506878 -1720139038 347650566 1621267380 196237947 1477114520 -708976800 1490349427 -811937575 799682044 -1950527582
REM
CELL 1.54180   50.00000   50.00000   50.00000   90.00000   90.00000   90.00000
LATT -1
SFAC C  
C      1  0.4718100000000  0.5359200000000  0.4125300000000 1.0
C      1  0.5249000000000  0.5378690000000  0.4194480000000 1.0
C      1  0.5525660000000  0.5086190000000  0.4128960000000 1.0
C      1  0.5132100000000  0.4407480000000  0.4207460000000 1.0
C      1  0.4430630000000  0.4845970000000  0.4139110000000 1.0
C      1  0.5495210000000  0.5476710000000  0.4371020000000 1.0
C      1  0.5497510000000  0.4684930000000  0.4308580000000 1.0
C      1  0.4818990000000  0.4459640000000  0.4206160000000 1.0
C      1  0.4252990000000  0.4882470000000  0.4367870000000 1.0
C      1  0.4650700000000  0.5634410000000  0.4315110000000 1.0
C      1  0.4782390000000  0.5672320000000  0.5193330000000 1.0
C      1  0.5578510000000  0.5336800000000  0.5188000000000 1.0
C      1  0.5488500000000  0.4557160000000  0.5225460000000 1.0
C      1  0.4751830000000  0.4352120000000  0.5171360000000 1.0
C      1  0.4293990000000  0.5064110000000  0.5285770000000 1.0
C      1  0.5251970000000  0.5093190000000  0.5477860000000 1.0
C      1  0.5145770000000  0.4796540000000  0.5529290000000 1.0
C      1  0.4818100000000  0.4766730000000  0.5442340000000 1.0
C      1  0.4749320000000  0.5076020000000  0.5506770000000 1.0
C      1  0.5005770000000  0.5282460000000  0.5431280000000 1.0
C      1  0.4550670000000  0.5262810000000  0.4405250000000 1.0
C      1  0.5111400000000  0.5535730000000  0.4450580000000 1.0
C      1  0.5632830000000  0.4972000000000  0.4430840000000 1.0
C      1  0.5247790000000  0.4565560000000  0.4470170000000 1.0
C      1  0.4549130000000  0.4661350000000  0.4516500000000 1.0
C      1  0.5299410000000  0.4993220000000  0.5010910000000 1.0
C      1  0.5119350000000  0.4760740000000  0.5069760000000 1.0
C      1  0.4852290000000  0.4862230000000  0.5055670000000 1.0
C      1  0.4789000000000  0.5150480000000  0.5112330000000 1.0
C      1  0.5076740000000  0.5188140000000  0.5014320000000 1.0
C      1  0.5878980000000  0.5218050000000  0.4952310000000 1.0
C      1  0.5452800000000  0.4206440000000  0.5013400000000 1.0
C      1  0.4403400000000  0.4346740000000  0.4943800000000 1.0
C      1  0.4152530000000  0.5398180000000  0.4993690000000 1.0
C      1  0.5153480000000  0.5892510000000  0.5021950000000 1.0
C      1  0.5138020000000  0.5483760000000  0.4900120000000 1.0
C      1  0.5457090000000  0.4923260000000  0.4717920000000 1.0
C      1  0.5152450000000  0.4549520000000  0.4851890000000 1.0
C      1  0.4609420000000  0.4704030000000  0.4909130000000 1.0
C      1  0.4591440000000  0.5279800000000  0.4895990000000 1.0
C      1  0.5072050000000  0.5521360000000  0.5231670000000 1.0
C      1  0.5457320000000  0.5068700000000  0.5245810000000 1.0
C      1  0.5195430000000  0.4577280000000  0.5304330000000 1.0
C      1  0.4592730000000  0.4630970000000  0.5240890000000 1.0
C      1  0.4548300000000  0.5218090000000  0.5304660000000 1.0
C      1  0.4926760000000  0.4760130000000  0.5911270000000 1.0
C      1  0.4759690000000  0.4992980000000  0.5918710000000 1.0
C      1  0.4926120000000  0.5223990000000  0.5906650000000 1.0
C      1  0.5199930000000  0.5134950000000  0.5911700000000 1.0
C      1  0.5198590000000  0.4848970000000  0.5921430000000 1.0
C      1  0.4424880000000  0.4277960000000  0.5514030000000 1.0
C      1  0.4104260000000  0.5301180000000  0.5542400000000 1.0
C      1  0.5026490000000  0.5906690000000  0.5523900000000 1.0
C      1  0.5899370000000  0.5254100000000  0.5530180000000 1.0
C      1  0.5550540000000  0.4230970000000  0.5546590000000 1.0
C      1  0.4739350000000  0.5170010000000  0.4626330000000 1.0
C      1  0.5034010000000  0.5298850000000  0.4634240000000 1.0
C      1  0.5178040000000  0.5035610000000  0.4633350000000 1.0
C      1  0.5046760000000  0.4756350000000  0.4612400000000 1.0
C      1  0.4757950000000  0.4857010000000  0.4644170000000 1.0
C      1  0.4855710000000  0.5431650000000  0.5688600000000 1.0
C      1  0.5405290000000  0.5261950000000  0.5709140000000 1.0
C      1  0.5397500000000  0.4696130000000  0.5727010000000 1.0
C      1  0.4850740000000  0.4550570000000  0.5693300000000 1.0
C      1  0.4507640000000  0.5002500000000  0.5734360000000 1.0
C      1  0.4067150000000  0.5249990000000  0.5226850000000 1.0
C      1  0.4973240000000  0.5907830000000  0.5251780000000 1.0
C      1  0.5877880000000  0.5303830000000  0.5249740000000 1.0
C      1  0.5602330000000  0.4277160000000  0.5270780000000 1.0
C      1  0.4455140000000  0.4256310000000  0.5229910000000 1.0
C      1  0.4419980000000  0.4986440000000  0.4914510000000 1.0
C      1  0.4750020000000  0.5578790000000  0.4884970000000 1.0
C      1  0.5463560000000  0.5506050000000  0.4917700000000 1.0
C      1  0.5472050000000  0.4646920000000  0.4915720000000 1.0
C      1  0.4956520000000  0.4329650000000  0.4900820000000 1.0
C      1  0.4529880000000  0.4491270000000  0.5678650000000 1.0
C      1  0.4359580000000  0.5275270000000  0.5679880000000 1.0
C      1  0.5080320000000  0.5661670000000  0.5663590000000 1.0
C      1  0.5686570000000  0.5124770000000  0.5677940000000 1.0
C      1  0.5347130000000  0.4391040000000  0.5676670000000 1.0
C      1  0.4273800000000  0.5144100000000  0.4481150000000 1.0
C      1  0.4876170000000  0.5738660000000  0.4444110000000 1.0
C      1  0.5652630000000  0.5296370000000  0.4514760000000 1.0
C      1  0.5623020000000  0.4429380000000  0.4486010000000 1.0
C      1  0.4685030000000  0.4404550000000  0.4446350000000 1.0
C      1  0.5009190000000  0.5186170000000  0.4093870000000 1.0
C      1  0.5278980000000  0.5003710000000  0.4037770000000 1.0
C      1  0.5220510000000  0.4727310000000  0.4114880000000 1.0
C      1  0.4716090000000  0.4686780000000  0.4084080000000 1.0
C      1  0.4724770000000  0.5018060000000  0.4131850000000 1.0
C      1  0.4229080000000  0.5185300000000  0.4757830000000 1.0
C      1  0.4986290000000  0.5753950000000  0.4760060000000 1.0
C      1  0.5698790000000  0.5355380000000  0.4781650000000 1.0
C      1  0.5575480000000  0.4382750000000  0.4749460000000 1.0
C      1  0.4673890000000  0.4394700000000  0.4782740000000 1.0
C      1  0.4403810000000  0.5556320000000  0.4490240000000 1.0
C      1  0.5375380000000  0.5697990000000  0.4551180000000 1.0
C      1  0.5929930000000  0.4911880000000  0.4572050000000 1.0
C      1  0.5211560000000  0.4247860000000  0.4502620000000 1.0
C      1  0.4260180000000  0.4651330000000  0.4584400000000 1.0
C      1  0.5925720000000  0.4948010000000  0.4858760000000 1.0
C      1  0.5269500000000  0.4128270000000  0.4737770000000 1.0
C      1  0.4219140000000  0.4552680000000  0.4858560000000 1.0
C      1  0.4263850000000  0.5581460000000  0.4730630000000 1.0
C      1  0.5370570000000  0.5862710000000  0.4763670000000 1.0
C      1  0.5645340000000  0.4848010000000  0.5608760000000 1.0
C      1  0.5071500000000  0.4344950000000  0.5604030000000 1.0
C      1  0.4379580000000  0.4737170000000  0.5648640000000 1.0
C      1  0.4554410000000  0.5474450000000  0.5610510000000 1.0
C      1  0.5337560000000  0.5549600000000  0.5605600000000 1.0
C      1  0.5649470000000  0.4822050000000  0.5300490000000 1.0
C      1  0.5043530000000  0.4287450000000  0.5287650000000 1.0
C      1  0.4322520000000  0.4756050000000  0.5350020000000 1.0
C      1  0.4517580000000  0.5541690000000  0.5300150000000 1.0
C      1  0.5393130000000  0.5586190000000  0.5300770000000 1.0
C      1  0.4445670000000  0.5648580000000  0.4984400000000 1.0
C      1  0.5510070000000  0.5805530000000  0.5068440000000 1.0
C      1  0.5787780000000  0.4751680000000  0.4997950000000 1.0
C      1  0.5103320000000  0.4071330000000  0.5029100000000 1.0
C      1  0.4233130000000  0.4765960000000  0.5038360000000 1.0
END
