TITL C-3289326-3776-636 0.000451375420853718 125000 -694.396794317053 0 0 124 (C1) n - 1
REM
REM in /nfs/bkarasulu/CARBON/AIRSS/Generating-Clusters/AIREBO/with-SteepDescent/Higher-Symm/SD-CG/HFTN-CG
REM
REM
REM
REM
REM
REM ./C.cell (b20cbc046b6831c77cfcea5457e17084)
REM
REM compiler GCC version 9.2.1 20190827 (Red Hat 9.2.1-1)
REM options -cpp -mtune=generic -march=x86-64 -g -O0 -fpre-include=/usr/include/finclude/math-vector-fortran.h
REM seed 1340878456 714154705 -385327068 -795307756 258035126 1884356155 803842374 2043294956 1520268499 1441640532 630902805 -1029261004 1278775899 294881385 -2043003259 -303886965 54734083 1622882896 147015034 -2129826926 -1529125136 -1088528811 1791342920 988872966 -1885143502 -883078992 423622577 1127458125 808095595 1880028322 -1560360121 -4326485 1726144357
REM
CELL 1.54180   50.00000   50.00000   50.00000   90.00000   90.00000   90.00000
LATT -1
SFAC C  
C      1  0.4864310000000  0.4479530000000  0.5735000000000 1.0
C      1  0.4758330000000  0.4405260000000  0.4256770000000 1.0
C      1  0.5474980000000  0.5392710000000  0.4914430000000 1.0
C      1  0.5428990000000  0.5488640000000  0.5222430000000 1.0
C      1  0.4165530000000  0.4441160000000  0.4588720000000 1.0
C      1  0.4161230000000  0.4495960000000  0.5326890000000 1.0
C      1  0.4463380000000  0.5476840000000  0.4502710000000 1.0
C      1  0.4545320000000  0.5476240000000  0.5550650000000 1.0
C      1  0.5133040000000  0.4585980000000  0.4592090000000 1.0
C      1  0.5166050000000  0.4570800000000  0.5307310000000 1.0
C      1  0.4459490000000  0.4927040000000  0.5279040000000 1.0
C      1  0.4446960000000  0.4821920000000  0.4729400000000 1.0
C      1  0.5695080000000  0.5383770000000  0.5625350000000 1.0
C      1  0.5711690000000  0.5250070000000  0.4404620000000 1.0
C      1  0.4920710000000  0.5065820000000  0.6018660000000 1.0
C      1  0.4915180000000  0.5128370000000  0.4005330000000 1.0
C      1  0.4900780000000  0.4567610000000  0.5116630000000 1.0
C      1  0.4908530000000  0.4684480000000  0.4827860000000 1.0
C      1  0.5274100000000  0.5452970000000  0.4203050000000 1.0
C      1  0.5223730000000  0.5436160000000  0.6010300000000 1.0
C      1  0.5252500000000  0.4354110000000  0.4810860000000 1.0
C      1  0.5243990000000  0.4303260000000  0.5112410000000 1.0
C      1  0.4704300000000  0.4740950000000  0.4263960000000 1.0
C      1  0.4764970000000  0.4729800000000  0.5622770000000 1.0
C      1  0.5522890000000  0.5487270000000  0.4416210000000 1.0
C      1  0.5462810000000  0.5579950000000  0.5548190000000 1.0
C      1  0.4766280000000  0.5894170000000  0.4517220000000 1.0
C      1  0.4820020000000  0.5828510000000  0.5490510000000 1.0
C      1  0.5193910000000  0.5570420000000  0.5725420000000 1.0
C      1  0.5197290000000  0.5605460000000  0.4497110000000 1.0
C      1  0.5148610000000  0.5308610000000  0.5559500000000 1.0
C      1  0.5082460000000  0.5298730000000  0.4440930000000 1.0
C      1  0.5480390000000  0.5813660000000  0.5309430000000 1.0
C      1  0.5534760000000  0.5607700000000  0.4710160000000 1.0
C      1  0.4761400000000  0.5593310000000  0.4123350000000 1.0
C      1  0.4764620000000  0.5617830000000  0.5961310000000 1.0
C      1  0.4852370000000  0.5214060000000  0.5615040000000 1.0
C      1  0.4773270000000  0.5253240000000  0.4355770000000 1.0
C      1  0.4505340000000  0.4623410000000  0.4482750000000 1.0
C      1  0.4533360000000  0.4673040000000  0.5427940000000 1.0
C      1  0.5311080000000  0.5837710000000  0.5067430000000 1.0
C      1  0.5403180000000  0.5842680000000  0.4783280000000 1.0
C      1  0.4413340000000  0.5053120000000  0.5770780000000 1.0
C      1  0.4330870000000  0.5058680000000  0.4227490000000 1.0
C      1  0.4765950000000  0.5584670000000  0.4428600000000 1.0
C      1  0.4851600000000  0.5547910000000  0.5680000000000 1.0
C      1  0.5491890000000  0.4712780000000  0.4882870000000 1.0
C      1  0.5503440000000  0.4613260000000  0.5305040000000 1.0
C      1  0.4336640000000  0.4454780000000  0.5119250000000 1.0
C      1  0.4352780000000  0.4479220000000  0.4827280000000 1.0
C      1  0.5025130000000  0.4321340000000  0.4407670000000 1.0
C      1  0.5068360000000  0.4333180000000  0.5530130000000 1.0
C      1  0.5870690000000  0.5238190000000  0.4629610000000 1.0
C      1  0.5856030000000  0.5325360000000  0.5395580000000 1.0
C      1  0.4915740000000  0.5114590000000  0.5300810000000 1.0
C      1  0.4789260000000  0.5162590000000  0.4672250000000 1.0
C      1  0.3979740000000  0.5017820000000  0.5175240000000 1.0
C      1  0.3983190000000  0.4950930000000  0.4931450000000 1.0
C      1  0.5182130000000  0.5173900000000  0.4076100000000 1.0
C      1  0.5173110000000  0.5167200000000  0.6007740000000 1.0
C      1  0.5176350000000  0.4786940000000  0.5712070000000 1.0
C      1  0.5226000000000  0.4673660000000  0.4082830000000 1.0
C      1  0.4549650000000  0.5626360000000  0.5277450000000 1.0
C      1  0.4595160000000  0.5596580000000  0.4786460000000 1.0
C      1  0.4784270000000  0.4186460000000  0.5125580000000 1.0
C      1  0.4803950000000  0.4198120000000  0.4831620000000 1.0
C      1  0.5215720000000  0.3978440000000  0.5225390000000 1.0
C      1  0.5285490000000  0.4038590000000  0.4683730000000 1.0
C      1  0.4363710000000  0.5256410000000  0.5584340000000 1.0
C      1  0.4263690000000  0.5231950000000  0.4472060000000 1.0
C      1  0.5643340000000  0.5013510000000  0.4274200000000 1.0
C      1  0.5659600000000  0.5175760000000  0.5806280000000 1.0
C      1  0.4629400000000  0.4446740000000  0.5224090000000 1.0
C      1  0.4670220000000  0.4463910000000  0.4726860000000 1.0
C      1  0.5497600000000  0.4939440000000  0.5530500000000 1.0
C      1  0.5375980000000  0.4810670000000  0.4512780000000 1.0
C      1  0.5190750000000  0.4869880000000  0.4867640000000 1.0
C      1  0.5362150000000  0.4881690000000  0.5151400000000 1.0
C      1  0.5188510000000  0.5074450000000  0.4617080000000 1.0
C      1  0.5311930000000  0.5129990000000  0.5351150000000 1.0
C      1  0.4218710000000  0.4604340000000  0.4352530000000 1.0
C      1  0.4258530000000  0.4630370000000  0.5575390000000 1.0
C      1  0.5792070000000  0.5150350000000  0.5197020000000 1.0
C      1  0.5702720000000  0.5185030000000  0.4907550000000 1.0
C      1  0.5495850000000  0.4118790000000  0.5247210000000 1.0
C      1  0.5551620000000  0.4226610000000  0.4711500000000 1.0
C      1  0.4293060000000  0.5367380000000  0.5120560000000 1.0
C      1  0.4272790000000  0.5307910000000  0.4803360000000 1.0
C      1  0.4277700000000  0.5647100000000  0.4842380000000 1.0
C      1  0.4255450000000  0.5703660000000  0.5155300000000 1.0
C      1  0.5628560000000  0.4440170000000  0.4908790000000 1.0
C      1  0.5631740000000  0.4370470000000  0.5179160000000 1.0
C      1  0.5637310000000  0.4923570000000  0.4699770000000 1.0
C      1  0.5727590000000  0.4858610000000  0.5310810000000 1.0
C      1  0.4176610000000  0.4832270000000  0.4190230000000 1.0
C      1  0.4237130000000  0.4826920000000  0.5778850000000 1.0
C      1  0.5302350000000  0.4441290000000  0.4260030000000 1.0
C      1  0.5290800000000  0.4507250000000  0.5716960000000 1.0
C      1  0.5009310000000  0.4710050000000  0.4300700000000 1.0
C      1  0.5016740000000  0.4841780000000  0.5448650000000 1.0
C      1  0.4212500000000  0.5006860000000  0.4723630000000 1.0
C      1  0.4231960000000  0.5139590000000  0.5320760000000 1.0
C      1  0.5753040000000  0.4746350000000  0.4297740000000 1.0
C      1  0.5737330000000  0.4878630000000  0.5844590000000 1.0
C      1  0.5361840000000  0.5011920000000  0.5833830000000 1.0
C      1  0.5337020000000  0.4950490000000  0.4205080000000 1.0
C      1  0.5092720000000  0.5780910000000  0.4738470000000 1.0
C      1  0.5055290000000  0.5668350000000  0.5086270000000 1.0
C      1  0.4855390000000  0.5395910000000  0.4873730000000 1.0
C      1  0.4631150000000  0.5360110000000  0.5105010000000 1.0
C      1  0.4709280000000  0.4992890000000  0.5786060000000 1.0
C      1  0.4638980000000  0.5030600000000  0.4178140000000 1.0
C      1  0.5968370000000  0.4808510000000  0.5094170000000 1.0
C      1  0.5925530000000  0.4857690000000  0.4850000000000 1.0
C      1  0.4703490000000  0.4929170000000  0.4836560000000 1.0
C      1  0.4677190000000  0.5046180000000  0.5117830000000 1.0
C      1  0.4794980000000  0.5814130000000  0.5185360000000 1.0
C      1  0.4793960000000  0.5846000000000  0.4846610000000 1.0
C      1  0.5125620000000  0.5344810000000  0.5164440000000 1.0
C      1  0.5170310000000  0.5268870000000  0.4853220000000 1.0
C      1  0.4990920000000  0.4109850000000  0.4635010000000 1.0
C      1  0.4970410000000  0.4109600000000  0.5328100000000 1.0
C      1  0.5553370000000  0.4665480000000  0.5723980000000 1.0
C      1  0.5552090000000  0.4544890000000  0.4394480000000 1.0
END
