TITL C-3289322-3858-106 -0.00164570151568576 125000 -225.352577488073 0 0 40 (C1) n - 1
REM
REM in /nfs/bkarasulu/CARBON/AIRSS/Generating-Clusters/AIREBO/with-SteepDescent/Higher-Symm/SD-CG/HFTN-CG
REM
REM
REM
REM
REM
REM ./C.cell (b20cbc046b6831c77cfcea5457e17084)
REM
REM compiler GCC version 9.2.1 20190827 (Red Hat 9.2.1-1)
REM options -cpp -mtune=generic -march=x86-64 -g -O0 -fpre-include=/usr/include/finclude/math-vector-fortran.h
REM seed -349344642 -2018311186 271954335 -511007901 -1770112223 -837397232 150530608 -1765444640 1919076670 1050181077 840284029 250586841 -542591568 -1704740510 1009416570 -1825391927 1721239876 275024294 1106154673 -1236258927 821174259 719080477 1999212679 1927745683 -2034563069 -532039545 -178708988 122072639 1870657822 -1182794911 -1716250230 -1489469700 -832916367
REM
CELL 1.54180   50.00000   50.00000   50.00000   90.00000   90.00000   90.00000
LATT -1
SFAC C  
C      1  0.5132250000000  0.4550500000000  0.4714690000000 1.0
C      1  0.5143000000000  0.5446940000000  0.4748500000000 1.0
C      1  0.5135710000000  0.4971910000000  0.5501380000000 1.0
C      1  0.5089320000000  0.4564030000000  0.5256210000000 1.0
C      1  0.5162900000000  0.5465080000000  0.5207440000000 1.0
C      1  0.5145980000000  0.4960080000000  0.4483110000000 1.0
C      1  0.5520150000000  0.4832710000000  0.5144500000000 1.0
C      1  0.5659500000000  0.5102880000000  0.4779770000000 1.0
C      1  0.5713960000000  0.5263470000000  0.5216000000000 1.0
C      1  0.5535160000000  0.4855570000000  0.4857910000000 1.0
C      1  0.5703830000000  0.4993990000000  0.5292350000000 1.0
C      1  0.5584440000000  0.5309650000000  0.4965640000000 1.0
C      1  0.4624600000000  0.4984300000000  0.4702450000000 1.0
C      1  0.4626170000000  0.5338980000000  0.5211240000000 1.0
C      1  0.4564800000000  0.4584650000000  0.5102460000000 1.0
C      1  0.4603010000000  0.5115940000000  0.5408390000000 1.0
C      1  0.4630680000000  0.5252180000000  0.4856640000000 1.0
C      1  0.4595320000000  0.4636750000000  0.4810320000000 1.0
C      1  0.4310930000000  0.4611640000000  0.4646740000000 1.0
C      1  0.4353570000000  0.5375950000000  0.4921600000000 1.0
C      1  0.4387810000000  0.4941740000000  0.5390450000000 1.0
C      1  0.4365150000000  0.4710600000000  0.5248520000000 1.0
C      1  0.4340190000000  0.5496240000000  0.5166830000000 1.0
C      1  0.4342640000000  0.4882180000000  0.4621960000000 1.0
C      1  0.4998230000000  0.5199540000000  0.4329770000000 1.0
C      1  0.5081020000000  0.5485530000000  0.5511470000000 1.0
C      1  0.5016380000000  0.4283090000000  0.5124390000000 1.0
C      1  0.5066720000000  0.5243570000000  0.5655010000000 1.0
C      1  0.5000740000000  0.5447460000000  0.4463880000000 1.0
C      1  0.5030540000000  0.4279530000000  0.4842390000000 1.0
C      1  0.4822580000000  0.4481620000000  0.4696800000000 1.0
C      1  0.4827110000000  0.5438470000000  0.4734880000000 1.0
C      1  0.4829430000000  0.5051290000000  0.5552400000000 1.0
C      1  0.4783630000000  0.4478350000000  0.5233390000000 1.0
C      1  0.4857890000000  0.5514130000000  0.5275290000000 1.0
C      1  0.4827160000000  0.4981260000000  0.4485160000000 1.0
C      1  0.5248420000000  0.4818370000000  0.4721620000000 1.0
C      1  0.5223340000000  0.4823200000000  0.5263110000000 1.0
C      1  0.5277740000000  0.5314500000000  0.4979890000000 1.0
C      1  0.5192510000000  0.5005180000000  0.4994240000000 1.0
END
