TITL C-3289328-6581-605 0.00077323385211664 125000 -311.213353691824 0 0 56 (C1) n - 1
REM
REM in /nfs/bkarasulu/CARBON/AIRSS/Generating-Clusters/AIREBO/with-SteepDescent/Higher-Symm/SD-CG/HFTN-CG
REM
REM
REM
REM
REM
REM ./C.cell (b20cbc046b6831c77cfcea5457e17084)
REM
REM compiler GCC version 9.2.1 20190827 (Red Hat 9.2.1-1)
REM options -cpp -mtune=generic -march=x86-64 -g -O0 -fpre-include=/usr/include/finclude/math-vector-fortran.h
REM seed 924402321 -1957746741 -74882554 813434026 634873686 -481069623 -1273076599 484821484 1001958997 -74999868 1070021130 1814529457 -889521053 -1382979125 -1053372342 -2049868393 316929518 -1401501098 1767904553 -1093808031 1978416098 -14341832 -825692610 -1552475287 407704538 2124144799 1569492095 -1677345768 774741964 -1494068383 -803233596 955574032 1887348889
REM
CELL 1.54180   50.00000   50.00000   50.00000   90.00000   90.00000   90.00000
LATT -1
SFAC C  
C      1  0.4497020000000  0.5219320000000  0.5152890000000 1.0
C      1  0.4496570000000  0.5205160000000  0.4867660000000 1.0
C      1  0.4457930000000  0.4932820000000  0.4790630000000 1.0
C      1  0.4433690000000  0.4778940000000  0.5032950000000 1.0
C      1  0.4461560000000  0.4958850000000  0.5256570000000 1.0
C      1  0.5523190000000  0.5261550000000  0.5123750000000 1.0
C      1  0.5560590000000  0.5241060000000  0.4842210000000 1.0
C      1  0.5591130000000  0.4961620000000  0.4776430000000 1.0
C      1  0.5582480000000  0.4811180000000  0.5019660000000 1.0
C      1  0.5545940000000  0.4999860000000  0.5232830000000 1.0
C      1  0.5386010000000  0.4395910000000  0.4717690000000 1.0
C      1  0.5351240000000  0.4582680000000  0.5408400000000 1.0
C      1  0.5318710000000  0.5327530000000  0.5610350000000 1.0
C      1  0.5334900000000  0.5706670000000  0.4848080000000 1.0
C      1  0.5280980000000  0.5101710000000  0.4394810000000 1.0
C      1  0.4652950000000  0.4387820000000  0.4737430000000 1.0
C      1  0.4626720000000  0.4523700000000  0.5525110000000 1.0
C      1  0.4733280000000  0.5345350000000  0.5605300000000 1.0
C      1  0.4713320000000  0.5663660000000  0.4855300000000 1.0
C      1  0.4669440000000  0.5119300000000  0.4338420000000 1.0
C      1  0.5342050000000  0.5443980000000  0.5288560000000 1.0
C      1  0.5469710000000  0.5480560000000  0.4633580000000 1.0
C      1  0.5421470000000  0.4858430000000  0.4551510000000 1.0
C      1  0.5434270000000  0.4543010000000  0.5019820000000 1.0
C      1  0.5339040000000  0.4906490000000  0.5430260000000 1.0
C      1  0.4703520000000  0.5417760000000  0.5296580000000 1.0
C      1  0.4714450000000  0.5373890000000  0.4734770000000 1.0
C      1  0.4568620000000  0.4844480000000  0.4519130000000 1.0
C      1  0.4598960000000  0.4522160000000  0.5031420000000 1.0
C      1  0.4605030000000  0.4863060000000  0.5509690000000 1.0
C      1  0.4730780000000  0.4547630000000  0.4484590000000 1.0
C      1  0.4696510000000  0.4377980000000  0.5272230000000 1.0
C      1  0.4838660000000  0.5050300000000  0.5653640000000 1.0
C      1  0.4827690000000  0.5666560000000  0.5122560000000 1.0
C      1  0.4747070000000  0.5368720000000  0.4436510000000 1.0
C      1  0.5280490000000  0.4577390000000  0.4504350000000 1.0
C      1  0.5221910000000  0.4370350000000  0.5221710000000 1.0
C      1  0.5177980000000  0.5032270000000  0.5668690000000 1.0
C      1  0.5168680000000  0.5661010000000  0.5105480000000 1.0
C      1  0.5257060000000  0.5377970000000  0.4412150000000 1.0
C      1  0.5131390000000  0.4539170000000  0.4872180000000 1.0
C      1  0.5107980000000  0.4761300000000  0.5248760000000 1.0
C      1  0.5068540000000  0.5284820000000  0.5384090000000 1.0
C      1  0.5194690000000  0.5401800000000  0.4805320000000 1.0
C      1  0.5104990000000  0.4921780000000  0.4625970000000 1.0
C      1  0.4845710000000  0.4645490000000  0.4852710000000 1.0
C      1  0.4873940000000  0.4705770000000  0.5411900000000 1.0
C      1  0.4893070000000  0.5167040000000  0.5166860000000 1.0
C      1  0.4966090000000  0.5235390000000  0.4858480000000 1.0
C      1  0.4881460000000  0.4909900000000  0.4425530000000 1.0
C      1  0.4998320000000  0.5477620000000  0.4348280000000 1.0
C      1  0.4992070000000  0.4957290000000  0.5943180000000 1.0
C      1  0.5011940000000  0.4533320000000  0.4419570000000 1.0
C      1  0.4961830000000  0.4279920000000  0.5252200000000 1.0
C      1  0.5016680000000  0.5609170000000  0.5399330000000 1.0
C      1  0.5025160000000  0.4915000000000  0.4956520000000 1.0
END
