TITL C-1525613-7943-4517 -3.63684252283819e-05 3375 -8856.24883322621 0 0 60 (Cs) n - 1
REM
REM in /home/nfs/bkarasulu/CARBON/AIRSS/Generating-Clusters/ReaxFF-fromJPCA2015/Units_Real/Try2-Higher-symm/Only-C60
REM
REM
REM
REM
REM
REM ./C.cell (863b2abdce7293c0672fb3ba77bf323a)
REM AIRSS Version 0.9.1 bugfix July 2018 build 013d7b7c2542+ Fri, 06 Jul 2018 19:26:36 +0100
REM compiler GCC version 9.2.1 20190827 (Red Hat 9.2.1-1)
REM options -cpp -mtune=generic -march=x86-64 -g -O0 -fpre-include=/usr/include/finclude/math-vector-fortran.h
REM seed 2069502809 -670757285 -745159225 1179461925 -1033163896 -2003423353 -349180491 -1513527468 1758063207 162733427 -404465407 108850829 1856552176 -1693580158 -618952649 832595518 1897775368 -1081996478 1491652317 -1969185865 -1982425491 725028471 -1858293132 -1058148527 -1196846448 -223533796 18095523 29276114 -978051449 960061222 70087775 100810326 -1753160243
REM
CELL 1.54180   15.00000   15.00000   15.00000   90.00000   90.00000   90.00000
LATT -1
SFAC C  
C      1  0.6065250000000  0.3456420000000  0.5834340000000 1.0
C      1  0.6796620000000  0.5542480000000  0.5833580000000 1.0
C      1  0.5033170000000  0.6857900000000  0.5827760000000 1.0
C      1  0.3255200000000  0.5612260000000  0.5820790000000 1.0
C      1  0.3868050000000  0.3527700000000  0.5827350000000 1.0
C      1  0.6065250000000  0.3456420000000  0.4165660000000 1.0
C      1  0.6796620000000  0.5542480000000  0.4166420000000 1.0
C      1  0.5033170000000  0.6857900000000  0.4172240000000 1.0
C      1  0.3255200000000  0.5612260000000  0.4179210000000 1.0
C      1  0.3868050000000  0.3527700000000  0.4172650000000 1.0
C      1  0.4178410000000  0.5024410000000  0.2925600000000 1.0
C      1  0.4723880000000  0.4223240000000  0.2925780000000 1.0
C      1  0.5654670000000  0.4495040000000  0.2925870000000 1.0
C      1  0.5682980000000  0.5464470000000  0.2924870000000 1.0
C      1  0.4770080000000  0.5791630000000  0.2923070000000 1.0
C      1  0.4178410000000  0.5024410000000  0.7074400000000 1.0
C      1  0.4723880000000  0.4223240000000  0.7074220000000 1.0
C      1  0.5654670000000  0.4495040000000  0.7074130000000 1.0
C      1  0.5682980000000  0.5464470000000  0.7075130000000 1.0
C      1  0.4770080000000  0.5791630000000  0.7076930000000 1.0
C      1  0.7126020000000  0.4256710000000  0.6193960000000 1.0
C      1  0.6356560000000  0.6794610000000  0.6196490000000 1.0
C      1  0.3710070000000  0.6850900000000  0.6201600000000 1.0
C      1  0.2836670000000  0.4357350000000  0.6194530000000 1.0
C      1  0.4942210000000  0.2747900000000  0.6191400000000 1.0
C      1  0.7126020000000  0.4256710000000  0.3806040000000 1.0
C      1  0.6356560000000  0.6794610000000  0.3803510000000 1.0
C      1  0.3710070000000  0.6850900000000  0.3798400000000 1.0
C      1  0.2836670000000  0.4357350000000  0.3805470000000 1.0
C      1  0.4942210000000  0.2747900000000  0.3808600000000 1.0
C      1  0.5016650000000  0.5879380000000  0.5503300000000 1.0
C      1  0.4174910000000  0.5293210000000  0.5486620000000 1.0
C      1  0.4455270000000  0.4309980000000  0.5503220000000 1.0
C      1  0.5507140000000  0.4259560000000  0.5509810000000 1.0
C      1  0.5861900000000  0.5253270000000  0.5509650000000 1.0
C      1  0.5016650000000  0.5879380000000  0.4496700000000 1.0
C      1  0.4174910000000  0.5293210000000  0.4513380000000 1.0
C      1  0.4455270000000  0.4309980000000  0.4496780000000 1.0
C      1  0.5507140000000  0.4259560000000  0.4490190000000 1.0
C      1  0.5861900000000  0.5253270000000  0.4490350000000 1.0
C      1  0.6373290000000  0.3911100000000  0.6663650000000 1.0
C      1  0.6457680000000  0.5971520000000  0.6664570000000 1.0
C      1  0.4525680000000  0.6684530000000  0.6664850000000 1.0
C      1  0.3256510000000  0.5076870000000  0.6656430000000 1.0
C      1  0.4386470000000  0.3362700000000  0.6659710000000 1.0
C      1  0.6373290000000  0.3911100000000  0.3336350000000 1.0
C      1  0.6457680000000  0.5971520000000  0.3335430000000 1.0
C      1  0.4525680000000  0.6684530000000  0.3335150000000 1.0
C      1  0.3256510000000  0.5076870000000  0.3343570000000 1.0
C      1  0.4386470000000  0.3362700000000  0.3340290000000 1.0
C      1  0.3134150000000  0.6544570000000  0.4477080000000 1.0
C      1  0.2945640000000  0.3707420000000  0.4477260000000 1.0
C      1  0.5595860000000  0.2645070000000  0.4477140000000 1.0
C      1  0.7423390000000  0.4845410000000  0.4476870000000 1.0
C      1  0.5885600000000  0.7252390000000  0.4477230000000 1.0
C      1  0.3134150000000  0.6544570000000  0.5522920000000 1.0
C      1  0.2945640000000  0.3707420000000  0.5522740000000 1.0
C      1  0.5595860000000  0.2645070000000  0.5522860000000 1.0
C      1  0.7423390000000  0.4845410000000  0.5523130000000 1.0
C      1  0.5885600000000  0.7252390000000  0.5522770000000 1.0
END
