TITL C-1525613-7943-6808 -0.0075971009983969 3375 -9240.51317174335 0 0 60 (C1) n - 1
REM
REM in /home/nfs/bkarasulu/CARBON/AIRSS/Generating-Clusters/ReaxFF-fromJPCA2015/Units_Real/Try2-Higher-symm/Only-C60
REM
REM
REM
REM
REM
REM ./C.cell (863b2abdce7293c0672fb3ba77bf323a)
REM AIRSS Version 0.9.1 bugfix July 2018 build 013d7b7c2542+ Fri, 06 Jul 2018 19:26:36 +0100
REM compiler GCC version 9.2.1 20190827 (Red Hat 9.2.1-1)
REM options -cpp -mtune=generic -march=x86-64 -g -O0 -fpre-include=/usr/include/finclude/math-vector-fortran.h
REM seed -179575443 -1063664502 -888177936 780561374 -1264973090 -1258326820 235373731 -1604471237 921682909 -604942954 72740651 -1597483946 1867310654 -1096885157 1661427302 1774710755 1351552180 128021553 -1249960053 -518421893 -302722178 438755509 1520248710 -425657545 -1552055919 748711119 1166736740 -340989489 -261377863 830617152 1121301525 451751620 -103439461
REM
CELL 1.54180   15.00000   15.00000   15.00000   90.00000   90.00000   90.00000
LATT -1
SFAC C  
C      1  0.6833910000000  0.4883320000000  0.7095700000000 1.0
C      1  0.5358270000000  0.4697990000000  0.7471330000000 1.0
C      1  0.3719140000000  0.4761340000000  0.7133430000000 1.0
C      1  0.2711890000000  0.4755150000000  0.5962000000000 1.0
C      1  0.2563730000000  0.4711150000000  0.4293590000000 1.0
C      1  0.3174230000000  0.4887110000000  0.2894650000000 1.0
C      1  0.4648970000000  0.4712070000000  0.2501340000000 1.0
C      1  0.6278540000000  0.4768980000000  0.2871400000000 1.0
C      1  0.7285070000000  0.4764220000000  0.4043380000000 1.0
C      1  0.7465740000000  0.4719270000000  0.5704480000000 1.0
C      1  0.6967510000000  0.6632940000000  0.4418370000000 1.0
C      1  0.7103480000000  0.6691110000000  0.5400920000000 1.0
C      1  0.6286730000000  0.6541730000000  0.6468830000000 1.0
C      1  0.5111260000000  0.6676050000000  0.7124110000000 1.0
C      1  0.4154910000000  0.6619820000000  0.6858710000000 1.0
C      1  0.3038760000000  0.6622890000000  0.5579930000000 1.0
C      1  0.2903960000000  0.6681640000000  0.4596970000000 1.0
C      1  0.3721260000000  0.6542160000000  0.3528420000000 1.0
C      1  0.4895120000000  0.6686650000000  0.2872140000000 1.0
C      1  0.5851010000000  0.6630900000000  0.3139590000000 1.0
C      1  0.2418130000000  0.5144700000000  0.5141330000000 1.0
C      1  0.2694720000000  0.5316260000000  0.3565650000000 1.0
C      1  0.3908600000000  0.5316480000000  0.2519220000000 1.0
C      1  0.5505820000000  0.5152500000000  0.2466790000000 1.0
C      1  0.6740960000000  0.5309200000000  0.3492540000000 1.0
C      1  0.7595950000000  0.5157790000000  0.4853280000000 1.0
C      1  0.7330640000000  0.5325610000000  0.6437380000000 1.0
C      1  0.6095450000000  0.5305220000000  0.7463530000000 1.0
C      1  0.4501540000000  0.5138430000000  0.7523750000000 1.0
C      1  0.3260350000000  0.5300030000000  0.6509310000000 1.0
C      1  0.3057200000000  0.3896790000000  0.4082970000000 1.0
C      1  0.3440320000000  0.4037170000000  0.3202860000000 1.0
C      1  0.4371100000000  0.3902020000000  0.2967870000000 1.0
C      1  0.6505710000000  0.3864350000000  0.3080230000000 1.0
C      1  0.7106830000000  0.3884340000000  0.3811080000000 1.0
C      1  0.6976640000000  0.3919280000000  0.5910140000000 1.0
C      1  0.6571920000000  0.4039130000000  0.6772110000000 1.0
C      1  0.5636970000000  0.3895600000000  0.7001620000000 1.0
C      1  0.3476710000000  0.3859860000000  0.6940730000000 1.0
C      1  0.2872550000000  0.3876300000000  0.6212790000000 1.0
C      1  0.3002850000000  0.6210270000000  0.3805290000000 1.0
C      1  0.4099180000000  0.6212060000000  0.2856890000000 1.0
C      1  0.5501860000000  0.6109150000000  0.2467300000000 1.0
C      1  0.6473510000000  0.6197500000000  0.3723600000000 1.0
C      1  0.7589160000000  0.6113890000000  0.4855100000000 1.0
C      1  0.7011010000000  0.6221510000000  0.6194840000000 1.0
C      1  0.5907040000000  0.6201750000000  0.7134850000000 1.0
C      1  0.4506590000000  0.6095310000000  0.7527410000000 1.0
C      1  0.3531610000000  0.6186990000000  0.6275150000000 1.0
C      1  0.2420550000000  0.6101940000000  0.5140990000000 1.0
C      1  0.6417130000000  0.3352930000000  0.5306460000000 1.0
C      1  0.5640780000000  0.3237790000000  0.5780010000000 1.0
C      1  0.5045260000000  0.3292940000000  0.6448140000000 1.0
C      1  0.4032430000000  0.3218080000000  0.6452870000000 1.0
C      1  0.3400370000000  0.3241330000000  0.5721650000000 1.0
C      1  0.3546110000000  0.3306340000000  0.4726730000000 1.0
C      1  0.4302600000000  0.3247830000000  0.4217580000000 1.0
C      1  0.4928910000000  0.3312840000000  0.3557780000000 1.0
C      1  0.5936700000000  0.3241100000000  0.3578680000000 1.0
C      1  0.6564780000000  0.3270910000000  0.4314210000000 1.0
END
