TITL C-1525613-7943-3065 0.00522505675303942 3375 -9129.28494639337 0 0 60 (C5v) n - 1
REM
REM in /home/nfs/bkarasulu/CARBON/AIRSS/Generating-Clusters/ReaxFF-fromJPCA2015/Units_Real/Try2-Higher-symm/Only-C60
REM
REM
REM
REM
REM
REM ./C.cell (863b2abdce7293c0672fb3ba77bf323a)
REM AIRSS Version 0.9.1 bugfix July 2018 build 013d7b7c2542+ Fri, 06 Jul 2018 19:26:36 +0100
REM compiler GCC version 9.2.1 20190827 (Red Hat 9.2.1-1)
REM options -cpp -mtune=generic -march=x86-64 -g -O0 -fpre-include=/usr/include/finclude/math-vector-fortran.h
REM seed 544427707 2134828535 1852224459 1574751080 788771125 1223443042 -1229319078 -1780371011 1052594807 389191988 -1042198172 889819084 1209081014 -1373393689 2141238718 1674511782 -1888368478 -607930451 -365993956 -1994234040 381489353 1382613256 -1401069735 934028953 -1544925165 1737526458 -243266934 -1732336418 1919873858 -1131211838 1171478899 1008546002 48787188
REM
CELL 1.54180   15.00000   15.00000   15.00000   90.00000   90.00000   90.00000
LATT -1
SFAC C  
C      1  0.6151430000000  0.5241390000000  0.6962620000000 1.0
C      1  0.3489190000000  0.5241190000000  0.6701630000000 1.0
C      1  0.2914730000000  0.5241150000000  0.4089060000000 1.0
C      1  0.5221920000000  0.5241340000000  0.2735400000000 1.0
C      1  0.7222290000000  0.5241500000000  0.4511330000000 1.0
C      1  0.6151440000000  0.5241430000000  0.3037410000000 1.0
C      1  0.3489210000000  0.5241220000000  0.3298380000000 1.0
C      1  0.2914730000000  0.5241140000000  0.5910940000000 1.0
C      1  0.5221920000000  0.5241290000000  0.7264620000000 1.0
C      1  0.7222290000000  0.5241480000000  0.5488680000000 1.0
C      1  0.4225860000000  0.8010670000000  0.6081170000000 1.0
C      1  0.3712740000000  0.8010650000000  0.4582690000000 1.0
C      1  0.4999960000000  0.8010760000000  0.3617770000000 1.0
C      1  0.6283840000000  0.8010820000000  0.4584910000000 1.0
C      1  0.5774750000000  0.8010770000000  0.6080280000000 1.0
C      1  0.4222340000000  0.8010690000000  0.3916990000000 1.0
C      1  0.3714610000000  0.8010640000000  0.5416060000000 1.0
C      1  0.5000320000000  0.8010730000000  0.6385710000000 1.0
C      1  0.6289210000000  0.8010810000000  0.5418240000000 1.0
C      1  0.5777590000000  0.8010790000000  0.3916110000000 1.0
C      1  0.3807550000000  0.4409230000000  0.2887910000000 1.0
C      1  0.6640220000000  0.4409450000000  0.3213270000000 1.0
C      1  0.7206130000000  0.4409470000000  0.6007830000000 1.0
C      1  0.4723210000000  0.4409240000000  0.7409640000000 1.0
C      1  0.2622770000000  0.4409110000000  0.5481400000000 1.0
C      1  0.3807530000000  0.4409190000000  0.7112100000000 1.0
C      1  0.6640210000000  0.4409420000000  0.6786750000000 1.0
C      1  0.7206140000000  0.4409490000000  0.3992180000000 1.0
C      1  0.4723220000000  0.4409290000000  0.2590370000000 1.0
C      1  0.2622770000000  0.4409120000000  0.4518610000000 1.0
C      1  0.6167130000000  0.3576350000000  0.3001360000000 1.0
C      1  0.7261510000000  0.3576410000000  0.5492350000000 1.0
C      1  0.5230610000000  0.3576210000000  0.7302940000000 1.0
C      1  0.2881080000000  0.3576060000000  0.5930910000000 1.0
C      1  0.3459880000000  0.3576140000000  0.3272420000000 1.0
C      1  0.6167120000000  0.3576310000000  0.6998620000000 1.0
C      1  0.7261510000000  0.3576420000000  0.4507650000000 1.0
C      1  0.5230630000000  0.3576270000000  0.2697060000000 1.0
C      1  0.2881080000000  0.3576080000000  0.4069060000000 1.0
C      1  0.3459870000000  0.3576090000000  0.6727580000000 1.0
C      1  0.6449460000000  0.5840150000000  0.5473540000000 1.0
C      1  0.4997470000000  0.5839950000000  0.6524940000000 1.0
C      1  0.3548760000000  0.5839940000000  0.5469000000000 1.0
C      1  0.4105410000000  0.5840010000000  0.3764840000000 1.0
C      1  0.5898180000000  0.5840150000000  0.3767670000000 1.0
C      1  0.6449490000000  0.5840160000000  0.4526490000000 1.0
C      1  0.4997460000000  0.5839990000000  0.3475060000000 1.0
C      1  0.3548760000000  0.5839950000000  0.4531040000000 1.0
C      1  0.4105410000000  0.5840010000000  0.6235150000000 1.0
C      1  0.5898150000000  0.5840120000000  0.6232370000000 1.0
C      1  0.4069090000000  0.2922300000000  0.6290950000000 1.0
C      1  0.3484620000000  0.2922260000000  0.4513480000000 1.0
C      1  0.4994490000000  0.2922380000000  0.3408340000000 1.0
C      1  0.6512100000000  0.2922500000000  0.4502810000000 1.0
C      1  0.5940180000000  0.2922440000000  0.6284360000000 1.0
C      1  0.4069090000000  0.2922310000000  0.3709030000000 1.0
C      1  0.3484610000000  0.2922250000000  0.5486480000000 1.0
C      1  0.4994480000000  0.2922360000000  0.6591630000000 1.0
C      1  0.6512100000000  0.2922480000000  0.5497170000000 1.0
C      1  0.5940180000000  0.2922470000000  0.3715620000000 1.0
END
