TITL C-1525613-7943-1283 -0.0184005037707018 3375 -9541.28423679174 0 0 60 (D5d) n - 1
REM
REM in /home/nfs/bkarasulu/CARBON/AIRSS/Generating-Clusters/ReaxFF-fromJPCA2015/Units_Real/Try2-Higher-symm/Only-C60
REM
REM
REM
REM
REM
REM ./C.cell (863b2abdce7293c0672fb3ba77bf323a)
REM AIRSS Version 0.9.1 bugfix July 2018 build 013d7b7c2542+ Fri, 06 Jul 2018 19:26:36 +0100
REM compiler GCC version 9.2.1 20190827 (Red Hat 9.2.1-1)
REM options -cpp -mtune=generic -march=x86-64 -g -O0 -fpre-include=/usr/include/finclude/math-vector-fortran.h
REM seed -256707093 -450893747 855849404 935825777 180788120 -24286640 1234043427 -1900677622 -99555508 -1723061124 -1433902525 1397650735 -1229367977 469877462 1658296910 568809674 -299343749 531973192 -1052619749 1971310782 1928407290 -1669423816 -302688655 -825869805 1719094406 -861713814 305525563 965794536 554401384 1512038490 -287770949 1288174106 -1817409472
REM
CELL 1.54180   15.00000   15.00000   15.00000   90.00000   90.00000   90.00000
LATT -1
SFAC C  
C      1  0.2780050000000  0.3786520000000  0.4763630000000 1.0
C      1  0.4086550000000  0.3784840000000  0.7047760000000 1.0
C      1  0.6660020000000  0.3789420000000  0.6489530000000 1.0
C      1  0.6924750000000  0.3781940000000  0.3878890000000 1.0
C      1  0.4531530000000  0.3774730000000  0.2792660000000 1.0
C      1  0.7243900000000  0.3774700000000  0.4763250000000 1.0
C      1  0.5912040000000  0.3785770000000  0.7038840000000 1.0
C      1  0.3334660000000  0.3783870000000  0.6502700000000 1.0
C      1  0.3071440000000  0.3790210000000  0.3882670000000 1.0
C      1  0.5471280000000  0.3782580000000  0.2822730000000 1.0
C      1  0.3266660000000  0.4591400000000  0.3430230000000 1.0
C      1  0.2967830000000  0.4590490000000  0.6166990000000 1.0
C      1  0.5478430000000  0.4591390000000  0.7290730000000 1.0
C      1  0.7331390000000  0.4596910000000  0.5257450000000 1.0
C      1  0.5954870000000  0.4587640000000  0.2869820000000 1.0
C      1  0.6729970000000  0.4587590000000  0.3433200000000 1.0
C      1  0.7028420000000  0.4590680000000  0.6163390000000 1.0
C      1  0.4518010000000  0.4590640000000  0.7291820000000 1.0
C      1  0.2672530000000  0.4591390000000  0.5252970000000 1.0
C      1  0.4034230000000  0.4596910000000  0.2861560000000 1.0
C      1  0.6662520000000  0.6213710000000  0.3501300000000 1.0
C      1  0.4088860000000  0.6211480000000  0.2956350000000 1.0
C      1  0.2773020000000  0.6213280000000  0.5234630000000 1.0
C      1  0.4536700000000  0.6214390000000  0.7189380000000 1.0
C      1  0.6943340000000  0.6215540000000  0.6119130000000 1.0
C      1  0.3334640000000  0.6215140000000  0.3497690000000 1.0
C      1  0.5911310000000  0.6213830000000  0.2955300000000 1.0
C      1  0.7224710000000  0.6211600000000  0.5234600000000 1.0
C      1  0.5465130000000  0.6213370000000  0.7189800000000 1.0
C      1  0.3061110000000  0.6213580000000  0.6117200000000 1.0
C      1  0.5496710000000  0.6894980000000  0.6499450000000 1.0
C      1  0.6580470000000  0.6894700000000  0.4991590000000 1.0
C      1  0.5482330000000  0.6898910000000  0.3492540000000 1.0
C      1  0.3717830000000  0.6895490000000  0.4073250000000 1.0
C      1  0.3727890000000  0.6893230000000  0.5931180000000 1.0
C      1  0.4507890000000  0.6894740000000  0.6498450000000 1.0
C      1  0.3420640000000  0.6894220000000  0.4991440000000 1.0
C      1  0.4519190000000  0.6894150000000  0.3494350000000 1.0
C      1  0.6284260000000  0.6898820000000  0.4075350000000 1.0
C      1  0.6277880000000  0.6896170000000  0.5932930000000 1.0
C      1  0.3264110000000  0.5408140000000  0.6572030000000 1.0
C      1  0.5956470000000  0.5408040000000  0.7136280000000 1.0
C      1  0.7322840000000  0.5409970000000  0.4754390000000 1.0
C      1  0.5473490000000  0.5406900000000  0.2712300000000 1.0
C      1  0.2966640000000  0.5404680000000  0.3835490000000 1.0
C      1  0.6735520000000  0.5404820000000  0.6573540000000 1.0
C      1  0.4040790000000  0.5408150000000  0.7135940000000 1.0
C      1  0.2671560000000  0.5407430000000  0.4750140000000 1.0
C      1  0.4514990000000  0.5409900000000  0.2713790000000 1.0
C      1  0.7028330000000  0.5406920000000  0.3842710000000 1.0
C      1  0.5481620000000  0.3106450000000  0.6500750000000 1.0
C      1  0.6572270000000  0.3092530000000  0.4994830000000 1.0
C      1  0.5503380000000  0.3131900000000  0.3512020000000 1.0
C      1  0.3738640000000  0.3109100000000  0.4070370000000 1.0
C      1  0.3716490000000  0.3101910000000  0.5926870000000 1.0
C      1  0.4517050000000  0.3103470000000  0.6507040000000 1.0
C      1  0.3425350000000  0.3107920000000  0.5006910000000 1.0
C      1  0.4519700000000  0.3092790000000  0.3502970000000 1.0
C      1  0.6259930000000  0.3130690000000  0.4061600000000 1.0
C      1  0.6275850000000  0.3107340000000  0.5913290000000 1.0
END
