TITL C-1525613-7943-3788 -0.000131659059427676 3375 -8934.61314042674 0 0 60 (C5) n - 1
REM
REM in /home/nfs/bkarasulu/CARBON/AIRSS/Generating-Clusters/ReaxFF-fromJPCA2015/Units_Real/Try2-Higher-symm/Only-C60
REM
REM
REM
REM
REM
REM ./C.cell (863b2abdce7293c0672fb3ba77bf323a)
REM AIRSS Version 0.9.1 bugfix July 2018 build 013d7b7c2542+ Fri, 06 Jul 2018 19:26:36 +0100
REM compiler GCC version 9.2.1 20190827 (Red Hat 9.2.1-1)
REM options -cpp -mtune=generic -march=x86-64 -g -O0 -fpre-include=/usr/include/finclude/math-vector-fortran.h
REM seed -715504755 1725872695 839774734 -1586551250 -1351980990 -2083494415 880165828 -1658830308 1882935296 284303754 219543894 1332047938 -1033135154 1350250662 1656824923 -1604727239 -23353073 2062401638 -242556450 -2128007295 -406139101 -1016620626 -1053042997 61763498 -406011457 -2000015747 553457768 -2146648552 -2064697861 -1020869549 -2129570056 2040602189 567082990
REM
CELL 1.54180   15.00000   15.00000   15.00000   90.00000   90.00000   90.00000
LATT -1
SFAC C  
C      1  0.4626140000000  0.5700360000000  0.4265750000000 1.0
C      1  0.4218390000000  0.4860860000000  0.4265750000000 1.0
C      1  0.4890800000000  0.4213650000000  0.4265750000000 1.0
C      1  0.5714120000000  0.4653150000000  0.4265750000000 1.0
C      1  0.5550550000000  0.5571990000000  0.4265750000000 1.0
C      1  0.4626140000000  0.5700360000000  0.5734250000000 1.0
C      1  0.4218390000000  0.4860860000000  0.5734250000000 1.0
C      1  0.4890800000000  0.4213650000000  0.5734250000000 1.0
C      1  0.5714120000000  0.4653150000000  0.5734250000000 1.0
C      1  0.5550550000000  0.5571990000000  0.5734250000000 1.0
C      1  0.5913850000000  0.3733050000000  0.6839990000000 1.0
C      1  0.6487340000000  0.5477620000000  0.6839990000000 1.0
C      1  0.5005370000000  0.6562130000000  0.6839990000000 1.0
C      1  0.3515980000000  0.5487840000000  0.6839990000000 1.0
C      1  0.4077450000000  0.3739370000000  0.6839990000000 1.0
C      1  0.5913850000000  0.3733050000000  0.3160010000000 1.0
C      1  0.6487340000000  0.5477620000000  0.3160010000000 1.0
C      1  0.5005370000000  0.6562130000000  0.3160010000000 1.0
C      1  0.3515980000000  0.5487840000000  0.3160010000000 1.0
C      1  0.4077450000000  0.3739370000000  0.3160010000000 1.0
C      1  0.3176240000000  0.3713930000000  0.5482110000000 1.0
C      1  0.5659560000000  0.2868090000000  0.5482110000000 1.0
C      1  0.7231380000000  0.4968480000000  0.5482110000000 1.0
C      1  0.5719510000000  0.7112430000000  0.5482110000000 1.0
C      1  0.3213300000000  0.6337080000000  0.5482110000000 1.0
C      1  0.3176240000000  0.3713930000000  0.4517890000000 1.0
C      1  0.5659560000000  0.2868090000000  0.4517890000000 1.0
C      1  0.7231380000000  0.4968480000000  0.4517890000000 1.0
C      1  0.5719510000000  0.7112430000000  0.4517890000000 1.0
C      1  0.3213300000000  0.6337080000000  0.4517890000000 1.0
C      1  0.4484920000000  0.4310090000000  0.2555630000000 1.0
C      1  0.5496980000000  0.4296940000000  0.2555630000000 1.0
C      1  0.5822230000000  0.5255400000000  0.2555630000000 1.0
C      1  0.5011190000000  0.5860910000000  0.2555630000000 1.0
C      1  0.4184690000000  0.5276670000000  0.2555630000000 1.0
C      1  0.4484920000000  0.4310090000000  0.7444370000000 1.0
C      1  0.5496980000000  0.4296940000000  0.7444370000000 1.0
C      1  0.5822230000000  0.5255400000000  0.7444370000000 1.0
C      1  0.5011190000000  0.5860910000000  0.7444370000000 1.0
C      1  0.4184690000000  0.5276670000000  0.7444370000000 1.0
C      1  0.4720490000000  0.3230620000000  0.5548260000000 1.0
C      1  0.6596410000000  0.4187400000000  0.5548260000000 1.0
C      1  0.6266150000000  0.6267160000000  0.5548260000000 1.0
C      1  0.4186120000000  0.6595750000000  0.5548260000000 1.0
C      1  0.3230850000000  0.4719060000000  0.5548260000000 1.0
C      1  0.4720490000000  0.3230620000000  0.4451740000000 1.0
C      1  0.6596410000000  0.4187400000000  0.4451740000000 1.0
C      1  0.6266150000000  0.6267160000000  0.4451740000000 1.0
C      1  0.4186120000000  0.6595750000000  0.4451740000000 1.0
C      1  0.3230850000000  0.4719060000000  0.4451740000000 1.0
C      1  0.3808090000000  0.3274220000000  0.3911090000000 1.0
C      1  0.6273000000000  0.3333130000000  0.3911090000000 1.0
C      1  0.6978660000000  0.5695600000000  0.3911090000000 1.0
C      1  0.4949880000000  0.7096770000000  0.3911090000000 1.0
C      1  0.2990360000000  0.5600270000000  0.3911090000000 1.0
C      1  0.3808090000000  0.3274220000000  0.6088910000000 1.0
C      1  0.6273000000000  0.3333130000000  0.6088910000000 1.0
C      1  0.6978660000000  0.5695600000000  0.6088910000000 1.0
C      1  0.4949880000000  0.7096770000000  0.6088910000000 1.0
C      1  0.2990360000000  0.5600270000000  0.6088910000000 1.0
END
