TITL C-1525613-7943-5099 1.6186296504067 3375 -8170.40729096472 0 0 60 (C5) n - 1
REM
REM in /home/nfs/bkarasulu/CARBON/AIRSS/Generating-Clusters/ReaxFF-fromJPCA2015/Units_Real/Try2-Higher-symm/Only-C60
REM
REM
REM
REM
REM
REM ./C.cell (863b2abdce7293c0672fb3ba77bf323a)
REM AIRSS Version 0.9.1 bugfix July 2018 build 013d7b7c2542+ Fri, 06 Jul 2018 19:26:36 +0100
REM compiler GCC version 9.2.1 20190827 (Red Hat 9.2.1-1)
REM options -cpp -mtune=generic -march=x86-64 -g -O0 -fpre-include=/usr/include/finclude/math-vector-fortran.h
REM seed -1460294112 -1052628775 -1818675227 -1020719745 1503201481 -1460721647 1908597832 868678391 -1514372845 729312693 -788549583 -1584536676 -52473534 69038130 -1113088678 -1963093231 1067233833 1565075583 -1975074714 -1635832353 2086103623 -2079581454 1150517009 -303755090 -380360351 -1271129813 -1374711767 1658746499 49790951 -139173139 190916160 2026487132 40704502
REM
CELL 1.54180   15.00000   15.00000   15.00000   90.00000   90.00000   90.00000
LATT -1
SFAC C  
C      1  0.3447590000000  0.3854580000000  0.6333010000000 1.0
C      1  0.5787230000000  0.3855010000000  0.6887750000000 1.0
C      1  0.7039380000000  0.3854920000000  0.4834180000000 1.0
C      1  0.5472050000000  0.3855510000000  0.3009930000000 1.0
C      1  0.3253260000000  0.3855110000000  0.3935550000000 1.0
C      1  0.6552410000000  0.3854580000000  0.6333020000000 1.0
C      1  0.4212770000000  0.3855010000000  0.6887760000000 1.0
C      1  0.2960620000000  0.3854920000000  0.4834190000000 1.0
C      1  0.4527950000000  0.3855510000000  0.3009930000000 1.0
C      1  0.6746750000000  0.3855110000000  0.3935550000000 1.0
C      1  0.5963690000000  0.6253820000000  0.7158860000000 1.0
C      1  0.7351020000000  0.6253980000000  0.4750560000000 1.0
C      1  0.5489300000000  0.6253810000000  0.2687050000000 1.0
C      1  0.2951500000000  0.6253820000000  0.3819900000000 1.0
C      1  0.3244680000000  0.6253950000000  0.6583590000000 1.0
C      1  0.4036310000000  0.6253810000000  0.7158900000000 1.0
C      1  0.2648950000000  0.6253960000000  0.4750550000000 1.0
C      1  0.4510710000000  0.6253800000000  0.2687050000000 1.0
C      1  0.7048500000000  0.6253830000000  0.3819940000000 1.0
C      1  0.6755320000000  0.6253970000000  0.6583560000000 1.0
C      1  0.5664490000000  0.4764190000000  0.3313570000000 1.0
C      1  0.3601900000000  0.4764080000000  0.3846440000000 1.0
C      1  0.3471580000000  0.4765010000000  0.5973380000000 1.0
C      1  0.5453040000000  0.4764030000000  0.6755030000000 1.0
C      1  0.6808710000000  0.4764560000000  0.5111130000000 1.0
C      1  0.4335520000000  0.4764180000000  0.3313570000000 1.0
C      1  0.6398090000000  0.4764080000000  0.3846440000000 1.0
C      1  0.6528420000000  0.4765010000000  0.5973370000000 1.0
C      1  0.4546960000000  0.4764030000000  0.6755020000000 1.0
C      1  0.3191290000000  0.4764560000000  0.5111130000000 1.0
C      1  0.5468130000000  0.6677320000000  0.6438910000000 1.0
C      1  0.6513170000000  0.6677310000000  0.4999510000000 1.0
C      1  0.5467040000000  0.6677310000000  0.3560580000000 1.0
C      1  0.3775440000000  0.6677320000000  0.4110980000000 1.0
C      1  0.3776270000000  0.6677340000000  0.5889980000000 1.0
C      1  0.4531890000000  0.6677310000000  0.6438950000000 1.0
C      1  0.3486820000000  0.6677360000000  0.4999500000000 1.0
C      1  0.4532980000000  0.6677310000000  0.3560590000000 1.0
C      1  0.6224540000000  0.6677320000000  0.4111030000000 1.0
C      1  0.6223730000000  0.6677310000000  0.5889960000000 1.0
C      1  0.5486550000000  0.2998290000000  0.6506870000000 1.0
C      1  0.6583000000000  0.2997010000000  0.5003880000000 1.0
C      1  0.5492920000000  0.2997550000000  0.3495170000000 1.0
C      1  0.3721090000000  0.2997800000000  0.4066540000000 1.0
C      1  0.3717230000000  0.2996770000000  0.5927470000000 1.0
C      1  0.4513450000000  0.2998290000000  0.6506870000000 1.0
C      1  0.3417000000000  0.2997010000000  0.5003870000000 1.0
C      1  0.4507080000000  0.2997550000000  0.3495170000000 1.0
C      1  0.6278910000000  0.2997800000000  0.4066530000000 1.0
C      1  0.6282770000000  0.2996770000000  0.5927470000000 1.0
C      1  0.4523340000000  0.5451730000000  0.7426490000000 1.0
C      1  0.7160410000000  0.5452140000000  0.6203550000000 1.0
C      1  0.6811560000000  0.5451750000000  0.3316830000000 1.0
C      1  0.3959450000000  0.5451830000000  0.2756970000000 1.0
C      1  0.2544470000000  0.5452150000000  0.5296300000000 1.0
C      1  0.5476670000000  0.5451740000000  0.7426480000000 1.0
C      1  0.2839600000000  0.5452160000000  0.6203550000000 1.0
C      1  0.3188440000000  0.5451740000000  0.3316830000000 1.0
C      1  0.6040550000000  0.5451810000000  0.2756960000000 1.0
C      1  0.7455520000000  0.5452150000000  0.5296300000000 1.0
END
