TITL C-1525613-7943-1336 0.0272842307442922 3375 -8677.56637561 0 0 60 (C1) n - 1
REM
REM in /home/nfs/bkarasulu/CARBON/AIRSS/Generating-Clusters/ReaxFF-fromJPCA2015/Units_Real/Try2-Higher-symm/Only-C60
REM
REM
REM
REM
REM
REM ./C.cell (863b2abdce7293c0672fb3ba77bf323a)
REM AIRSS Version 0.9.1 bugfix July 2018 build 013d7b7c2542+ Fri, 06 Jul 2018 19:26:36 +0100
REM compiler GCC version 9.2.1 20190827 (Red Hat 9.2.1-1)
REM options -cpp -mtune=generic -march=x86-64 -g -O0 -fpre-include=/usr/include/finclude/math-vector-fortran.h
REM seed 1640274495 -1300535424 -1299402935 343461652 1079037374 1936915360 359996784 -1081740191 -1006822103 952801035 1797423607 -489383210 155701563 -2118911652 -651983259 -79654106 1901984223 28568492 -1934041755 1377724669 148622067 -1373545747 1539929677 1720774040 269078215 -418089213 -882352400 -1620363124 588131280 35266437 -1577510666 -1361172969 -1082305212
REM
CELL 1.54180   15.00000   15.00000   15.00000   90.00000   90.00000   90.00000
LATT -1
SFAC C  
C      1  0.2283090000000  0.4851610000000  0.3730420000000 1.0
C      1  0.7401100000000  0.5800150000000  0.3837650000000 1.0
C      1  0.2642180000000  0.6273520000000  0.4359250000000 1.0
C      1  0.7558890000000  0.6570750000000  0.5284380000000 1.0
C      1  0.2896770000000  0.5965400000000  0.6123640000000 1.0
C      1  0.7256420000000  0.5410640000000  0.6363840000000 1.0
C      1  0.2322020000000  0.4414480000000  0.6454680000000 1.0
C      1  0.7544790000000  0.3951130000000  0.5804550000000 1.0
C      1  0.2203190000000  0.3750700000000  0.4956740000000 1.0
C      1  0.7736250000000  0.4144130000000  0.4047120000000 1.0
C      1  0.4109500000000  0.6085990000000  0.3383020000000 1.0
C      1  0.6148840000000  0.7254320000000  0.4543090000000 1.0
C      1  0.4273660000000  0.6752960000000  0.5637690000000 1.0
C      1  0.5927640000000  0.6340020000000  0.6324190000000 1.0
C      1  0.3928470000000  0.4615740000000  0.7133410000000 1.0
C      1  0.5957620000000  0.3391740000000  0.6374290000000 1.0
C      1  0.3698110000000  0.3060520000000  0.5557510000000 1.0
C      1  0.6370940000000  0.2988390000000  0.4152590000000 1.0
C      1  0.3684440000000  0.3839570000000  0.3320110000000 1.0
C      1  0.6148230000000  0.5061480000000  0.3010420000000 1.0
C      1  0.4400900000000  0.3010410000000  0.4808050000000 1.0
C      1  0.5583490000000  0.3339090000000  0.3566550000000 1.0
C      1  0.4479840000000  0.4357080000000  0.2965560000000 1.0
C      1  0.5856500000000  0.5518350000000  0.2376970000000 1.0
C      1  0.4898790000000  0.6402860000000  0.3938180000000 1.0
C      1  0.5483530000000  0.7642160000000  0.5175900000000 1.0
C      1  0.4258900000000  0.7370550000000  0.6223720000000 1.0
C      1  0.5373450000000  0.5097080000000  0.6612420000000 1.0
C      1  0.4495550000000  0.3828800000000  0.6985980000000 1.0
C      1  0.5580080000000  0.2655490000000  0.5765670000000 1.0
C      1  0.3032160000000  0.3261720000000  0.4879990000000 1.0
C      1  0.6973520000000  0.3574450000000  0.3668100000000 1.0
C      1  0.3131820000000  0.4634230000000  0.3250670000000 1.0
C      1  0.6472630000000  0.5858880000000  0.3571570000000 1.0
C      1  0.3516310000000  0.6510930000000  0.4030530000000 1.0
C      1  0.6786100000000  0.7164480000000  0.5290540000000 1.0
C      1  0.3899260000000  0.6057350000000  0.6301800000000 1.0
C      1  0.6233850000000  0.5588390000000  0.6582500000000 1.0
C      1  0.3157840000000  0.4113560000000  0.6777080000000 1.0
C      1  0.6751680000000  0.3405240000000  0.5820080000000 1.0
C      1  0.7596940000000  0.4672530000000  0.6254160000000 1.0
C      1  0.1988100000000  0.4116440000000  0.5726660000000 1.0
C      1  0.7770650000000  0.4269470000000  0.4962480000000 1.0
C      1  0.1994140000000  0.4381520000000  0.4403320000000 1.0
C      1  0.7801590000000  0.5042220000000  0.3845990000000 1.0
C      1  0.2176070000000  0.5631120000000  0.4025570000000 1.0
C      1  0.7745510000000  0.6175650000000  0.4516500000000 1.0
C      1  0.2577520000000  0.6042720000000  0.5248430000000 1.0
C      1  0.7661930000000  0.5926850000000  0.5849490000000 1.0
C      1  0.2340940000000  0.5248490000000  0.6322860000000 1.0
C      1  0.6056530000000  0.7184180000000  0.5956700000000 1.0
C      1  0.4417270000000  0.5377890000000  0.6730200000000 1.0
C      1  0.5379640000000  0.4124890000000  0.6718740000000 1.0
C      1  0.3741650000000  0.3394270000000  0.6489970000000 1.0
C      1  0.6372210000000  0.2811670000000  0.5149840000000 1.0
C      1  0.3665820000000  0.3220630000000  0.4148480000000 1.0
C      1  0.6242360000000  0.3972640000000  0.3165930000000 1.0
C      1  0.3888260000000  0.5202630000000  0.2999650000000 1.0
C      1  0.5864430000000  0.6496880000000  0.3939970000000 1.0
C      1  0.4260070000000  0.6793000000000  0.4554590000000 1.0
END
