TITL C-1525613-7943-2527 1.04451635882147 3375 -8173.91901450942 0 0 60 (C5v) n - 1
REM
REM in /home/nfs/bkarasulu/CARBON/AIRSS/Generating-Clusters/ReaxFF-fromJPCA2015/Units_Real/Try2-Higher-symm/Only-C60
REM
REM
REM
REM
REM
REM ./C.cell (863b2abdce7293c0672fb3ba77bf323a)
REM AIRSS Version 0.9.1 bugfix July 2018 build 013d7b7c2542+ Fri, 06 Jul 2018 19:26:36 +0100
REM compiler GCC version 9.2.1 20190827 (Red Hat 9.2.1-1)
REM options -cpp -mtune=generic -march=x86-64 -g -O0 -fpre-include=/usr/include/finclude/math-vector-fortran.h
REM seed -1429080378 -417875465 -28024215 557321892 -1536128477 2100981175 99978928 1473533774 1047421239 1476173608 -1426168713 -1013475608 -874142671 102494680 -441154836 22272723 383964556 981580396 552521840 -964989336 236037848 1519260140 -1703277590 -1655269049 -886731420 -32049241 -352291161 -1686584957 524094250 -1409703935 1823957956 880797348 -93309936
REM
CELL 1.54180   15.00000   15.00000   15.00000   90.00000   90.00000   90.00000
LATT -1
SFAC C  
C      1  0.5313730000000  0.5450800000000  0.2424590000000 1.0
C      1  0.7545680000000  0.5450560000000  0.4503200000000 1.0
C      1  0.6259320000000  0.5450750000000  0.7268410000000 1.0
C      1  0.3231840000000  0.5450920000000  0.6898430000000 1.0
C      1  0.2647860000000  0.5451170000000  0.3905880000000 1.0
C      1  0.5313680000000  0.5450790000000  0.7575400000000 1.0
C      1  0.7545570000000  0.5450540000000  0.5496950000000 1.0
C      1  0.6259400000000  0.5450800000000  0.2731560000000 1.0
C      1  0.3231780000000  0.5450880000000  0.3101610000000 1.0
C      1  0.2647840000000  0.5451160000000  0.6094250000000 1.0
C      1  0.5019030000000  0.4517200000000  0.2242300000000 1.0
C      1  0.7626650000000  0.4515920000000  0.4166780000000 1.0
C      1  0.6604930000000  0.4517080000000  0.7241350000000 1.0
C      1  0.3364510000000  0.4516700000000  0.7218390000000 1.0
C      1  0.2384680000000  0.4516630000000  0.4129560000000 1.0
C      1  0.5019050000000  0.4517190000000  0.7757690000000 1.0
C      1  0.7626650000000  0.4515870000000  0.5833300000000 1.0
C      1  0.6604870000000  0.4517120000000  0.2758610000000 1.0
C      1  0.3364500000000  0.4516670000000  0.2781590000000 1.0
C      1  0.2384710000000  0.4516660000000  0.5870440000000 1.0
C      1  0.4887330000000  0.3986030000000  0.6917610000000 1.0
C      1  0.3141670000000  0.3985400000000  0.5485140000000 1.0
C      1  0.3965890000000  0.3987250000000  0.3383370000000 1.0
C      1  0.6217470000000  0.3985330000000  0.3514470000000 1.0
C      1  0.6786620000000  0.3986870000000  0.5700220000000 1.0
C      1  0.4887420000000  0.3986210000000  0.3082260000000 1.0
C      1  0.3141810000000  0.3985130000000  0.4515030000000 1.0
C      1  0.3965740000000  0.3987480000000  0.6616680000000 1.0
C      1  0.6217460000000  0.3985230000000  0.6485380000000 1.0
C      1  0.6786610000000  0.3986800000000  0.4299770000000 1.0
C      1  0.3094870000000  0.6029450000000  0.4532950000000 1.0
C      1  0.4854540000000  0.6029630000000  0.3042450000000 1.0
C      1  0.6818340000000  0.6030400000000  0.4255420000000 1.0
C      1  0.6269010000000  0.6030760000000  0.6499990000000 1.0
C      1  0.3966710000000  0.6029390000000  0.6667930000000 1.0
C      1  0.3095070000000  0.6029500000000  0.5467220000000 1.0
C      1  0.4854730000000  0.6029460000000  0.6957090000000 1.0
C      1  0.6818210000000  0.6030370000000  0.5744650000000 1.0
C      1  0.6269280000000  0.6030720000000  0.3499950000000 1.0
C      1  0.3966560000000  0.6029510000000  0.3331690000000 1.0
C      1  0.5889150000000  0.3107430000000  0.6234180000000 1.0
C      1  0.4102160000000  0.3110390000000  0.6225850000000 1.0
C      1  0.3555670000000  0.3107710000000  0.4524290000000 1.0
C      1  0.5006520000000  0.3109420000000  0.3479470000000 1.0
C      1  0.6447450000000  0.3109510000000  0.4536110000000 1.0
C      1  0.5889290000000  0.3107460000000  0.3765920000000 1.0
C      1  0.4101950000000  0.3110370000000  0.3774370000000 1.0
C      1  0.3555520000000  0.3107750000000  0.5475380000000 1.0
C      1  0.5006760000000  0.3109340000000  0.6520550000000 1.0
C      1  0.6447420000000  0.3109540000000  0.5463980000000 1.0
C      1  0.5906760000000  0.6907630000000  0.6270040000000 1.0
C      1  0.4072250000000  0.6907440000000  0.6254950000000 1.0
C      1  0.3519140000000  0.6908020000000  0.4506070000000 1.0
C      1  0.5012280000000  0.6907300000000  0.3439430000000 1.0
C      1  0.6487790000000  0.6907000000000  0.4529720000000 1.0
C      1  0.5906800000000  0.6907450000000  0.3730010000000 1.0
C      1  0.4072190000000  0.6907350000000  0.3745120000000 1.0
C      1  0.3519210000000  0.6908190000000  0.5494050000000 1.0
C      1  0.5012270000000  0.6907370000000  0.6560620000000 1.0
C      1  0.6487750000000  0.6906970000000  0.5470350000000 1.0
END
