TITL C-1525613-7943-5473 0.42305140424475 3375 -8188.31226024047 0 0 60 (C1) n - 1
REM
REM in /home/nfs/bkarasulu/CARBON/AIRSS/Generating-Clusters/ReaxFF-fromJPCA2015/Units_Real/Try2-Higher-symm/Only-C60
REM
REM
REM
REM
REM
REM ./C.cell (863b2abdce7293c0672fb3ba77bf323a)
REM AIRSS Version 0.9.1 bugfix July 2018 build 013d7b7c2542+ Fri, 06 Jul 2018 19:26:36 +0100
REM compiler GCC version 9.2.1 20190827 (Red Hat 9.2.1-1)
REM options -cpp -mtune=generic -march=x86-64 -g -O0 -fpre-include=/usr/include/finclude/math-vector-fortran.h
REM seed 339782622 -1674906884 -985627657 -1257253380 -1572526685 -1008976445 1906526017 1781041253 616394413 1757216175 1479382685 1686826525 -799950777 -623110217 -63037290 936937803 -69024039 -1307420333 -1617689568 -470493640 -1245448095 714315849 823392613 -1761925720 -392540235 2027042068 -1237388138 2146843782 961165139 1183635985 -1975484213 -1332450499 53305095
REM
CELL 1.54180   15.00000   15.00000   15.00000   90.00000   90.00000   90.00000
LATT -1
SFAC C  
C      1  0.5492040000000  0.5050460000000  0.3281190000000 1.0
C      1  0.5418810000000  0.6625060000000  0.4574950000000 1.0
C      1  0.5415600000000  0.5903300000000  0.6393000000000 1.0
C      1  0.5436130000000  0.3694230000000  0.6249630000000 1.0
C      1  0.5459540000000  0.3431190000000  0.4250550000000 1.0
C      1  0.4543150000000  0.5178970000000  0.3238890000000 1.0
C      1  0.4495720000000  0.6635750000000  0.4572320000000 1.0
C      1  0.4438910000000  0.6002310000000  0.6281360000000 1.0
C      1  0.4447520000000  0.3864430000000  0.6310140000000 1.0
C      1  0.4542130000000  0.3458450000000  0.4386000000000 1.0
C      1  0.3193390000000  0.3646330000000  0.4444020000000 1.0
C      1  0.3214380000000  0.5928730000000  0.3706500000000 1.0
C      1  0.3130910000000  0.6396170000000  0.4673580000000 1.0
C      1  0.3188580000000  0.5523750000000  0.6715420000000 1.0
C      1  0.3140650000000  0.3520240000000  0.5405980000000 1.0
C      1  0.6858040000000  0.3776500000000  0.4430630000000 1.0
C      1  0.6834200000000  0.6019470000000  0.3774670000000 1.0
C      1  0.6805910000000  0.6472940000000  0.4726310000000 1.0
C      1  0.6746430000000  0.5490950000000  0.6656030000000 1.0
C      1  0.6902610000000  0.3593200000000  0.5417150000000 1.0
C      1  0.6181800000000  0.5267020000000  0.3984670000000 1.0
C      1  0.6020720000000  0.5878560000000  0.4883430000000 1.0
C      1  0.6111590000000  0.5310310000000  0.5861530000000 1.0
C      1  0.6132740000000  0.4295160000000  0.5631060000000 1.0
C      1  0.6049320000000  0.4323920000000  0.4607960000000 1.0
C      1  0.3872210000000  0.5227550000000  0.3971380000000 1.0
C      1  0.3941530000000  0.5844630000000  0.4868850000000 1.0
C      1  0.3801700000000  0.5357030000000  0.5892000000000 1.0
C      1  0.3796540000000  0.4247450000000  0.5677810000000 1.0
C      1  0.3981970000000  0.4225980000000  0.4568550000000 1.0
C      1  0.4117640000000  0.6939360000000  0.6035750000000 1.0
C      1  0.4494990000000  0.3934520000000  0.7288810000000 1.0
C      1  0.4485020000000  0.2538390000000  0.4711400000000 1.0
C      1  0.4467720000000  0.4407610000000  0.2591700000000 1.0
C      1  0.4489210000000  0.7266460000000  0.3770680000000 1.0
C      1  0.5857620000000  0.6742040000000  0.6330210000000 1.0
C      1  0.5470510000000  0.3872970000000  0.7270980000000 1.0
C      1  0.5431760000000  0.2556880000000  0.4893070000000 1.0
C      1  0.5419070000000  0.4193670000000  0.2745360000000 1.0
C      1  0.5466720000000  0.7264800000000  0.3777060000000 1.0
C      1  0.3788260000000  0.5408880000000  0.7502550000000 1.0
C      1  0.3446040000000  0.2643640000000  0.5862280000000 1.0
C      1  0.3505440000000  0.3217100000000  0.3566310000000 1.0
C      1  0.3639240000000  0.6311850000000  0.2916420000000 1.0
C      1  0.3359820000000  0.7040850000000  0.5346840000000 1.0
C      1  0.6320990000000  0.5360570000000  0.7542840000000 1.0
C      1  0.6648950000000  0.2712640000000  0.5793900000000 1.0
C      1  0.6634290000000  0.3326620000000  0.3557810000000 1.0
C      1  0.6278690000000  0.6369410000000  0.3117400000000 1.0
C      1  0.6521220000000  0.7238810000000  0.5212970000000 1.0
C      1  0.5503190000000  0.6850220000000  0.2869960000000 1.0
C      1  0.5787370000000  0.7577020000000  0.5888190000000 1.0
C      1  0.5546020000000  0.4753200000000  0.7701520000000 1.0
C      1  0.5637210000000  0.2722390000000  0.5830420000000 1.0
C      1  0.5700980000000  0.3394600000000  0.3252110000000 1.0
C      1  0.4477050000000  0.6872140000000  0.2869330000000 1.0
C      1  0.4839560000000  0.7492110000000  0.5909700000000 1.0
C      1  0.4531370000000  0.4811740000000  0.7739820000000 1.0
C      1  0.4342240000000  0.2375590000000  0.5640960000000 1.0
C      1  0.4197090000000  0.3613910000000  0.3028100000000 1.0
END
