TITL C-1525613-7943-7529 0.0763063956410582 3375 -8105.4983144522 0 0 60 (C2) n - 1
REM
REM in /home/nfs/bkarasulu/CARBON/AIRSS/Generating-Clusters/ReaxFF-fromJPCA2015/Units_Real/Try2-Higher-symm/Only-C60
REM
REM
REM
REM
REM
REM ./C.cell (863b2abdce7293c0672fb3ba77bf323a)
REM AIRSS Version 0.9.1 bugfix July 2018 build 013d7b7c2542+ Fri, 06 Jul 2018 19:26:36 +0100
REM compiler GCC version 9.2.1 20190827 (Red Hat 9.2.1-1)
REM options -cpp -mtune=generic -march=x86-64 -g -O0 -fpre-include=/usr/include/finclude/math-vector-fortran.h
REM seed -785425675 1921571150 -282042643 1248380894 -1850445621 294183549 1877564277 -2110606209 -1396312500 595022324 1885509381 -515323834 -1320655769 -903094548 -303793998 1112189764 -407912385 1050405436 873884123 1413677137 -2140355751 -1245775902 68387348 -1016945060 -983370655 -850919636 1309404088 670744138 -1407367472 860608949 -2020625662 1721228906 904907367
REM
CELL 1.54180   15.00000   15.00000   15.00000   90.00000   90.00000   90.00000
LATT -1
SFAC C  
C      1  0.4697870000000  0.5105700000000  0.7673280000000 1.0
C      1  0.6352570000000  0.5079380000000  0.7481680000000 1.0
C      1  0.7571370000000  0.5128010000000  0.6168150000000 1.0
C      1  0.7838160000000  0.5080930000000  0.4424140000000 1.0
C      1  0.6876160000000  0.5106590000000  0.2931350000000 1.0
C      1  0.5302160000000  0.5105550000000  0.2327600000000 1.0
C      1  0.3649050000000  0.5078500000000  0.2521040000000 1.0
C      1  0.2427650000000  0.5128090000000  0.3831800000000 1.0
C      1  0.2161350000000  0.5081470000000  0.5575510000000 1.0
C      1  0.3125910000000  0.5103910000000  0.7066890000000 1.0
C      1  0.3940450000000  0.3821440000000  0.3436780000000 1.0
C      1  0.3263090000000  0.3831580000000  0.4173300000000 1.0
C      1  0.3191010000000  0.3704760000000  0.5495480000000 1.0
C      1  0.3753860000000  0.3817640000000  0.6483920000000 1.0
C      1  0.4721460000000  0.3725290000000  0.6859600000000 1.0
C      1  0.6059150000000  0.3822730000000  0.6561090000000 1.0
C      1  0.6738170000000  0.3830340000000  0.5824580000000 1.0
C      1  0.6809490000000  0.3702910000000  0.4506800000000 1.0
C      1  0.6246890000000  0.3817450000000  0.3515370000000 1.0
C      1  0.5276860000000  0.3724220000000  0.3139410000000 1.0
C      1  0.3467310000000  0.6500860000000  0.4405270000000 1.0
C      1  0.3452360000000  0.6403640000000  0.5400790000000 1.0
C      1  0.3982810000000  0.6492720000000  0.6263850000000 1.0
C      1  0.4915260000000  0.6509090000000  0.6629220000000 1.0
C      1  0.5875020000000  0.6420280000000  0.6367330000000 1.0
C      1  0.6533550000000  0.6500840000000  0.5594950000000 1.0
C      1  0.6547460000000  0.6403650000000  0.4599270000000 1.0
C      1  0.6016980000000  0.6495050000000  0.3736580000000 1.0
C      1  0.5084700000000  0.6509130000000  0.3371040000000 1.0
C      1  0.4124960000000  0.6419950000000  0.3632250000000 1.0
C      1  0.5810160000000  0.4744740000000  0.6310540000000 1.0
C      1  0.6428970000000  0.4737360000000  0.5587550000000 1.0
C      1  0.6281160000000  0.4478190000000  0.4702720000000 1.0
C      1  0.5982310000000  0.4719090000000  0.3850220000000 1.0
C      1  0.5080860000000  0.4471500000000  0.3718010000000 1.0
C      1  0.4190530000000  0.4740760000000  0.3691700000000 1.0
C      1  0.3569410000000  0.4739130000000  0.4413240000000 1.0
C      1  0.3718430000000  0.4479680000000  0.5297870000000 1.0
C      1  0.4018690000000  0.4716170000000  0.6148750000000 1.0
C      1  0.4918990000000  0.4473110000000  0.6281410000000 1.0
C      1  0.4688130000000  0.5930530000000  0.7349710000000 1.0
C      1  0.6060390000000  0.5867490000000  0.7101290000000 1.0
C      1  0.7150440000000  0.5919240000000  0.5991340000000 1.0
C      1  0.7286970000000  0.5838650000000  0.4608960000000 1.0
C      1  0.6573600000000  0.5898650000000  0.3279590000000 1.0
C      1  0.5312570000000  0.5930110000000  0.2651140000000 1.0
C      1  0.3939850000000  0.5866400000000  0.2899140000000 1.0
C      1  0.2850040000000  0.5919480000000  0.4008740000000 1.0
C      1  0.2712690000000  0.5839050000000  0.5390960000000 1.0
C      1  0.3426760000000  0.5895690000000  0.6719090000000 1.0
C      1  0.4742810000000  0.4134560000000  0.7798850000000 1.0
C      1  0.6460010000000  0.4120450000000  0.7477000000000 1.0
C      1  0.7667450000000  0.4171910000000  0.6166990000000 1.0
C      1  0.7706730000000  0.4069950000000  0.4390270000000 1.0
C      1  0.6930240000000  0.4174030000000  0.2773500000000 1.0
C      1  0.5256940000000  0.4134110000000  0.2201060000000 1.0
C      1  0.3538820000000  0.4121370000000  0.2519980000000 1.0
C      1  0.2333290000000  0.4170590000000  0.3833870000000 1.0
C      1  0.2292870000000  0.4070460000000  0.5609430000000 1.0
C      1  0.3066790000000  0.4175840000000  0.7228750000000 1.0
END
