TITL C-1525613-7943-5761 0.151221855669728 3375 -8267.66921079168 0 0 60 (Ci) n - 1
REM
REM in /home/nfs/bkarasulu/CARBON/AIRSS/Generating-Clusters/ReaxFF-fromJPCA2015/Units_Real/Try2-Higher-symm/Only-C60
REM
REM
REM
REM
REM
REM ./C.cell (863b2abdce7293c0672fb3ba77bf323a)
REM AIRSS Version 0.9.1 bugfix July 2018 build 013d7b7c2542+ Fri, 06 Jul 2018 19:26:36 +0100
REM compiler GCC version 9.2.1 20190827 (Red Hat 9.2.1-1)
REM options -cpp -mtune=generic -march=x86-64 -g -O0 -fpre-include=/usr/include/finclude/math-vector-fortran.h
REM seed 969881045 -1466484853 -598899682 -206393922 75966260 -663685841 -847106986 612816110 -86766737 -1375638621 482064454 -2063564699 -550122078 1713444470 -1514107067 -7407458 125878638 -1229417642 1675443109 -1693059495 1840643659 1859870900 -2125616657 -1727887982 -611329570 -1904093828 1303693767 -72228627 -1016694681 457787366 756580661 -1333250880 1506358181
REM
CELL 1.54180   15.00000   15.00000   15.00000   90.00000   90.00000   90.00000
LATT -1
SFAC C  
C      1  0.5750120000000  0.4312830000000  0.2805110000000 1.0
C      1  0.4132090000000  0.5789200000000  0.2652730000000 1.0
C      1  0.5785150000000  0.7075990000000  0.3750850000000 1.0
C      1  0.4229470000000  0.7360300000000  0.5038220000000 1.0
C      1  0.5949490000000  0.6995410000000  0.6584470000000 1.0
C      1  0.4249740000000  0.5683890000000  0.7201150000000 1.0
C      1  0.5876780000000  0.4200220000000  0.7344940000000 1.0
C      1  0.4222460000000  0.2926800000000  0.6235890000000 1.0
C      1  0.5764820000000  0.2647210000000  0.4970990000000 1.0
C      1  0.4055640000000  0.3005630000000  0.3438060000000 1.0
C      1  0.3362930000000  0.3680380000000  0.3496780000000 1.0
C      1  0.6490600000000  0.4799670000000  0.3112060000000 1.0
C      1  0.3395100000000  0.5904290000000  0.3276940000000 1.0
C      1  0.6571180000000  0.6800780000000  0.4237760000000 1.0
C      1  0.3425960000000  0.6892020000000  0.5373210000000 1.0
C      1  0.6640300000000  0.6320420000000  0.6505110000000 1.0
C      1  0.3511040000000  0.5198090000000  0.6885140000000 1.0
C      1  0.6613190000000  0.4090350000000  0.6718950000000 1.0
C      1  0.3425670000000  0.3199550000000  0.5762980000000 1.0
C      1  0.6564480000000  0.3110080000000  0.4633070000000 1.0
C      1  0.4908530000000  0.4242020000000  0.7162960000000 1.0
C      1  0.4954310000000  0.3487260000000  0.6577020000000 1.0
C      1  0.4868690000000  0.2971700000000  0.4849440000000 1.0
C      1  0.5006760000000  0.3125300000000  0.3810170000000 1.0
C      1  0.5028810000000  0.3965910000000  0.3283110000000 1.0
C      1  0.5101150000000  0.5767310000000  0.2824510000000 1.0
C      1  0.5048840000000  0.6522690000000  0.3409180000000 1.0
C      1  0.5123200000000  0.7024630000000  0.5159300000000 1.0
C      1  0.4995970000000  0.6877870000000  0.6198190000000 1.0
C      1  0.4971300000000  0.6037620000000  0.6727620000000 1.0
C      1  0.4089270000000  0.2639370000000  0.5308040000000 1.0
C      1  0.5946420000000  0.2712530000000  0.4018730000000 1.0
C      1  0.4147510000000  0.3816180000000  0.2931480000000 1.0
C      1  0.5801730000000  0.5195560000000  0.2595170000000 1.0
C      1  0.4075810000000  0.6595810000000  0.3219840000000 1.0
C      1  0.5897630000000  0.7351980000000  0.4684370000000 1.0
C      1  0.4045720000000  0.7288370000000  0.5988600000000 1.0
C      1  0.5857650000000  0.6173780000000  0.7074650000000 1.0
C      1  0.4198420000000  0.4800030000000  0.7399020000000 1.0
C      1  0.5925890000000  0.3404410000000  0.6763620000000 1.0
C      1  0.2195550000000  0.5191080000000  0.5802370000000 1.0
C      1  0.7849180000000  0.4688990000000  0.5740280000000 1.0
C      1  0.2225620000000  0.4309430000000  0.5426140000000 1.0
C      1  0.7751140000000  0.4211150000000  0.4936930000000 1.0
C      1  0.2146470000000  0.4350800000000  0.4491590000000 1.0
C      1  0.7803330000000  0.4810890000000  0.4195940000000 1.0
C      1  0.2150520000000  0.5313390000000  0.4258700000000 1.0
C      1  0.7769190000000  0.5692110000000  0.4573930000000 1.0
C      1  0.2249740000000  0.5790060000000  0.5061730000000 1.0
C      1  0.7854090000000  0.5651480000000  0.5508170000000 1.0
C      1  0.6803070000000  0.4904500000000  0.4038950000000 1.0
C      1  0.3129210000000  0.5418260000000  0.4099360000000 1.0
C      1  0.6849340000000  0.5914160000000  0.4592780000000 1.0
C      1  0.3177390000000  0.5942500000000  0.5178690000000 1.0
C      1  0.6893140000000  0.5700570000000  0.5777800000000 1.0
C      1  0.3196690000000  0.5093520000000  0.5958230000000 1.0
C      1  0.6871120000000  0.4581640000000  0.5899880000000 1.0
C      1  0.3145430000000  0.4083270000000  0.5410970000000 1.0
C      1  0.6823570000000  0.4057100000000  0.4819130000000 1.0
C      1  0.3106400000000  0.4301670000000  0.4219040000000 1.0
END
