TITL C-1525613-7943-1170 -0.0525384143596151 3375 -8750.70889181611 0 0 60 (D5) n - 1
REM
REM in /home/nfs/bkarasulu/CARBON/AIRSS/Generating-Clusters/ReaxFF-fromJPCA2015/Units_Real/Try2-Higher-symm/Only-C60
REM
REM
REM
REM
REM
REM ./C.cell (863b2abdce7293c0672fb3ba77bf323a)
REM AIRSS Version 0.9.1 bugfix July 2018 build 013d7b7c2542+ Fri, 06 Jul 2018 19:26:36 +0100
REM compiler GCC version 9.2.1 20190827 (Red Hat 9.2.1-1)
REM options -cpp -mtune=generic -march=x86-64 -g -O0 -fpre-include=/usr/include/finclude/math-vector-fortran.h
REM seed 311105572 -1999245253 -1701587921 -83001671 -175172968 -521823096 -1065903089 -56701265 -1935885530 1308408938 1912241597 -1695810625 175635070 498253751 590234250 -232334924 71777942 1773843831 -579999691 -1641793392 -1165177213 -1222126258 1604988824 1613152719 -1908391077 -1562826938 1353262012 1685057519 -1527166832 281780192 1235828009 273387659 -501808234
REM
CELL 1.54180   15.00000   15.00000   15.00000   90.00000   90.00000   90.00000
LATT -1
SFAC C  
C      1  0.6192340000000  0.6833180000000  0.2390240000000 1.0
C      1  0.2886830000000  0.6827410000000  0.3051430000000 1.0
C      1  0.2497770000000  0.6834830000000  0.6403950000000 1.0
C      1  0.5567920000000  0.6827040000000  0.7818770000000 1.0
C      1  0.7856550000000  0.6827830000000  0.5332320000000 1.0
C      1  0.6192340000000  0.3166820000000  0.7609760000000 1.0
C      1  0.2886830000000  0.3172590000000  0.6948570000000 1.0
C      1  0.2497770000000  0.3165170000000  0.3596050000000 1.0
C      1  0.5567920000000  0.3172960000000  0.2181230000000 1.0
C      1  0.7856550000000  0.3172170000000  0.4667680000000 1.0
C      1  0.2602980000000  0.4762070000000  0.6237460000000 1.0
C      1  0.5434870000000  0.4760430000000  0.7662090000000 1.0
C      1  0.7664900000000  0.4760540000000  0.5408050000000 1.0
C      1  0.6210440000000  0.4763100000000  0.2589420000000 1.0
C      1  0.3080830000000  0.4757420000000  0.3103380000000 1.0
C      1  0.2602980000000  0.5237930000000  0.3762550000000 1.0
C      1  0.5434870000000  0.5239570000000  0.2337910000000 1.0
C      1  0.7664890000000  0.5239460000000  0.4591950000000 1.0
C      1  0.6210440000000  0.5236900000000  0.7410570000000 1.0
C      1  0.3080830000000  0.5242580000000  0.6896620000000 1.0
C      1  0.5002250000000  0.6084800000000  0.6814600000000 1.0
C      1  0.6726220000000  0.6083210000000  0.5559230000000 1.0
C      1  0.6064190000000  0.6087320000000  0.3533660000000 1.0
C      1  0.3933870000000  0.6085390000000  0.3532320000000 1.0
C      1  0.3276530000000  0.6089180000000  0.5559130000000 1.0
C      1  0.5002250000000  0.3915200000000  0.3185400000000 1.0
C      1  0.6726220000000  0.3916790000000  0.4440770000000 1.0
C      1  0.6064190000000  0.3912680000000  0.6466340000000 1.0
C      1  0.3933870000000  0.3914610000000  0.6467680000000 1.0
C      1  0.3276530000000  0.3910820000000  0.4440870000000 1.0
C      1  0.4706700000000  0.4746210000000  0.2731470000000 1.0
C      1  0.2757110000000  0.4745780000000  0.4577640000000 1.0
C      1  0.3903130000000  0.4748760000000  0.7005390000000 1.0
C      1  0.6568480000000  0.4744340000000  0.6663070000000 1.0
C      1  0.7066020000000  0.4746750000000  0.4018630000000 1.0
C      1  0.4706700000000  0.5253790000000  0.7268530000000 1.0
C      1  0.2757110000000  0.5254210000000  0.5422360000000 1.0
C      1  0.3903130000000  0.5251240000000  0.2994610000000 1.0
C      1  0.6568480000000  0.5255660000000  0.3336940000000 1.0
C      1  0.7066020000000  0.5253250000000  0.5981370000000 1.0
C      1  0.5916950000000  0.6232970000000  0.7253810000000 1.0
C      1  0.7425810000000  0.6236070000000  0.4825080000000 1.0
C      1  0.5580460000000  0.6235190000000  0.2640790000000 1.0
C      1  0.2935660000000  0.6232980000000  0.3714050000000 1.0
C      1  0.3138790000000  0.6237440000000  0.6564340000000 1.0
C      1  0.5916950000000  0.3767030000000  0.2746190000000 1.0
C      1  0.7425810000000  0.3763930000000  0.5174920000000 1.0
C      1  0.5580470000000  0.3764810000000  0.7359210000000 1.0
C      1  0.2935660000000  0.3767020000000  0.6285950000000 1.0
C      1  0.3138790000000  0.3762560000000  0.3435660000000 1.0
C      1  0.5789950000000  0.6155890000000  0.5268380000000 1.0
C      1  0.5497310000000  0.6156550000000  0.4332980000000 1.0
C      1  0.4518770000000  0.6156730000000  0.4320020000000 1.0
C      1  0.4205930000000  0.6159280000000  0.5247470000000 1.0
C      1  0.4990470000000  0.6156560000000  0.5833960000000 1.0
C      1  0.5789950000000  0.3844110000000  0.4731620000000 1.0
C      1  0.5497310000000  0.3843450000000  0.5667020000000 1.0
C      1  0.4518770000000  0.3843270000000  0.5679980000000 1.0
C      1  0.4205930000000  0.3840720000000  0.4752520000000 1.0
C      1  0.4990470000000  0.3843440000000  0.4166040000000 1.0
END
