TITL C-1525613-7943-5402 0.00426820356204684 3375 -9049.55162431692 0 0 60 (C1) n - 1
REM
REM in /home/nfs/bkarasulu/CARBON/AIRSS/Generating-Clusters/ReaxFF-fromJPCA2015/Units_Real/Try2-Higher-symm/Only-C60
REM
REM
REM
REM
REM
REM ./C.cell (863b2abdce7293c0672fb3ba77bf323a)
REM AIRSS Version 0.9.1 bugfix July 2018 build 013d7b7c2542+ Fri, 06 Jul 2018 19:26:36 +0100
REM compiler GCC version 9.2.1 20190827 (Red Hat 9.2.1-1)
REM options -cpp -mtune=generic -march=x86-64 -g -O0 -fpre-include=/usr/include/finclude/math-vector-fortran.h
REM seed 421255869 -1304264532 1887985824 430287286 -2144566363 -1687911177 -844924221 -301599813 77660424 -734133688 -1343155122 -1093875836 1048435075 2126788452 -993631889 -266130388 1743258731 -1032610975 822426455 -276715326 418381691 1941645497 970927112 -553366497 -458925107 -1157529829 -151317969 1989874241 -119409613 -2028203947 -669345868 -740729243 -1154797909
REM
CELL 1.54180   15.00000   15.00000   15.00000   90.00000   90.00000   90.00000
LATT -1
SFAC C  
C      1  0.3532170000000  0.2961300000000  0.4956540000000 1.0
C      1  0.3987200000000  0.2957160000000  0.5637390000000 1.0
C      1  0.4587730000000  0.3074440000000  0.6228200000000 1.0
C      1  0.5302770000000  0.3281260000000  0.6767340000000 1.0
C      1  0.5931050000000  0.3414170000000  0.6055760000000 1.0
C      1  0.6220890000000  0.3583120000000  0.5346430000000 1.0
C      1  0.5724230000000  0.3741460000000  0.4698130000000 1.0
C      1  0.5077970000000  0.3851230000000  0.4155760000000 1.0
C      1  0.4302580000000  0.3867480000000  0.3749900000000 1.0
C      1  0.3779670000000  0.3364220000000  0.4299010000000 1.0
C      1  0.6194980000000  0.5959000000000  0.2956200000000 1.0
C      1  0.4761720000000  0.5877410000000  0.2739520000000 1.0
C      1  0.3475200000000  0.6078340000000  0.3192870000000 1.0
C      1  0.2765970000000  0.5947420000000  0.4416590000000 1.0
C      1  0.2822380000000  0.5962410000000  0.5868550000000 1.0
C      1  0.3767240000000  0.5917520000000  0.6993240000000 1.0
C      1  0.5212950000000  0.5905430000000  0.7353830000000 1.0
C      1  0.6578720000000  0.5830700000000  0.6738070000000 1.0
C      1  0.7316800000000  0.5941210000000  0.5480750000000 1.0
C      1  0.7183820000000  0.5988310000000  0.4027330000000 1.0
C      1  0.2974800000000  0.4055410000000  0.2729270000000 1.0
C      1  0.2107270000000  0.4181830000000  0.4250670000000 1.0
C      1  0.2262710000000  0.4160010000000  0.6026070000000 1.0
C      1  0.3464160000000  0.4104320000000  0.7335630000000 1.0
C      1  0.5983070000000  0.4499580000000  0.7747190000000 1.0
C      1  0.7941140000000  0.4125920000000  0.7129250000000 1.0
C      1  0.8136350000000  0.4183700000000  0.5450840000000 1.0
C      1  0.7722040000000  0.4161630000000  0.3747400000000 1.0
C      1  0.6466450000000  0.4109930000000  0.2519120000000 1.0
C      1  0.4731660000000  0.4079110000000  0.2152060000000 1.0
C      1  0.7350930000000  0.5505740000000  0.6314340000000 1.0
C      1  0.7687900000000  0.5585660000000  0.4688430000000 1.0
C      1  0.6997620000000  0.5567040000000  0.3212980000000 1.0
C      1  0.5557310000000  0.5505250000000  0.2444570000000 1.0
C      1  0.3935490000000  0.5443160000000  0.2743720000000 1.0
C      1  0.2814710000000  0.5556580000000  0.3551610000000 1.0
C      1  0.2369370000000  0.5560360000000  0.5156900000000 1.0
C      1  0.2953100000000  0.5534580000000  0.6682360000000 1.0
C      1  0.4387860000000  0.5451380000000  0.7559970000000 1.0
C      1  0.6069710000000  0.5474180000000  0.7499460000000 1.0
C      1  0.5608900000000  0.4517410000000  0.2227900000000 1.0
C      1  0.3982730000000  0.4356830000000  0.2780480000000 1.0
C      1  0.2526720000000  0.4551710000000  0.3429760000000 1.0
C      1  0.2101380000000  0.4605410000000  0.5150480000000 1.0
C      1  0.2764830000000  0.4568560000000  0.6778470000000 1.0
C      1  0.4325460000000  0.4465730000000  0.7618930000000 1.0
C      1  0.5199070000000  0.3963090000000  0.7522410000000 1.0
C      1  0.7851510000000  0.4583430000000  0.6369220000000 1.0
C      1  0.7969880000000  0.4624170000000  0.4618260000000 1.0
C      1  0.7149270000000  0.4578230000000  0.3074480000000 1.0
C      1  0.3572010000000  0.6493450000000  0.5594010000000 1.0
C      1  0.4207300000000  0.6456500000000  0.6315930000000 1.0
C      1  0.5146590000000  0.6428760000000  0.6531580000000 1.0
C      1  0.6022520000000  0.6376510000000  0.6138660000000 1.0
C      1  0.6510710000000  0.6453340000000  0.5321990000000 1.0
C      1  0.6445050000000  0.6499350000000  0.4368860000000 1.0
C      1  0.5811790000000  0.6514770000000  0.3643710000000 1.0
C      1  0.4871640000000  0.6488290000000  0.3462100000000 1.0
C      1  0.3991490000000  0.6615620000000  0.3814440000000 1.0
C      1  0.3501460000000  0.6509880000000  0.4635080000000 1.0
END
