TITL C-1525613-7943-3958 0.000632803197141209 3375 -9594.07153970819 0 0 60 (Ci) n - 1
REM
REM in /home/nfs/bkarasulu/CARBON/AIRSS/Generating-Clusters/ReaxFF-fromJPCA2015/Units_Real/Try2-Higher-symm/Only-C60
REM
REM
REM
REM
REM
REM ./C.cell (863b2abdce7293c0672fb3ba77bf323a)
REM AIRSS Version 0.9.1 bugfix July 2018 build 013d7b7c2542+ Fri, 06 Jul 2018 19:26:36 +0100
REM compiler GCC version 9.2.1 20190827 (Red Hat 9.2.1-1)
REM options -cpp -mtune=generic -march=x86-64 -g -O0 -fpre-include=/usr/include/finclude/math-vector-fortran.h
REM seed -1649509861 934758607 300850229 1850534163 -2088833497 -417549799 6686623 1430759835 800464197 1395580672 273610626 -1511177404 -1477468431 -1500193133 -155754937 -1147417759 623391564 -1846771224 1494717647 889501983 112550846 -750166381 326966730 1572467169 1465323803 -49337486 -390935694 493103807 -1870663306 1686091440 -209086223 -1629871027 1417636721
REM
CELL 1.54180   15.00000   15.00000   15.00000   90.00000   90.00000   90.00000
LATT -1
SFAC C  
C      1  0.6387570000000  0.5360430000000  0.2808530000000 1.0
C      1  0.4884860000000  0.4604300000000  0.2659020000000 1.0
C      1  0.3524680000000  0.5426780000000  0.3142520000000 1.0
C      1  0.2782120000000  0.4556420000000  0.4404590000000 1.0
C      1  0.2887630000000  0.5339640000000  0.5860810000000 1.0
C      1  0.3612430000000  0.4639560000000  0.7191470000000 1.0
C      1  0.5115140000000  0.5395700000000  0.7340980000000 1.0
C      1  0.6475330000000  0.4573220000000  0.6857480000000 1.0
C      1  0.7217880000000  0.5443580000000  0.5595410000000 1.0
C      1  0.7112370000000  0.4660360000000  0.4139190000000 1.0
C      1  0.4269040000000  0.7167550000000  0.5106550000000 1.0
C      1  0.4344140000000  0.2462810000000  0.5393040000000 1.0
C      1  0.4883150000000  0.7221570000000  0.5845100000000 1.0
C      1  0.5232380000000  0.2639000000000  0.5714580000000 1.0
C      1  0.5750070000000  0.7366140000000  0.5503400000000 1.0
C      1  0.5730960000000  0.2832440000000  0.4893450000000 1.0
C      1  0.5655860000000  0.7537190000000  0.4606960000000 1.0
C      1  0.5116850000000  0.2778430000000  0.4154900000000 1.0
C      1  0.4767620000000  0.7361000000000  0.4285420000000 1.0
C      1  0.4249930000000  0.2633860000000  0.4496600000000 1.0
C      1  0.3309890000000  0.6197160000000  0.6052130000000 1.0
C      1  0.4105730000000  0.3891350000000  0.7632620000000 1.0
C      1  0.5470610000000  0.6220440000000  0.6995320000000 1.0
C      1  0.6856140000000  0.3752040000000  0.6432870000000 1.0
C      1  0.6937640000000  0.6257490000000  0.5146750000000 1.0
C      1  0.6690110000000  0.3802840000000  0.3947870000000 1.0
C      1  0.5894270000000  0.6108650000000  0.2367370000000 1.0
C      1  0.4529390000000  0.3779560000000  0.3004680000000 1.0
C      1  0.3143850000000  0.6247970000000  0.3567130000000 1.0
C      1  0.3062360000000  0.3742510000000  0.4853250000000 1.0
C      1  0.5165500000000  0.6795690000000  0.3583580000000 1.0
C      1  0.3557110000000  0.3218850000000  0.4211300000000 1.0
C      1  0.3444850000000  0.6696030000000  0.5236450000000 1.0
C      1  0.3944160000000  0.3038300000000  0.6040980000000 1.0
C      1  0.4762810000000  0.6728600000000  0.6639510000000 1.0
C      1  0.4834500000000  0.3204310000000  0.6416420000000 1.0
C      1  0.6442890000000  0.6781150000000  0.5788700000000 1.0
C      1  0.6555150000000  0.3303970000000  0.4763550000000 1.0
C      1  0.6055840000000  0.6961700000000  0.3959020000000 1.0
C      1  0.5237190000000  0.3271400000000  0.3360490000000 1.0
C      1  0.5575750000000  0.4555680000000  0.7244850000000 1.0
C      1  0.6801200000000  0.5417150000000  0.6467940000000 1.0
C      1  0.7336510000000  0.4638230000000  0.5076970000000 1.0
C      1  0.6845000000000  0.5477090000000  0.3683150000000 1.0
C      1  0.5849100000000  0.4544230000000  0.2719960000000 1.0
C      1  0.4424250000000  0.5444320000000  0.2755150000000 1.0
C      1  0.3198800000000  0.4582850000000  0.3532070000000 1.0
C      1  0.2663490000000  0.5361770000000  0.4923030000000 1.0
C      1  0.3155000000000  0.4522910000000  0.6316850000000 1.0
C      1  0.4150900000000  0.5455770000000  0.7280040000000 1.0
C      1  0.3948470000000  0.6249160000000  0.6775260000000 1.0
C      1  0.5006030000000  0.3746170000000  0.7222200000000 1.0
C      1  0.6316800000000  0.6235290000000  0.6569650000000 1.0
C      1  0.7076810000000  0.3765760000000  0.5466930000000 1.0
C      1  0.6709270000000  0.6270620000000  0.4209060000000 1.0
C      1  0.6051530000000  0.3750840000000  0.3224740000000 1.0
C      1  0.4993960000000  0.6253830000000  0.2777810000000 1.0
C      1  0.3683200000000  0.3764710000000  0.3430350000000 1.0
C      1  0.2923190000000  0.6234240000000  0.4533080000000 1.0
C      1  0.3290730000000  0.3729380000000  0.5790940000000 1.0
END
