TITL C-1525613-7943-3975 -0.000254016730115282 3375 -9852.5725235406 0 0 60 (D5) n - 1
REM
REM in /home/nfs/bkarasulu/CARBON/AIRSS/Generating-Clusters/ReaxFF-fromJPCA2015/Units_Real/Try2-Higher-symm/Only-C60
REM
REM
REM
REM
REM
REM ./C.cell (863b2abdce7293c0672fb3ba77bf323a)
REM AIRSS Version 0.9.1 bugfix July 2018 build 013d7b7c2542+ Fri, 06 Jul 2018 19:26:36 +0100
REM compiler GCC version 9.2.1 20190827 (Red Hat 9.2.1-1)
REM options -cpp -mtune=generic -march=x86-64 -g -O0 -fpre-include=/usr/include/finclude/math-vector-fortran.h
REM seed 1507204212 2144425606 1603875690 1597308163 1283139782 -1145717626 -1571308963 -1047950672 585978372 -682556074 1649126843 -1726720647 1846840643 422261131 -492150619 262602588 -1860391670 1630788844 1736186934 -903976916 -1802629605 1804728831 1617634789 1037812383 -348506830 -189842480 -617678203 1562737681 1399492729 213480573 -2058334031 -1590780028 1650317470
REM
CELL 1.54180   15.00000   15.00000   15.00000   90.00000   90.00000   90.00000
LATT -1
SFAC C  
C      1  0.6911270000000  0.5728400000000  0.5359010000000 1.0
C      1  0.6906830000000  0.5577340000000  0.4422230000000 1.0
C      1  0.6904420000000  0.4640040000000  0.4272720000000 1.0
C      1  0.6905650000000  0.4203930000000  0.5115500000000 1.0
C      1  0.6914590000000  0.4877390000000  0.5793420000000 1.0
C      1  0.3094790000000  0.5717920000000  0.4625730000000 1.0
C      1  0.3094840000000  0.5575300000000  0.5563880000000 1.0
C      1  0.3086500000000  0.4631980000000  0.5716420000000 1.0
C      1  0.3088890000000  0.4198890000000  0.4864730000000 1.0
C      1  0.3092180000000  0.4871780000000  0.4195700000000 1.0
C      1  0.3934310000000  0.6949020000000  0.5788840000000 1.0
C      1  0.3925000000000  0.6358220000000  0.3382920000000 1.0
C      1  0.3925400000000  0.3886400000000  0.3202830000000 1.0
C      1  0.3920090000000  0.2944580000000  0.5501330000000 1.0
C      1  0.3923740000000  0.4846880000000  0.7114130000000 1.0
C      1  0.6072740000000  0.6957790000000  0.4199370000000 1.0
C      1  0.6081430000000  0.6368520000000  0.6612420000000 1.0
C      1  0.6079070000000  0.3881550000000  0.6798890000000 1.0
C      1  0.6065890000000  0.2960030000000  0.4491040000000 1.0
C      1  0.6072320000000  0.4852280000000  0.2892010000000 1.0
C      1  0.5268180000000  0.3160950000000  0.3195900000000 1.0
C      1  0.5288340000000  0.2673910000000  0.6205620000000 1.0
C      1  0.5292740000000  0.5437200000000  0.7591230000000 1.0
C      1  0.5279240000000  0.7560900000000  0.5368530000000 1.0
C      1  0.5273750000000  0.6145870000000  0.2682890000000 1.0
C      1  0.4710440000000  0.3122960000000  0.6839600000000 1.0
C      1  0.4720150000000  0.2711550000000  0.3793080000000 1.0
C      1  0.4722750000000  0.5435000000000  0.2452270000000 1.0
C      1  0.4730250000000  0.7548170000000  0.4621950000000 1.0
C      1  0.4714220000000  0.6172900000000  0.7343070000000 1.0
C      1  0.3910510000000  0.7116400000000  0.4842350000000 1.0
C      1  0.3901790000000  0.5511150000000  0.2929880000000 1.0
C      1  0.3897930000000  0.3191780000000  0.3869960000000 1.0
C      1  0.3889350000000  0.3356430000000  0.6373600000000 1.0
C      1  0.3897960000000  0.5800730000000  0.6972040000000 1.0
C      1  0.6101370000000  0.7127560000000  0.5147350000000 1.0
C      1  0.6113130000000  0.5522600000000  0.7075930000000 1.0
C      1  0.6104270000000  0.3193440000000  0.6123190000000 1.0
C      1  0.6088390000000  0.3381020000000  0.3626940000000 1.0
C      1  0.6095300000000  0.5803860000000  0.3023440000000 1.0
C      1  0.6481210000000  0.6179270000000  0.3820760000000 1.0
C      1  0.6477760000000  0.4255390000000  0.3514540000000 1.0
C      1  0.6475290000000  0.3366080000000  0.5250730000000 1.0
C      1  0.6490400000000  0.4742980000000  0.6646720000000 1.0
C      1  0.6485530000000  0.6484190000000  0.5747860000000 1.0
C      1  0.3525730000000  0.6173790000000  0.6165250000000 1.0
C      1  0.3511850000000  0.4239280000000  0.6485180000000 1.0
C      1  0.3514810000000  0.3359070000000  0.4734450000000 1.0
C      1  0.3516760000000  0.4738590000000  0.3354730000000 1.0
C      1  0.3520630000000  0.6474960000000  0.4237940000000 1.0
C      1  0.4775280000000  0.7278990000000  0.6124240000000 1.0
C      1  0.4772740000000  0.6780150000000  0.3186880000000 1.0
C      1  0.4773760000000  0.3822960000000  0.2756120000000 1.0
C      1  0.4764860000000  0.2479080000000  0.5416250000000 1.0
C      1  0.4770370000000  0.4622170000000  0.7539520000000 1.0
C      1  0.5223820000000  0.7271340000000  0.3876380000000 1.0
C      1  0.5236750000000  0.6794750000000  0.6818320000000 1.0
C      1  0.5233090000000  0.3812920000000  0.7276200000000 1.0
C      1  0.5225220000000  0.2495560000000  0.4569490000000 1.0
C      1  0.5224150000000  0.4625830000000  0.2486470000000 1.0
END
