TITL C-1525613-7943-2748 0.0321236778403209 3375 -8752.51670316778 0 0 60 (C5) n - 1
REM
REM in /home/nfs/bkarasulu/CARBON/AIRSS/Generating-Clusters/ReaxFF-fromJPCA2015/Units_Real/Try2-Higher-symm/Only-C60
REM
REM
REM
REM
REM
REM ./C.cell (863b2abdce7293c0672fb3ba77bf323a)
REM AIRSS Version 0.9.1 bugfix July 2018 build 013d7b7c2542+ Fri, 06 Jul 2018 19:26:36 +0100
REM compiler GCC version 9.2.1 20190827 (Red Hat 9.2.1-1)
REM options -cpp -mtune=generic -march=x86-64 -g -O0 -fpre-include=/usr/include/finclude/math-vector-fortran.h
REM seed 1595509347 -1269387150 -1803925375 -209949021 1623067077 -286150761 -931601366 1782089860 -610109502 1404856240 1375241785 -1241073043 1026822891 -1457764147 -1638069806 1014981519 -27456975 -959654711 2008971764 811134121 1379015798 868106332 -1940196661 -173089945 2108510635 1374974642 -1194918246 1514334240 812383194 -1569438467 1085154151 -1071071067 -1607043582
REM
CELL 1.54180   15.00000   15.00000   15.00000   90.00000   90.00000   90.00000
LATT -1
SFAC C  
C      1  0.4000350000000  0.6552540000000  0.4061530000000 1.0
C      1  0.3208620000000  0.4527350000000  0.4057160000000 1.0
C      1  0.4896590000000  0.3150060000000  0.4057870000000 1.0
C      1  0.6722190000000  0.4334210000000  0.4061800000000 1.0
C      1  0.6163410000000  0.6427300000000  0.4064750000000 1.0
C      1  0.4000350000000  0.6552540000000  0.5938470000000 1.0
C      1  0.3208620000000  0.4527350000000  0.5942840000000 1.0
C      1  0.4896590000000  0.3150060000000  0.5942130000000 1.0
C      1  0.6722190000000  0.4334210000000  0.5938200000000 1.0
C      1  0.6163410000000  0.6427300000000  0.5935250000000 1.0
C      1  0.3467040000000  0.4689800000000  0.3094400000000 1.0
C      1  0.4821570000000  0.3445520000000  0.3094710000000 1.0
C      1  0.6421550000000  0.4349730000000  0.3097000000000 1.0
C      1  0.6056950000000  0.6149440000000  0.3098660000000 1.0
C      1  0.4232550000000  0.6361200000000  0.3097020000000 1.0
C      1  0.3467040000000  0.4689800000000  0.6905600000000 1.0
C      1  0.4821570000000  0.3445520000000  0.6905290000000 1.0
C      1  0.6421550000000  0.4349730000000  0.6903000000000 1.0
C      1  0.6056950000000  0.6149440000000  0.6901340000000 1.0
C      1  0.4232550000000  0.6361200000000  0.6902980000000 1.0
C      1  0.3954910000000  0.2999650000000  0.5476390000000 1.0
C      1  0.6578310000000  0.3387110000000  0.5476220000000 1.0
C      1  0.7023430000000  0.6003870000000  0.5476250000000 1.0
C      1  0.4670050000000  0.7236690000000  0.5476370000000 1.0
C      1  0.2772140000000  0.5376430000000  0.5476400000000 1.0
C      1  0.3954910000000  0.2999650000000  0.4523610000000 1.0
C      1  0.6578310000000  0.3387110000000  0.4523780000000 1.0
C      1  0.7023430000000  0.6003870000000  0.4523750000000 1.0
C      1  0.4670050000000  0.7236690000000  0.4523630000000 1.0
C      1  0.2772140000000  0.5376430000000  0.4523600000000 1.0
C      1  0.3913380000000  0.3817040000000  0.3089560000000 1.0
C      1  0.5789660000000  0.3599900000000  0.3087720000000 1.0
C      1  0.6575910000000  0.5317700000000  0.3088590000000 1.0
C      1  0.5184800000000  0.6596020000000  0.3090360000000 1.0
C      1  0.3539580000000  0.5668280000000  0.3090700000000 1.0
C      1  0.3913380000000  0.3817040000000  0.6910440000000 1.0
C      1  0.5789660000000  0.3599900000000  0.6912280000000 1.0
C      1  0.6575910000000  0.5317700000000  0.6911410000000 1.0
C      1  0.5184800000000  0.6596020000000  0.6909640000000 1.0
C      1  0.3539580000000  0.5668280000000  0.6909300000000 1.0
C      1  0.5527550000000  0.5671200000000  0.4492560000000 1.0
C      1  0.4528450000000  0.5711870000000  0.4488610000000 1.0
C      1  0.4177320000000  0.4769990000000  0.4482870000000 1.0
C      1  0.4968810000000  0.4146820000000  0.4482090000000 1.0
C      1  0.5802460000000  0.4709660000000  0.4488390000000 1.0
C      1  0.5527550000000  0.5671200000000  0.5507440000000 1.0
C      1  0.4528450000000  0.5711870000000  0.5511390000000 1.0
C      1  0.4177320000000  0.4769990000000  0.5517130000000 1.0
C      1  0.4968810000000  0.4146820000000  0.5517910000000 1.0
C      1  0.5802460000000  0.4709660000000  0.5511610000000 1.0
C      1  0.3435690000000  0.3533740000000  0.3903330000000 1.0
C      1  0.5911640000000  0.3058380000000  0.3902080000000 1.0
C      1  0.7129120000000  0.5267770000000  0.3902560000000 1.0
C      1  0.5403540000000  0.7106210000000  0.3904410000000 1.0
C      1  0.3122420000000  0.6034530000000  0.3904610000000 1.0
C      1  0.3435690000000  0.3533740000000  0.6096670000000 1.0
C      1  0.5911640000000  0.3058380000000  0.6097920000000 1.0
C      1  0.7129120000000  0.5267770000000  0.6097440000000 1.0
C      1  0.5403540000000  0.7106210000000  0.6095590000000 1.0
C      1  0.3122420000000  0.6034530000000  0.6095390000000 1.0
END
