TITL C-1525613-7943-3425 0.0666050175075736 3375 -8719.81551570093 0 0 60 (C1) n - 1
REM
REM in /home/nfs/bkarasulu/CARBON/AIRSS/Generating-Clusters/ReaxFF-fromJPCA2015/Units_Real/Try2-Higher-symm/Only-C60
REM
REM
REM
REM
REM
REM ./C.cell (863b2abdce7293c0672fb3ba77bf323a)
REM AIRSS Version 0.9.1 bugfix July 2018 build 013d7b7c2542+ Fri, 06 Jul 2018 19:26:36 +0100
REM compiler GCC version 9.2.1 20190827 (Red Hat 9.2.1-1)
REM options -cpp -mtune=generic -march=x86-64 -g -O0 -fpre-include=/usr/include/finclude/math-vector-fortran.h
REM seed -795620865 590162923 1146044415 702541831 1222239822 664514949 -1060171351 -371271288 -1651015158 -43821896 1614498374 1432772197 -873981116 -398864564 -1583376376 -1064876865 105531543 1858128405 -1990640831 -1051663386 -2038440289 -731716447 316300785 -1459018339 539196328 -1341556090 547909465 -1657979243 -621385687 -1271058500 -1281748522 -1579456996 1424312621
REM
CELL 1.54180   15.00000   15.00000   15.00000   90.00000   90.00000   90.00000
LATT -1
SFAC C  
C      1  0.7107150000000  0.3807700000000  0.5383710000000 1.0
C      1  0.5836880000000  0.3951150000000  0.3104850000000 1.0
C      1  0.3318320000000  0.3221680000000  0.3630020000000 1.0
C      1  0.3290570000000  0.3134860000000  0.5871780000000 1.0
C      1  0.5359000000000  0.3219870000000  0.6832440000000 1.0
C      1  0.7147240000000  0.6045240000000  0.5429700000000 1.0
C      1  0.5881930000000  0.6113480000000  0.3089310000000 1.0
C      1  0.3269840000000  0.6704910000000  0.3547790000000 1.0
C      1  0.3296420000000  0.6799700000000  0.5788150000000 1.0
C      1  0.5214630000000  0.6846450000000  0.6976410000000 1.0
C      1  0.4839720000000  0.4511670000000  0.1931350000000 1.0
C      1  0.2156490000000  0.4398530000000  0.4051770000000 1.0
C      1  0.3154270000000  0.4409330000000  0.7022940000000 1.0
C      1  0.6216560000000  0.4490390000000  0.7745660000000 1.0
C      1  0.8179990000000  0.4441810000000  0.4210550000000 1.0
C      1  0.4835680000000  0.5508290000000  0.1906030000000 1.0
C      1  0.2167090000000  0.5483950000000  0.4016080000000 1.0
C      1  0.3150690000000  0.5557990000000  0.6982380000000 1.0
C      1  0.6214190000000  0.5615270000000  0.7834560000000 1.0
C      1  0.8167540000000  0.5437630000000  0.4233760000000 1.0
C      1  0.6868670000000  0.4637800000000  0.7047970000000 1.0
C      1  0.7465250000000  0.4454120000000  0.3519950000000 1.0
C      1  0.4092930000000  0.4521500000000  0.2599810000000 1.0
C      1  0.2590860000000  0.4484520000000  0.4923620000000 1.0
C      1  0.4118020000000  0.4512020000000  0.7018710000000 1.0
C      1  0.6907990000000  0.5594330000000  0.7139930000000 1.0
C      1  0.7450080000000  0.5441510000000  0.3543700000000 1.0
C      1  0.4085840000000  0.5510370000000  0.2557760000000 1.0
C      1  0.2617740000000  0.5441020000000  0.4884660000000 1.0
C      1  0.4113190000000  0.5461200000000  0.7008040000000 1.0
C      1  0.4123070000000  0.6228900000000  0.3256660000000 1.0
C      1  0.3407960000000  0.6048440000000  0.5134590000000 1.0
C      1  0.4736890000000  0.6111660000000  0.6487630000000 1.0
C      1  0.6819800000000  0.6248630000000  0.6366190000000 1.0
C      1  0.6674220000000  0.6028840000000  0.3700540000000 1.0
C      1  0.4099890000000  0.3870930000000  0.3386200000000 1.0
C      1  0.3371260000000  0.3884110000000  0.5208160000000 1.0
C      1  0.4730740000000  0.3907170000000  0.6434890000000 1.0
C      1  0.6627130000000  0.4144690000000  0.6175970000000 1.0
C      1  0.6698930000000  0.3844880000000  0.3668950000000 1.0
C      1  0.3508940000000  0.6658060000000  0.4441460000000 1.0
C      1  0.4189460000000  0.6731470000000  0.6080970000000 1.0
C      1  0.6021530000000  0.6685460000000  0.6527030000000 1.0
C      1  0.6628170000000  0.6333760000000  0.4643140000000 1.0
C      1  0.5055390000000  0.6542680000000  0.3413980000000 1.0
C      1  0.3516000000000  0.3274110000000  0.4527680000000 1.0
C      1  0.4194820000000  0.3219380000000  0.6123280000000 1.0
C      1  0.6021290000000  0.3473990000000  0.6210880000000 1.0
C      1  0.6645340000000  0.3451480000000  0.4554780000000 1.0
C      1  0.4993210000000  0.3796110000000  0.3376530000000 1.0
C      1  0.2427510000000  0.3667150000000  0.3455060000000 1.0
C      1  0.2759620000000  0.3644350000000  0.6623500000000 1.0
C      1  0.5655950000000  0.3724860000000  0.7692500000000 1.0
C      1  0.7852740000000  0.4420500000000  0.5147230000000 1.0
C      1  0.5763790000000  0.4539130000000  0.2296900000000 1.0
C      1  0.2410510000000  0.6181630000000  0.3381110000000 1.0
C      1  0.2760920000000  0.6305710000000  0.6547180000000 1.0
C      1  0.5582110000000  0.6340970000000  0.7820260000000 1.0
C      1  0.7862150000000  0.5407270000000  0.5181360000000 1.0
C      1  0.5745920000000  0.5525370000000  0.2302000000000 1.0
END
