TITL C-1525613-7943-5620 0.235424533396509 3375 -8674.66238371992 0 0 60 (C1) n - 1
REM
REM in /home/nfs/bkarasulu/CARBON/AIRSS/Generating-Clusters/ReaxFF-fromJPCA2015/Units_Real/Try2-Higher-symm/Only-C60
REM
REM
REM
REM
REM
REM ./C.cell (863b2abdce7293c0672fb3ba77bf323a)
REM AIRSS Version 0.9.1 bugfix July 2018 build 013d7b7c2542+ Fri, 06 Jul 2018 19:26:36 +0100
REM compiler GCC version 9.2.1 20190827 (Red Hat 9.2.1-1)
REM options -cpp -mtune=generic -march=x86-64 -g -O0 -fpre-include=/usr/include/finclude/math-vector-fortran.h
REM seed -783548449 -935276254 -2065744458 75802527 2017449557 1753645700 2062173108 1195766678 -1208160113 -1411625746 -471334755 1476280414 -355403151 1886982203 521497775 -1620215296 -1631972503 855844961 -891675909 -223403042 1812282005 -1878890237 1155603025 -1413729022 -1381240410 -1730979493 -1151631632 2099187790 -515498028 -1314136244 -1532364228 1176359077 1733686386
REM
CELL 1.54180   15.00000   15.00000   15.00000   90.00000   90.00000   90.00000
LATT -1
SFAC C  
C      1  0.4809730000000  0.2724040000000  0.6221190000000 1.0
C      1  0.4525420000000  0.5740260000000  0.7257510000000 1.0
C      1  0.4665220000000  0.7332360000000  0.5229570000000 1.0
C      1  0.4624560000000  0.6090780000000  0.2915120000000 1.0
C      1  0.4548990000000  0.3136650000000  0.3477410000000 1.0
C      1  0.5429000000000  0.2999060000000  0.3831270000000 1.0
C      1  0.5537810000000  0.5725840000000  0.2729640000000 1.0
C      1  0.5525800000000  0.7247250000000  0.4746570000000 1.0
C      1  0.5417920000000  0.6105790000000  0.7082540000000 1.0
C      1  0.5665940000000  0.3015120000000  0.6595000000000 1.0
C      1  0.4031670000000  0.6892600000000  0.3910470000000 1.0
C      1  0.4422730000000  0.4604270000000  0.2385420000000 1.0
C      1  0.3831080000000  0.2898790000000  0.4984320000000 1.0
C      1  0.4462060000000  0.3840160000000  0.7295600000000 1.0
C      1  0.4012770000000  0.6946740000000  0.6385650000000 1.0
C      1  0.6015980000000  0.6904620000000  0.6036930000000 1.0
C      1  0.5612040000000  0.4640220000000  0.7448000000000 1.0
C      1  0.6037640000000  0.2807030000000  0.5253050000000 1.0
C      1  0.5621540000000  0.3912650000000  0.2596460000000 1.0
C      1  0.6043680000000  0.6726060000000  0.3569500000000 1.0
C      1  0.3885850000000  0.5179100000000  0.5881630000000 1.0
C      1  0.4074550000000  0.5692960000000  0.5114370000000 1.0
C      1  0.4281990000000  0.5262320000000  0.4269820000000 1.0
C      1  0.4173140000000  0.4381890000000  0.4634260000000 1.0
C      1  0.4156630000000  0.4284090000000  0.5599470000000 1.0
C      1  0.5521990000000  0.5181320000000  0.4186210000000 1.0
C      1  0.5598700000000  0.5728430000000  0.4981350000000 1.0
C      1  0.5499530000000  0.5198660000000  0.5775030000000 1.0
C      1  0.5512140000000  0.4277370000000  0.5460380000000 1.0
C      1  0.5659660000000  0.4269170000000  0.4495740000000 1.0
C      1  0.4671950000000  0.3674870000000  0.2664780000000 1.0
C      1  0.4679260000000  0.2512010000000  0.5275220000000 1.0
C      1  0.4638460000000  0.4808370000000  0.7518540000000 1.0
C      1  0.4629870000000  0.7363270000000  0.6167760000000 1.0
C      1  0.4634140000000  0.7005200000000  0.3277240000000 1.0
C      1  0.5422800000000  0.3666210000000  0.7296570000000 1.0
C      1  0.5497180000000  0.2620260000000  0.4730700000000 1.0
C      1  0.5378050000000  0.4839180000000  0.2326030000000 1.0
C      1  0.5516970000000  0.7239640000000  0.3803120000000 1.0
C      1  0.5448890000000  0.7037730000000  0.6711970000000 1.0
C      1  0.6078180000000  0.5375950000000  0.6993370000000 1.0
C      1  0.6374560000000  0.6819240000000  0.5201150000000 1.0
C      1  0.6336990000000  0.5904230000000  0.3266100000000 1.0
C      1  0.6098570000000  0.3585070000000  0.3399860000000 1.0
C      1  0.6415310000000  0.3238250000000  0.5987110000000 1.0
C      1  0.3977420000000  0.5343340000000  0.2849800000000 1.0
C      1  0.3799000000000  0.7024700000000  0.4786230000000 1.0
C      1  0.3741580000000  0.6228010000000  0.6900810000000 1.0
C      1  0.4084190000000  0.3244800000000  0.6603290000000 1.0
C      1  0.3761010000000  0.3220130000000  0.4063650000000 1.0
C      1  0.6560020000000  0.5829880000000  0.5075460000000 1.0
C      1  0.6524450000000  0.5287720000000  0.4050660000000 1.0
C      1  0.6491450000000  0.4262390000000  0.3998060000000 1.0
C      1  0.6432290000000  0.4199690000000  0.5794020000000 1.0
C      1  0.6465020000000  0.5171310000000  0.6048760000000 1.0
C      1  0.3320250000000  0.6268310000000  0.5248050000000 1.0
C      1  0.3219240000000  0.5853670000000  0.6141860000000 1.0
C      1  0.3645300000000  0.3463810000000  0.5763850000000 1.0
C      1  0.3427570000000  0.4137610000000  0.4057010000000 1.0
C      1  0.3524260000000  0.5029540000000  0.3649460000000 1.0
END
