TITL C-1525613-7943-211 0.0457684389599442 3375 -9113.81102069796 0 0 60 (C5) n - 1
REM
REM in /home/nfs/bkarasulu/CARBON/AIRSS/Generating-Clusters/ReaxFF-fromJPCA2015/Units_Real/Try2-Higher-symm/Only-C60
REM
REM
REM
REM
REM
REM ./C.cell (863b2abdce7293c0672fb3ba77bf323a)
REM AIRSS Version 0.9.1 bugfix July 2018 build 013d7b7c2542+ Fri, 06 Jul 2018 19:26:36 +0100
REM compiler GCC version 9.2.1 20190827 (Red Hat 9.2.1-1)
REM options -cpp -mtune=generic -march=x86-64 -g -O0 -fpre-include=/usr/include/finclude/math-vector-fortran.h
REM seed 681909450 1759282332 -309210650 -1379372849 19271086 1353736906 -425550592 -935492999 84942816 -2062861523 284997573 505236778 -475743828 1800256376 -1974763209 -1049752679 -1229162283 2106599978 -843088071 995921107 -1400726371 780852633 1838645763 -1203609113 678953855 -934042218 1357202418 2098972994 -836475908 341109101 239859370 1942693597 -1097221472
REM
CELL 1.54180   15.00000   15.00000   15.00000   90.00000   90.00000   90.00000
LATT -1
SFAC C  
C      1  0.3786140000000  0.4098710000000  0.5873350000000 1.0
C      1  0.3770140000000  0.5924410000000  0.5874970000000 1.0
C      1  0.5472650000000  0.6496710000000  0.5901140000000 1.0
C      1  0.6558900000000  0.5011680000000  0.5906840000000 1.0
C      1  0.5468910000000  0.3513270000000  0.5869700000000 1.0
C      1  0.6257030000000  0.4090770000000  0.5876270000000 1.0
C      1  0.6235230000000  0.5931920000000  0.5849880000000 1.0
C      1  0.4518510000000  0.6476750000000  0.5839090000000 1.0
C      1  0.3500680000000  0.5001170000000  0.5863020000000 1.0
C      1  0.4543290000000  0.3523830000000  0.5858640000000 1.0
C      1  0.3718520000000  0.4073970000000  0.2952980000000 1.0
C      1  0.3718470000000  0.5932970000000  0.2956340000000 1.0
C      1  0.5486840000000  0.6503190000000  0.2957950000000 1.0
C      1  0.6577470000000  0.4993920000000  0.2951590000000 1.0
C      1  0.5481990000000  0.3488590000000  0.2956170000000 1.0
C      1  0.6273400000000  0.4074590000000  0.2962710000000 1.0
C      1  0.6265620000000  0.5931400000000  0.2962860000000 1.0
C      1  0.4499910000000  0.6502480000000  0.2957720000000 1.0
C      1  0.3422330000000  0.4990960000000  0.2963110000000 1.0
C      1  0.4517290000000  0.3489140000000  0.2951450000000 1.0
C      1  0.2944210000000  0.3836610000000  0.4418460000000 1.0
C      1  0.3253140000000  0.6613310000000  0.4420510000000 1.0
C      1  0.5985320000000  0.7157860000000  0.4421760000000 1.0
C      1  0.7345970000000  0.4724170000000  0.4428940000000 1.0
C      1  0.5474080000000  0.2668710000000  0.4398680000000 1.0
C      1  0.7034310000000  0.3830270000000  0.4440020000000 1.0
C      1  0.6731880000000  0.6572000000000  0.4428510000000 1.0
C      1  0.4026580000000  0.7157870000000  0.4414850000000 1.0
C      1  0.2661750000000  0.4738630000000  0.4418370000000 1.0
C      1  0.4526790000000  0.2666140000000  0.4406180000000 1.0
C      1  0.4078750000000  0.2936270000000  0.3616190000000 1.0
C      1  0.2767030000000  0.5234670000000  0.3633930000000 1.0
C      1  0.4531400000000  0.7202820000000  0.3629090000000 1.0
C      1  0.6938410000000  0.6113180000000  0.3637420000000 1.0
C      1  0.6667460000000  0.3488410000000  0.3638480000000 1.0
C      1  0.5909780000000  0.2938700000000  0.3614880000000 1.0
C      1  0.7234530000000  0.5228920000000  0.3625700000000 1.0
C      1  0.5464330000000  0.7203510000000  0.3625340000000 1.0
C      1  0.3043680000000  0.6126650000000  0.3626060000000 1.0
C      1  0.3325800000000  0.3488010000000  0.3620820000000 1.0
C      1  0.5483630000000  0.7237520000000  0.5254700000000 1.0
C      1  0.7258250000000  0.5238280000000  0.5252000000000 1.0
C      1  0.5912840000000  0.2914910000000  0.5230660000000 1.0
C      1  0.3322730000000  0.3501630000000  0.5252630000000 1.0
C      1  0.3055110000000  0.6156410000000  0.5258140000000 1.0
C      1  0.4510520000000  0.7208220000000  0.5232130000000 1.0
C      1  0.2774110000000  0.5223410000000  0.5248010000000 1.0
C      1  0.4104340000000  0.2917730000000  0.5248120000000 1.0
C      1  0.6679320000000  0.3500390000000  0.5233150000000 1.0
C      1  0.6919780000000  0.6130840000000  0.5226070000000 1.0
C      1  0.3646170000000  0.4997790000000  0.7875810000000 1.0
C      1  0.4574990000000  0.6293040000000  0.7879640000000 1.0
C      1  0.6112910000000  0.5811200000000  0.7886380000000 1.0
C      1  0.6088770000000  0.4202410000000  0.7885990000000 1.0
C      1  0.4578860000000  0.3716260000000  0.7879440000000 1.0
C      1  0.6327480000000  0.5006440000000  0.7887270000000 1.0
C      1  0.5412180000000  0.6262510000000  0.7883330000000 1.0
C      1  0.3906820000000  0.5793550000000  0.7876860000000 1.0
C      1  0.3897280000000  0.4200740000000  0.7876780000000 1.0
C      1  0.5415390000000  0.3709580000000  0.7882910000000 1.0
END
