TITL C-1525613-7943-5895 0.0434743848683369 3375 -8592.12403333717 0 0 60 (C1) n - 1
REM
REM in /home/nfs/bkarasulu/CARBON/AIRSS/Generating-Clusters/ReaxFF-fromJPCA2015/Units_Real/Try2-Higher-symm/Only-C60
REM
REM
REM
REM
REM
REM ./C.cell (863b2abdce7293c0672fb3ba77bf323a)
REM AIRSS Version 0.9.1 bugfix July 2018 build 013d7b7c2542+ Fri, 06 Jul 2018 19:26:36 +0100
REM compiler GCC version 9.2.1 20190827 (Red Hat 9.2.1-1)
REM options -cpp -mtune=generic -march=x86-64 -g -O0 -fpre-include=/usr/include/finclude/math-vector-fortran.h
REM seed -83766214 -1577489864 -61464015 643954299 -1109513292 -325007846 -772659591 1714313178 269843960 120293875 -1768473178 -1920372572 1493481328 608104586 1750024608 111242149 476440623 -731426165 1520591628 -1312540864 -2089206166 -200638183 1368271247 -1633374571 53722982 273949140 371458057 1328655194 -922949099 -1707269114 61602218 737901283 1222860068
REM
CELL 1.54180   15.00000   15.00000   15.00000   90.00000   90.00000   90.00000
LATT -1
SFAC C  
C      1  0.3272930000000  0.3133960000000  0.5664120000000 1.0
C      1  0.5008010000000  0.3115940000000  0.6778540000000 1.0
C      1  0.7044180000000  0.3301530000000  0.5804800000000 1.0
C      1  0.6121640000000  0.3186560000000  0.3397980000000 1.0
C      1  0.3840970000000  0.3114320000000  0.3523630000000 1.0
C      1  0.3256150000000  0.6828780000000  0.5677860000000 1.0
C      1  0.5006750000000  0.6891230000000  0.6764560000000 1.0
C      1  0.7054280000000  0.6697400000000  0.5807850000000 1.0
C      1  0.6120270000000  0.6809590000000  0.3395620000000 1.0
C      1  0.3848240000000  0.6886610000000  0.3539000000000 1.0
C      1  0.5721350000000  0.3937070000000  0.4907110000000 1.0
C      1  0.5437790000000  0.4464530000000  0.4097740000000 1.0
C      1  0.4354170000000  0.4507400000000  0.4294660000000 1.0
C      1  0.4272990000000  0.4484240000000  0.5292810000000 1.0
C      1  0.5217190000000  0.4414520000000  0.5640380000000 1.0
C      1  0.5721940000000  0.6063150000000  0.4913870000000 1.0
C      1  0.5436750000000  0.5540510000000  0.4102360000000 1.0
C      1  0.4351190000000  0.5487200000000  0.4299360000000 1.0
C      1  0.4259520000000  0.5499720000000  0.5306580000000 1.0
C      1  0.5225170000000  0.5584540000000  0.5653860000000 1.0
C      1  0.4933890000000  0.2010400000000  0.5921600000000 1.0
C      1  0.5794390000000  0.2254760000000  0.5474340000000 1.0
C      1  0.5590640000000  0.2800440000000  0.4620080000000 1.0
C      1  0.4606740000000  0.2356390000000  0.4410750000000 1.0
C      1  0.4238130000000  0.2039610000000  0.5223680000000 1.0
C      1  0.4946740000000  0.8005060000000  0.5914440000000 1.0
C      1  0.5806200000000  0.7748980000000  0.5467880000000 1.0
C      1  0.5594610000000  0.7201360000000  0.4619840000000 1.0
C      1  0.4620360000000  0.7663580000000  0.4407280000000 1.0
C      1  0.4253720000000  0.7982940000000  0.5217270000000 1.0
C      1  0.2866400000000  0.5378090000000  0.6299750000000 1.0
C      1  0.5533070000000  0.5412540000000  0.7289800000000 1.0
C      1  0.7286110000000  0.5432130000000  0.5573410000000 1.0
C      1  0.5939380000000  0.5384480000000  0.2496960000000 1.0
C      1  0.3061830000000  0.5415980000000  0.3288050000000 1.0
C      1  0.2917680000000  0.4614960000000  0.6260750000000 1.0
C      1  0.5507230000000  0.4644620000000  0.7215290000000 1.0
C      1  0.7283840000000  0.4569120000000  0.5572490000000 1.0
C      1  0.5941500000000  0.4617140000000  0.2495200000000 1.0
C      1  0.3059000000000  0.4589410000000  0.3282520000000 1.0
C      1  0.5318210000000  0.4002080000000  0.6577510000000 1.0
C      1  0.6746640000000  0.3927310000000  0.5219290000000 1.0
C      1  0.5770520000000  0.4035090000000  0.3219090000000 1.0
C      1  0.3660260000000  0.4028610000000  0.3686260000000 1.0
C      1  0.3450340000000  0.3993830000000  0.5796210000000 1.0
C      1  0.5317010000000  0.5999010000000  0.6597370000000 1.0
C      1  0.6745980000000  0.6076670000000  0.5223280000000 1.0
C      1  0.5768020000000  0.5964040000000  0.3221480000000 1.0
C      1  0.3663390000000  0.5972550000000  0.3696720000000 1.0
C      1  0.3411800000000  0.5967980000000  0.5805180000000 1.0
C      1  0.4781360000000  0.2383570000000  0.6796750000000 1.0
C      1  0.6549820000000  0.2626510000000  0.5827260000000 1.0
C      1  0.6193420000000  0.2578110000000  0.3872050000000 1.0
C      1  0.4122030000000  0.2402090000000  0.3590180000000 1.0
C      1  0.3227200000000  0.2196780000000  0.5442840000000 1.0
C      1  0.4778920000000  0.7623330000000  0.6780430000000 1.0
C      1  0.6558330000000  0.7368580000000  0.5822150000000 1.0
C      1  0.6195610000000  0.7418720000000  0.3867910000000 1.0
C      1  0.4125010000000  0.7601490000000  0.3595160000000 1.0
C      1  0.3263170000000  0.7762920000000  0.5448810000000 1.0
END
