TITL C-1525613-7943-4689 0.00262123583896227 3375 -8803.82030150893 0 0 60 (C2) n - 1
REM
REM in /home/nfs/bkarasulu/CARBON/AIRSS/Generating-Clusters/ReaxFF-fromJPCA2015/Units_Real/Try2-Higher-symm/Only-C60
REM
REM
REM
REM
REM
REM ./C.cell (863b2abdce7293c0672fb3ba77bf323a)
REM AIRSS Version 0.9.1 bugfix July 2018 build 013d7b7c2542+ Fri, 06 Jul 2018 19:26:36 +0100
REM compiler GCC version 9.2.1 20190827 (Red Hat 9.2.1-1)
REM options -cpp -mtune=generic -march=x86-64 -g -O0 -fpre-include=/usr/include/finclude/math-vector-fortran.h
REM seed 1832420922 -858005291 1407219374 -290258619 991088786 -685746270 -1639203428 -1239214144 -763182147 1064956216 -175951948 185988695 -1876514996 -2006476797 -270584431 -382496232 -2099310605 -99976465 -1281345488 1765399770 2062911649 -1894249196 -1819480710 212267375 1080786134 -827426028 -1660423564 1054969437 -1494625107 939497560 244553540 -2098232872 -1501174023
REM
CELL 1.54180   15.00000   15.00000   15.00000   90.00000   90.00000   90.00000
LATT -1
SFAC C  
C      1  0.7076390000000  0.4702370000000  0.3756700000000 1.0
C      1  0.7038860000000  0.6083690000000  0.3741630000000 1.0
C      1  0.6094420000000  0.7137130000000  0.3853540000000 1.0
C      1  0.4688180000000  0.7310710000000  0.3751040000000 1.0
C      1  0.3545910000000  0.6531640000000  0.3757140000000 1.0
C      1  0.2923600000000  0.5297650000000  0.3756720000000 1.0
C      1  0.2961120000000  0.3916320000000  0.3741630000000 1.0
C      1  0.3905570000000  0.2862870000000  0.3853510000000 1.0
C      1  0.5311810000000  0.2689320000000  0.3751020000000 1.0
C      1  0.6454100000000  0.3468360000000  0.3757100000000 1.0
C      1  0.6648660000000  0.3289170000000  0.5438420000000 1.0
C      1  0.7305830000000  0.4648380000000  0.5451440000000 1.0
C      1  0.7187980000000  0.6128260000000  0.5547580000000 1.0
C      1  0.6111400000000  0.7185700000000  0.5546850000000 1.0
C      1  0.4636150000000  0.7467370000000  0.5546330000000 1.0
C      1  0.3351350000000  0.6710810000000  0.5438430000000 1.0
C      1  0.2694160000000  0.5351620000000  0.5451480000000 1.0
C      1  0.2812020000000  0.3871720000000  0.5547590000000 1.0
C      1  0.3888620000000  0.2814290000000  0.5546820000000 1.0
C      1  0.5363850000000  0.2532630000000  0.5546320000000 1.0
C      1  0.2984250000000  0.4597200000000  0.3240260000000 1.0
C      1  0.3429030000000  0.3365320000000  0.3315850000000 1.0
C      1  0.4591310000000  0.2750300000000  0.3320460000000 1.0
C      1  0.5850720000000  0.3103920000000  0.3244690000000 1.0
C      1  0.6676030000000  0.4130500000000  0.3253740000000 1.0
C      1  0.7015720000000  0.5402820000000  0.3240250000000 1.0
C      1  0.6570940000000  0.6634710000000  0.3315840000000 1.0
C      1  0.5408660000000  0.7249720000000  0.3320490000000 1.0
C      1  0.4149270000000  0.6896100000000  0.3244710000000 1.0
C      1  0.3323950000000  0.5869530000000  0.3253750000000 1.0
C      1  0.5868800000000  0.6715550000000  0.4721820000000 1.0
C      1  0.4722450000000  0.6905080000000  0.4709320000000 1.0
C      1  0.3870660000000  0.6377570000000  0.4688490000000 1.0
C      1  0.3245580000000  0.5125070000000  0.4684540000000 1.0
C      1  0.3314830000000  0.4125340000000  0.4703840000000 1.0
C      1  0.4131180000000  0.3284450000000  0.4721820000000 1.0
C      1  0.5277520000000  0.3094910000000  0.4709300000000 1.0
C      1  0.6129380000000  0.3622460000000  0.4688480000000 1.0
C      1  0.6754460000000  0.4874930000000  0.4684550000000 1.0
C      1  0.6685150000000  0.5874680000000  0.4703800000000 1.0
C      1  0.6052750000000  0.2895300000000  0.6099700000000 1.0
C      1  0.7025260000000  0.3947270000000  0.6035110000000 1.0
C      1  0.7242480000000  0.5353340000000  0.6036290000000 1.0
C      1  0.6628940000000  0.6633830000000  0.6072580000000 1.0
C      1  0.5371260000000  0.7297850000000  0.6081350000000 1.0
C      1  0.3947270000000  0.7104680000000  0.6099720000000 1.0
C      1  0.2974780000000  0.6052730000000  0.6035140000000 1.0
C      1  0.2757540000000  0.4646650000000  0.6036300000000 1.0
C      1  0.3371060000000  0.3366160000000  0.6072580000000 1.0
C      1  0.4628760000000  0.2702150000000  0.6081330000000 1.0
C      1  0.6117380000000  0.6123370000000  0.6680040000000 1.0
C      1  0.5252440000000  0.6572850000000  0.6680080000000 1.0
C      1  0.4296300000000  0.6411800000000  0.6705040000000 1.0
C      1  0.3631580000000  0.5711870000000  0.6677230000000 1.0
C      1  0.3462130000000  0.4755200000000  0.6658950000000 1.0
C      1  0.3882640000000  0.3876610000000  0.6680040000000 1.0
C      1  0.4747570000000  0.3427140000000  0.6680060000000 1.0
C      1  0.5703710000000  0.3588180000000  0.6705030000000 1.0
C      1  0.6368420000000  0.4288110000000  0.6677230000000 1.0
C      1  0.6537890000000  0.5244780000000  0.6658940000000 1.0
END
