TITL C-1525613-7943-4629 0.0641686552525168 3375 -8822.15074301846 0 0 60 (Cs) n - 1
REM
REM in /home/nfs/bkarasulu/CARBON/AIRSS/Generating-Clusters/ReaxFF-fromJPCA2015/Units_Real/Try2-Higher-symm/Only-C60
REM
REM
REM
REM
REM
REM ./C.cell (863b2abdce7293c0672fb3ba77bf323a)
REM AIRSS Version 0.9.1 bugfix July 2018 build 013d7b7c2542+ Fri, 06 Jul 2018 19:26:36 +0100
REM compiler GCC version 9.2.1 20190827 (Red Hat 9.2.1-1)
REM options -cpp -mtune=generic -march=x86-64 -g -O0 -fpre-include=/usr/include/finclude/math-vector-fortran.h
REM seed 1640426751 -1737108023 -1331612229 -1700337490 -1109119804 -2143373926 1766540809 -835280877 1822220681 -884350355 1426290650 -546865632 328129653 -1442670550 -102948935 96750112 -444250245 790880364 -620155881 1930487766 -251217493 -1284227544 -1095113876 -1634357832 -327110697 -1610906457 -163086527 -356418426 -280930448 -1547294989 186010092 135840239 477895816
REM
CELL 1.54180   15.00000   15.00000   15.00000   90.00000   90.00000   90.00000
LATT -1
SFAC C  
C      1  0.6025380000000  0.6099080000000  0.6792690000000 1.0
C      1  0.3615090000000  0.6096520000000  0.6515040000000 1.0
C      1  0.3114560000000  0.6122060000000  0.4145460000000 1.0
C      1  0.5219930000000  0.6098020000000  0.2959750000000 1.0
C      1  0.7018490000000  0.6101200000000  0.4577230000000 1.0
C      1  0.6026240000000  0.3900540000000  0.6793150000000 1.0
C      1  0.3613470000000  0.3902570000000  0.6515880000000 1.0
C      1  0.3110670000000  0.3878770000000  0.4145570000000 1.0
C      1  0.5220970000000  0.3900070000000  0.2958070000000 1.0
C      1  0.7019950000000  0.3898480000000  0.4576870000000 1.0
C      1  0.3730990000000  0.3118560000000  0.4217420000000 1.0
C      1  0.5339060000000  0.3138880000000  0.3566820000000 1.0
C      1  0.6478950000000  0.3136020000000  0.4876120000000 1.0
C      1  0.5579870000000  0.3129680000000  0.6381000000000 1.0
C      1  0.3863910000000  0.3118770000000  0.5974870000000 1.0
C      1  0.3733980000000  0.6885140000000  0.4215220000000 1.0
C      1  0.5336220000000  0.6860190000000  0.3570130000000 1.0
C      1  0.6476250000000  0.6863220000000  0.4875720000000 1.0
C      1  0.5578310000000  0.6868930000000  0.6378670000000 1.0
C      1  0.3864170000000  0.6881470000000  0.5973290000000 1.0
C      1  0.5994670000000  0.4503680000000  0.3119050000000 1.0
C      1  0.7092380000000  0.4504020000000  0.5362200000000 1.0
C      1  0.5299910000000  0.4503280000000  0.7106050000000 1.0
C      1  0.3098670000000  0.4500870000000  0.5913020000000 1.0
C      1  0.3514970000000  0.4500980000000  0.3485950000000 1.0
C      1  0.5994930000000  0.5495490000000  0.3118910000000 1.0
C      1  0.7092510000000  0.5495220000000  0.5362370000000 1.0
C      1  0.5299660000000  0.5496160000000  0.7105810000000 1.0
C      1  0.3098580000000  0.5498150000000  0.5912900000000 1.0
C      1  0.3514190000000  0.5497420000000  0.3484700000000 1.0
C      1  0.3121210000000  0.5490850000000  0.4911610000000 1.0
C      1  0.4445520000000  0.5489920000000  0.3118690000000 1.0
C      1  0.6628590000000  0.5489810000000  0.3894750000000 1.0
C      1  0.6548140000000  0.5490780000000  0.6205430000000 1.0
C      1  0.4327430000000  0.5491870000000  0.6852990000000 1.0
C      1  0.3118500000000  0.4509070000000  0.4911220000000 1.0
C      1  0.4445960000000  0.4508240000000  0.3119970000000 1.0
C      1  0.6628650000000  0.4509380000000  0.3895070000000 1.0
C      1  0.6547900000000  0.4508570000000  0.6205540000000 1.0
C      1  0.4326750000000  0.4507570000000  0.6851960000000 1.0
C      1  0.4375440000000  0.3793500000000  0.4538000000000 1.0
C      1  0.5240760000000  0.3808090000000  0.4282920000000 1.0
C      1  0.5769460000000  0.3804520000000  0.5017370000000 1.0
C      1  0.5224040000000  0.3789770000000  0.5740630000000 1.0
C      1  0.4372160000000  0.3771480000000  0.5437980000000 1.0
C      1  0.4376740000000  0.6210760000000  0.4539510000000 1.0
C      1  0.5237260000000  0.6189680000000  0.4283330000000 1.0
C      1  0.5767270000000  0.6193780000000  0.5014980000000 1.0
C      1  0.5223440000000  0.6208760000000  0.5739890000000 1.0
C      1  0.4371400000000  0.6228030000000  0.5436260000000 1.0
C      1  0.5094160000000  0.2402090000000  0.4169130000000 1.0
C      1  0.5815850000000  0.2413550000000  0.4841330000000 1.0
C      1  0.5402450000000  0.2411110000000  0.5734600000000 1.0
C      1  0.4425530000000  0.2397620000000  0.5615510000000 1.0
C      1  0.4231860000000  0.2392020000000  0.4648560000000 1.0
C      1  0.5091900000000  0.7598790000000  0.4169120000000 1.0
C      1  0.5814430000000  0.7587930000000  0.4839520000000 1.0
C      1  0.5403600000000  0.7590300000000  0.5735740000000 1.0
C      1  0.4425960000000  0.7605670000000  0.5618130000000 1.0
C      1  0.4230720000000  0.7613080000000  0.4650290000000 1.0
END
