TITL C-1525613-7943-753 0.132244288402949 3375 -8956.85623532817 0 0 60 (C1) n - 1
REM
REM in /home/nfs/bkarasulu/CARBON/AIRSS/Generating-Clusters/ReaxFF-fromJPCA2015/Units_Real/Try2-Higher-symm/Only-C60
REM
REM
REM
REM
REM
REM ./C.cell (863b2abdce7293c0672fb3ba77bf323a)
REM AIRSS Version 0.9.1 bugfix July 2018 build 013d7b7c2542+ Fri, 06 Jul 2018 19:26:36 +0100
REM compiler GCC version 9.2.1 20190827 (Red Hat 9.2.1-1)
REM options -cpp -mtune=generic -march=x86-64 -g -O0 -fpre-include=/usr/include/finclude/math-vector-fortran.h
REM seed 1830988600 -1482000061 2067084755 1079054446 -1130474180 14982172 -730780445 1657072179 -2027120558 -350054283 1861264353 751894264 747289288 -290652979 961632667 1108136030 -1724210036 1685617640 -673975254 695014661 -814532999 162863277 -671136153 -1040745490 -381442164 -802689936 188400668 -828231375 1684470639 -1164608798 -164296227 -925157821 1164918158
REM
CELL 1.54180   15.00000   15.00000   15.00000   90.00000   90.00000   90.00000
LATT -1
SFAC C  
C      1  0.6097210000000  0.5849270000000  0.3215130000000 1.0
C      1  0.3636950000000  0.5841190000000  0.3434110000000 1.0
C      1  0.3067070000000  0.5851050000000  0.5803900000000 1.0
C      1  0.5196800000000  0.5802850000000  0.7089340000000 1.0
C      1  0.7017970000000  0.5821990000000  0.5447400000000 1.0
C      1  0.6098900000000  0.4141610000000  0.6778810000000 1.0
C      1  0.3639300000000  0.4167040000000  0.6575090000000 1.0
C      1  0.3091910000000  0.4155350000000  0.4203560000000 1.0
C      1  0.5175580000000  0.4163050000000  0.2924930000000 1.0
C      1  0.7027190000000  0.4183130000000  0.4548680000000 1.0
C      1  0.4990020000000  0.4373200000000  0.5826710000000 1.0
C      1  0.5701200000000  0.4544730000000  0.5169370000000 1.0
C      1  0.5423820000000  0.4278550000000  0.4353670000000 1.0
C      1  0.4497460000000  0.4444850000000  0.4410200000000 1.0
C      1  0.4270560000000  0.4297360000000  0.5300410000000 1.0
C      1  0.5064750000000  0.5669410000000  0.4190050000000 1.0
C      1  0.5744560000000  0.5458720000000  0.4836620000000 1.0
C      1  0.5503360000000  0.5745060000000  0.5652700000000 1.0
C      1  0.4594560000000  0.5704930000000  0.5684100000000 1.0
C      1  0.4298720000000  0.5540110000000  0.4755860000000 1.0
C      1  0.5660400000000  0.3034180000000  0.5524950000000 1.0
C      1  0.5669960000000  0.2982790000000  0.4557560000000 1.0
C      1  0.4778730000000  0.3023540000000  0.4193550000000 1.0
C      1  0.4166620000000  0.2984340000000  0.4961540000000 1.0
C      1  0.4710670000000  0.3000390000000  0.5753820000000 1.0
C      1  0.5656460000000  0.6961530000000  0.4460880000000 1.0
C      1  0.5677140000000  0.7036080000000  0.5431780000000 1.0
C      1  0.4782560000000  0.7046990000000  0.5750910000000 1.0
C      1  0.4156540000000  0.6994490000000  0.5015870000000 1.0
C      1  0.4713560000000  0.7013320000000  0.4220780000000 1.0
C      1  0.7020480000000  0.4122360000000  0.5507310000000 1.0
C      1  0.6103320000000  0.4160440000000  0.3173740000000 1.0
C      1  0.3673610000000  0.4115980000000  0.3406710000000 1.0
C      1  0.3047960000000  0.4127240000000  0.5800380000000 1.0
C      1  0.5184250000000  0.4113550000000  0.7142920000000 1.0
C      1  0.7010700000000  0.5869880000000  0.4485600000000 1.0
C      1  0.6107850000000  0.5841040000000  0.6825650000000 1.0
C      1  0.3581140000000  0.5850610000000  0.6620540000000 1.0
C      1  0.3056710000000  0.5887750000000  0.4218300000000 1.0
C      1  0.5181710000000  0.5885740000000  0.2858720000000 1.0
C      1  0.4497050000000  0.3621320000000  0.6550670000000 1.0
C      1  0.6333090000000  0.3609660000000  0.6001840000000 1.0
C      1  0.6264470000000  0.3665250000000  0.4058590000000 1.0
C      1  0.4519220000000  0.3572190000000  0.3385940000000 1.0
C      1  0.3329840000000  0.3570760000000  0.4969990000000 1.0
C      1  0.4501410000000  0.6382880000000  0.3455660000000 1.0
C      1  0.6325910000000  0.6380390000000  0.3993340000000 1.0
C      1  0.6309680000000  0.6368590000000  0.5952520000000 1.0
C      1  0.4475980000000  0.6319980000000  0.6495400000000 1.0
C      1  0.3312600000000  0.6422560000000  0.5026060000000 1.0
C      1  0.6587240000000  0.4988360000000  0.3245040000000 1.0
C      1  0.3832610000000  0.5013490000000  0.2975540000000 1.0
C      1  0.2693230000000  0.4996190000000  0.5480230000000 1.0
C      1  0.4765600000000  0.4981340000000  0.7345120000000 1.0
C      1  0.7152590000000  0.5004620000000  0.5946020000000 1.0
C      1  0.6591150000000  0.5002580000000  0.6746220000000 1.0
C      1  0.3809740000000  0.5003310000000  0.7038360000000 1.0
C      1  0.2706720000000  0.4997420000000  0.4514920000000 1.0
C      1  0.4754750000000  0.5021320000000  0.2660470000000 1.0
C      1  0.7158880000000  0.4992060000000  0.4045940000000 1.0
END
