TITL C-1525613-7943-7371 -0.0282176094399416 3375 -8767.91573398222 0 0 60 (C1) n - 1
REM
REM in /home/nfs/bkarasulu/CARBON/AIRSS/Generating-Clusters/ReaxFF-fromJPCA2015/Units_Real/Try2-Higher-symm/Only-C60
REM
REM
REM
REM
REM
REM ./C.cell (863b2abdce7293c0672fb3ba77bf323a)
REM AIRSS Version 0.9.1 bugfix July 2018 build 013d7b7c2542+ Fri, 06 Jul 2018 19:26:36 +0100
REM compiler GCC version 9.2.1 20190827 (Red Hat 9.2.1-1)
REM options -cpp -mtune=generic -march=x86-64 -g -O0 -fpre-include=/usr/include/finclude/math-vector-fortran.h
REM seed -1029834979 1305802395 -1278840502 1817859650 -1175965734 -1196906765 -140217064 -184522861 1491684075 747243765 -658428967 938137578 -1437799204 104476260 366643652 -970132388 -658432838 -182157511 2104404734 -1073718756 -576425249 1190052154 -1932205322 1269598741 2011989105 -392383231 830200631 -1268354743 -493424883 -631653326 1912041549 -319204763 253378322
REM
CELL 1.54180   15.00000   15.00000   15.00000   90.00000   90.00000   90.00000
LATT -1
SFAC C  
C      1  0.5803810000000  0.5699250000000  0.5475530000000 1.0
C      1  0.5928370000000  0.4782440000000  0.5812450000000 1.0
C      1  0.5897770000000  0.4125470000000  0.5114840000000 1.0
C      1  0.5819910000000  0.4625070000000  0.4299040000000 1.0
C      1  0.5719970000000  0.5573180000000  0.4533550000000 1.0
C      1  0.4195720000000  0.4309920000000  0.5453960000000 1.0
C      1  0.4119760000000  0.5222220000000  0.5784710000000 1.0
C      1  0.4135740000000  0.5881790000000  0.5089400000000 1.0
C      1  0.4117810000000  0.5385320000000  0.4275510000000 1.0
C      1  0.4197460000000  0.4438360000000  0.4512890000000 1.0
C      1  0.3208630000000  0.3575390000000  0.6531880000000 1.0
C      1  0.3570340000000  0.3193010000000  0.4601680000000 1.0
C      1  0.3649630000000  0.4546660000000  0.3105120000000 1.0
C      1  0.3146510000000  0.7153850000000  0.4682960000000 1.0
C      1  0.3716070000000  0.6558850000000  0.6415440000000 1.0
C      1  0.6796140000000  0.6419260000000  0.6548450000000 1.0
C      1  0.6410640000000  0.6795110000000  0.4613000000000 1.0
C      1  0.6334270000000  0.5452910000000  0.3129850000000 1.0
C      1  0.6866500000000  0.2825490000000  0.4694260000000 1.0
C      1  0.6310750000000  0.3430400000000  0.6433710000000 1.0
C      1  0.3798570000000  0.3407650000000  0.5659900000000 1.0
C      1  0.3931930000000  0.3747350000000  0.3806890000000 1.0
C      1  0.3909000000000  0.5458410000000  0.3317250000000 1.0
C      1  0.3889410000000  0.6819110000000  0.5386800000000 1.0
C      1  0.3980930000000  0.5656760000000  0.6653320000000 1.0
C      1  0.6202270000000  0.6604390000000  0.5681280000000 1.0
C      1  0.6028490000000  0.6247190000000  0.3823310000000 1.0
C      1  0.6066260000000  0.4548650000000  0.3348380000000 1.0
C      1  0.6137430000000  0.3174530000000  0.5404240000000 1.0
C      1  0.6056810000000  0.4335600000000  0.6679720000000 1.0
C      1  0.5205250000000  0.2373380000000  0.6399460000000 1.0
C      1  0.5609030000000  0.3052030000000  0.3277150000000 1.0
C      1  0.5256740000000  0.6256680000000  0.2414680000000 1.0
C      1  0.5443330000000  0.7884070000000  0.5200700000000 1.0
C      1  0.5473160000000  0.5515710000000  0.7606500000000 1.0
C      1  0.4793460000000  0.7643020000000  0.6401320000000 1.0
C      1  0.4381590000000  0.6956360000000  0.3243950000000 1.0
C      1  0.4744200000000  0.3742860000000  0.2429810000000 1.0
C      1  0.4572630000000  0.2132250000000  0.5189320000000 1.0
C      1  0.4536950000000  0.4469770000000  0.7596060000000 1.0
C      1  0.6181680000000  0.6062700000000  0.7192680000000 1.0
C      1  0.5904700000000  0.2790910000000  0.7045270000000 1.0
C      1  0.6313830000000  0.2755310000000  0.3917500000000 1.0
C      1  0.6085030000000  0.5661230000000  0.2214890000000 1.0
C      1  0.6152650000000  0.7706830000000  0.4447720000000 1.0
C      1  0.3828000000000  0.3926370000000  0.7170490000000 1.0
C      1  0.4097710000000  0.7203340000000  0.7035870000000 1.0
C      1  0.3678810000000  0.7237890000000  0.3895630000000 1.0
C      1  0.3916770000000  0.4331750000000  0.2197730000000 1.0
C      1  0.3859750000000  0.2289210000000  0.4434380000000 1.0
C      1  0.4291950000000  0.2556400000000  0.6020830000000 1.0
C      1  0.4622440000000  0.3206650000000  0.3229460000000 1.0
C      1  0.4285500000000  0.6130530000000  0.2707800000000 1.0
C      1  0.4505990000000  0.7666180000000  0.5460310000000 1.0
C      1  0.4477610000000  0.5440070000000  0.7470780000000 1.0
C      1  0.5714890000000  0.7459610000000  0.6036170000000 1.0
C      1  0.5365840000000  0.6796610000000  0.3214710000000 1.0
C      1  0.5710820000000  0.3872970000000  0.2731600000000 1.0
C      1  0.5508210000000  0.2339570000000  0.5465360000000 1.0
C      1  0.5534580000000  0.4546150000000  0.7482570000000 1.0
END
