TITL C-1525613-7943-2839 -0.0789181518353674 3375 -9176.56245085597 0 0 60 (C2) n - 1
REM
REM in /home/nfs/bkarasulu/CARBON/AIRSS/Generating-Clusters/ReaxFF-fromJPCA2015/Units_Real/Try2-Higher-symm/Only-C60
REM
REM
REM
REM
REM
REM ./C.cell (863b2abdce7293c0672fb3ba77bf323a)
REM AIRSS Version 0.9.1 bugfix July 2018 build 013d7b7c2542+ Fri, 06 Jul 2018 19:26:36 +0100
REM compiler GCC version 9.2.1 20190827 (Red Hat 9.2.1-1)
REM options -cpp -mtune=generic -march=x86-64 -g -O0 -fpre-include=/usr/include/finclude/math-vector-fortran.h
REM seed 724894519 -489044548 1230513352 -561366320 1360815112 -86863952 525558014 -1900360840 2066551728 1689178608 -1918620427 -1375898247 601796009 -2091559049 -537785261 682672372 1476168562 -888404328 1856979987 1075566152 -1418847936 -434935314 -1674440662 1028457808 -389632710 363480951 1062605379 -402170576 -1347747790 -1079258179 -607131484 -1496553758 549105134
REM
CELL 1.54180   15.00000   15.00000   15.00000   90.00000   90.00000   90.00000
LATT -1
SFAC C  
C      1  0.2655760000000  0.6113490000000  0.5279670000000 1.0
C      1  0.2969300000000  0.6031610000000  0.6149340000000 1.0
C      1  0.2720300000000  0.5138200000000  0.6229700000000 1.0
C      1  0.3051010000000  0.4277960000000  0.6369020000000 1.0
C      1  0.2668500000000  0.3963170000000  0.5576480000000 1.0
C      1  0.2655760000000  0.3886660000000  0.4720230000000 1.0
C      1  0.2968980000000  0.3968140000000  0.3850380000000 1.0
C      1  0.2720210000000  0.4862450000000  0.3769850000000 1.0
C      1  0.3050730000000  0.5721930000000  0.3630770000000 1.0
C      1  0.2668680000000  0.6036410000000  0.4423070000000 1.0
C      1  0.4423390000000  0.6416420000000  0.4355870000000 1.0
C      1  0.4380910000000  0.6570410000000  0.5265240000000 1.0
C      1  0.4043020000000  0.6131560000000  0.6195720000000 1.0
C      1  0.4373050000000  0.5244870000000  0.6546770000000 1.0
C      1  0.4135260000000  0.4277250000000  0.6415010000000 1.0
C      1  0.4423670000000  0.3584400000000  0.5643110000000 1.0
C      1  0.4380880000000  0.3429250000000  0.4734800000000 1.0
C      1  0.4042670000000  0.3868110000000  0.3804080000000 1.0
C      1  0.4372340000000  0.4755650000000  0.3453970000000 1.0
C      1  0.4135330000000  0.5723180000000  0.3583960000000 1.0
C      1  0.6546430000000  0.4384920000000  0.3177190000000 1.0
C      1  0.6744460000000  0.6139690000000  0.3206180000000 1.0
C      1  0.6736740000000  0.6883520000000  0.3896420000000 1.0
C      1  0.6569380000000  0.6869900000000  0.5666210000000 1.0
C      1  0.6728400000000  0.6034760000000  0.6022570000000 1.0
C      1  0.6545950000000  0.5614780000000  0.6822840000000 1.0
C      1  0.6744310000000  0.3860010000000  0.6793520000000 1.0
C      1  0.6736370000000  0.3116450000000  0.6103800000000 1.0
C      1  0.6568610000000  0.3130480000000  0.4333610000000 1.0
C      1  0.6727490000000  0.3964070000000  0.3976290000000 1.0
C      1  0.4795160000000  0.3887620000000  0.7128820000000 1.0
C      1  0.4885350000000  0.2829040000000  0.6044770000000 1.0
C      1  0.4846940000000  0.2600320000000  0.4566110000000 1.0
C      1  0.4551620000000  0.3223220000000  0.3171350000000 1.0
C      1  0.4836450000000  0.4625050000000  0.2634440000000 1.0
C      1  0.4795160000000  0.6111000000000  0.2871610000000 1.0
C      1  0.4886110000000  0.7171050000000  0.3957400000000 1.0
C      1  0.4848360000000  0.7400180000000  0.5435130000000 1.0
C      1  0.4553730000000  0.6777920000000  0.6827970000000 1.0
C      1  0.4836050000000  0.5375640000000  0.7365980000000 1.0
C      1  0.5132780000000  0.6311500000000  0.7433540000000 1.0
C      1  0.5401100000000  0.4565790000000  0.7454900000000 1.0
C      1  0.5243070000000  0.3064880000000  0.6928100000000 1.0
C      1  0.5442070000000  0.2446910000000  0.5330530000000 1.0
C      1  0.5122620000000  0.2591330000000  0.3623530000000 1.0
C      1  0.5133500000000  0.3687270000000  0.2565930000000 1.0
C      1  0.5400310000000  0.5435120000000  0.2545780000000 1.0
C      1  0.5241530000000  0.6934480000000  0.3072540000000 1.0
C      1  0.5441450000000  0.7551680000000  0.4668590000000 1.0
C      1  0.5123030000000  0.7407540000000  0.6376240000000 1.0
C      1  0.6074190000000  0.2849920000000  0.3504700000000 1.0
C      1  0.6077400000000  0.3560710000000  0.2834080000000 1.0
C      1  0.6288320000000  0.5335170000000  0.2946270000000 1.0
C      1  0.6236160000000  0.6955360000000  0.3069940000000 1.0
C      1  0.6323280000000  0.7158660000000  0.4725850000000 1.0
C      1  0.6072490000000  0.7152430000000  0.6495470000000 1.0
C      1  0.6075470000000  0.6439230000000  0.7167370000000 1.0
C      1  0.6288340000000  0.4664530000000  0.7053650000000 1.0
C      1  0.6236120000000  0.3044950000000  0.6929810000000 1.0
C      1  0.6324000000000  0.2841800000000  0.5273920000000 1.0
END
