TITL C-1525613-7943-717 0.000201404677355277 3375 -9190.69144421356 0 0 60 (C1) n - 1
REM
REM in /home/nfs/bkarasulu/CARBON/AIRSS/Generating-Clusters/ReaxFF-fromJPCA2015/Units_Real/Try2-Higher-symm/Only-C60
REM
REM
REM
REM
REM
REM ./C.cell (863b2abdce7293c0672fb3ba77bf323a)
REM AIRSS Version 0.9.1 bugfix July 2018 build 013d7b7c2542+ Fri, 06 Jul 2018 19:26:36 +0100
REM compiler GCC version 9.2.1 20190827 (Red Hat 9.2.1-1)
REM options -cpp -mtune=generic -march=x86-64 -g -O0 -fpre-include=/usr/include/finclude/math-vector-fortran.h
REM seed -2127277413 -1419502144 -210585169 -1301474146 -1746243208 1866949067 -998453576 1043719783 667736972 -1970606682 -513853402 -1256299825 721591925 -2105382892 551791772 1479505931 -633668252 1829445095 -1050792328 1721152357 -497173972 1882095871 -115097230 1227654996 926005885 -1056484214 808328987 -751766973 917875548 -112638307 1214994928 -660897260 -1072578063
REM
CELL 1.54180   15.00000   15.00000   15.00000   90.00000   90.00000   90.00000
LATT -1
SFAC C  
C      1  0.6219750000000  0.3688100000000  0.2467960000000 1.0
C      1  0.2937750000000  0.3663010000000  0.3023880000000 1.0
C      1  0.2786850000000  0.3608420000000  0.6316610000000 1.0
C      1  0.5515360000000  0.3757930000000  0.7689220000000 1.0
C      1  0.7643230000000  0.3698780000000  0.5302240000000 1.0
C      1  0.3789590000000  0.3649890000000  0.2506360000000 1.0
C      1  0.6987160000000  0.3642400000000  0.3184480000000 1.0
C      1  0.7160350000000  0.3636460000000  0.6221890000000 1.0
C      1  0.4495810000000  0.3758430000000  0.7712520000000 1.0
C      1  0.2307940000000  0.3641880000000  0.5398570000000 1.0
C      1  0.5425970000000  0.3258970000000  0.2448310000000 1.0
C      1  0.2713410000000  0.3251840000000  0.3836660000000 1.0
C      1  0.3343930000000  0.2981580000000  0.6719150000000 1.0
C      1  0.6103760000000  0.3318360000000  0.7113110000000 1.0
C      1  0.7421180000000  0.3292400000000  0.4497030000000 1.0
C      1  0.4522510000000  0.2928910000000  0.2434980000000 1.0
C      1  0.7227260000000  0.2995270000000  0.3806940000000 1.0
C      1  0.6614200000000  0.3002290000000  0.6622110000000 1.0
C      1  0.3877470000000  0.3309440000000  0.7176260000000 1.0
C      1  0.2516960000000  0.3249920000000  0.4581850000000 1.0
C      1  0.4553320000000  0.5348600000000  0.2607320000000 1.0
C      1  0.2576640000000  0.5338520000000  0.4740700000000 1.0
C      1  0.3995470000000  0.5454330000000  0.7306930000000 1.0
C      1  0.6754670000000  0.5403290000000  0.6665250000000 1.0
C      1  0.7147750000000  0.5389710000000  0.3831520000000 1.0
C      1  0.5522110000000  0.5382070000000  0.2587200000000 1.0
C      1  0.7461940000000  0.5416890000000  0.4748420000000 1.0
C      1  0.6004970000000  0.5458450000000  0.7281680000000 1.0
C      1  0.3246190000000  0.5386520000000  0.6690880000000 1.0
C      1  0.2867790000000  0.5343030000000  0.3807150000000 1.0
C      1  0.5498560000000  0.6890590000000  0.3488310000000 1.0
C      1  0.3718170000000  0.6859910000000  0.4076040000000 1.0
C      1  0.3716490000000  0.6887500000000  0.5945130000000 1.0
C      1  0.5488820000000  0.6946250000000  0.6522240000000 1.0
C      1  0.6599330000000  0.6921250000000  0.5005050000000 1.0
C      1  0.4530060000000  0.6856360000000  0.3495890000000 1.0
C      1  0.6299350000000  0.6891600000000  0.4083430000000 1.0
C      1  0.6266180000000  0.6906690000000  0.5944370000000 1.0
C      1  0.4491670000000  0.6939530000000  0.6525880000000 1.0
C      1  0.3414170000000  0.6862910000000  0.4996060000000 1.0
C      1  0.2414790000000  0.4622740000000  0.5395740000000 1.0
C      1  0.4515790000000  0.4747020000000  0.7731880000000 1.0
C      1  0.7192980000000  0.4639940000000  0.6253070000000 1.0
C      1  0.6912610000000  0.4635640000000  0.3254950000000 1.0
C      1  0.3904270000000  0.4610330000000  0.2640100000000 1.0
C      1  0.7615950000000  0.4677530000000  0.5375080000000 1.0
C      1  0.5497530000000  0.4746700000000  0.7713850000000 1.0
C      1  0.2825310000000  0.4614710000000  0.6278240000000 1.0
C      1  0.3056480000000  0.4649620000000  0.3147540000000 1.0
C      1  0.6196720000000  0.4667980000000  0.2600310000000 1.0
C      1  0.6725520000000  0.6211600000000  0.3501240000000 1.0
C      1  0.4112130000000  0.6162350000000  0.2923000000000 1.0
C      1  0.2743260000000  0.6166770000000  0.5230930000000 1.0
C      1  0.4504080000000  0.6292210000000  0.7277900000000 1.0
C      1  0.6953230000000  0.6229590000000  0.6171550000000 1.0
C      1  0.3309340000000  0.6164430000000  0.3499810000000 1.0
C      1  0.5934210000000  0.6210320000000  0.2911070000000 1.0
C      1  0.7285980000000  0.6243120000000  0.5243490000000 1.0
C      1  0.5490680000000  0.6294310000000  0.7269740000000 1.0
C      1  0.3045030000000  0.6194830000000  0.6170940000000 1.0
END
