TITL C-1525613-7943-6901 0.228695279939352 3375 -8739.72863624693 0 0 60 (Ci) n - 1
REM
REM in /home/nfs/bkarasulu/CARBON/AIRSS/Generating-Clusters/ReaxFF-fromJPCA2015/Units_Real/Try2-Higher-symm/Only-C60
REM
REM
REM
REM
REM
REM ./C.cell (863b2abdce7293c0672fb3ba77bf323a)
REM AIRSS Version 0.9.1 bugfix July 2018 build 013d7b7c2542+ Fri, 06 Jul 2018 19:26:36 +0100
REM compiler GCC version 9.2.1 20190827 (Red Hat 9.2.1-1)
REM options -cpp -mtune=generic -march=x86-64 -g -O0 -fpre-include=/usr/include/finclude/math-vector-fortran.h
REM seed 895602741 1304593541 1725266110 752651228 -1868027102 -1485861915 -353710928 1494469616 -1506480542 1502926041 166015627 -1715551666 -1372187239 556821258 -1059241399 -1543197660 -1674079746 688435829 1770274633 -1112497617 1462625867 930775256 -2087528994 1509666078 -1371725212 -1633606137 -1369766400 -1293108748 -547614012 923261424 -1143831985 610631911 984708409
REM
CELL 1.54180   15.00000   15.00000   15.00000   90.00000   90.00000   90.00000
LATT -1
SFAC C  
C      1  0.5939200000000  0.3144050000000  0.3239760000000 1.0
C      1  0.4121140000000  0.4646000000000  0.2564350000000 1.0
C      1  0.5897570000000  0.6344220000000  0.2740290000000 1.0
C      1  0.4252660000000  0.7264810000000  0.4234980000000 1.0
C      1  0.5893270000000  0.7418300000000  0.5673540000000 1.0
C      1  0.4060790000000  0.6855980000000  0.6760230000000 1.0
C      1  0.5879070000000  0.5354120000000  0.7435760000000 1.0
C      1  0.4102510000000  0.3655460000000  0.7259980000000 1.0
C      1  0.5747360000000  0.2735190000000  0.5764990000000 1.0
C      1  0.4106760000000  0.2581730000000  0.4326440000000 1.0
C      1  0.7215060000000  0.6660900000000  0.6313910000000 1.0
C      1  0.3344250000000  0.6129780000000  0.7005170000000 1.0
C      1  0.6633670000000  0.4730000000000  0.7076480000000 1.0
C      1  0.3327660000000  0.3327860000000  0.6672020000000 1.0
C      1  0.7249480000000  0.3145630000000  0.5008990000000 1.0
C      1  0.2785000000000  0.3339090000000  0.3686080000000 1.0
C      1  0.6655790000000  0.3870290000000  0.2994810000000 1.0
C      1  0.3366280000000  0.5270020000000  0.2923460000000 1.0
C      1  0.6672360000000  0.6672130000000  0.3327980000000 1.0
C      1  0.2750490000000  0.6854360000000  0.4991010000000 1.0
C      1  0.6388080000000  0.4753030000000  0.3250840000000 1.0
C      1  0.3756040000000  0.5783790000000  0.3643020000000 1.0
C      1  0.6425510000000  0.6604210000000  0.4273370000000 1.0
C      1  0.3580100000000  0.7154420000000  0.5036000000000 1.0
C      1  0.6368840000000  0.6806170000000  0.6360470000000 1.0
C      1  0.3611900000000  0.5246940000000  0.6749140000000 1.0
C      1  0.6243950000000  0.4216130000000  0.6356900000000 1.0
C      1  0.3574490000000  0.3395790000000  0.5726640000000 1.0
C      1  0.6419880000000  0.2845580000000  0.4963990000000 1.0
C      1  0.3631250000000  0.3193890000000  0.3639460000000 1.0
C      1  0.5050800000000  0.2284140000000  0.4393760000000 1.0
C      1  0.5088620000000  0.3439440000000  0.3084890000000 1.0
C      1  0.4947340000000  0.4989130000000  0.2596260000000 1.0
C      1  0.5086480000000  0.6514830000000  0.3096660000000 1.0
C      1  0.5030910000000  0.7683580000000  0.4601180000000 1.0
C      1  0.4949180000000  0.7715900000000  0.5606230000000 1.0
C      1  0.4911230000000  0.6560280000000  0.6915410000000 1.0
C      1  0.5052610000000  0.5010920000000  0.7403910000000 1.0
C      1  0.4913400000000  0.3485850000000  0.6902640000000 1.0
C      1  0.4969100000000  0.2316430000000  0.5398790000000 1.0
C      1  0.5740220000000  0.3312740000000  0.6537870000000 1.0
C      1  0.4011730000000  0.2607190000000  0.5282800000000 1.0
C      1  0.5882270000000  0.2668310000000  0.4085860000000 1.0
C      1  0.4269740000000  0.3723100000000  0.2936940000000 1.0
C      1  0.5776250000000  0.5333620000000  0.2628480000000 1.0
C      1  0.4259880000000  0.6686860000000  0.3462460000000 1.0
C      1  0.5988260000000  0.7392820000000  0.4717180000000 1.0
C      1  0.4117710000000  0.7331740000000  0.5914070000000 1.0
C      1  0.5730310000000  0.6276920000000  0.7063020000000 1.0
C      1  0.4223540000000  0.4666310000000  0.7371610000000 1.0
C      1  0.3908200000000  0.4267490000000  0.5358130000000 1.0
C      1  0.5495990000000  0.4334450000000  0.4742810000000 1.0
C      1  0.4509450000000  0.4403610000000  0.4589130000000 1.0
C      1  0.6123250000000  0.4881300000000  0.4210860000000 1.0
C      1  0.4269790000000  0.5328060000000  0.4366930000000 1.0
C      1  0.6091800000000  0.5732500000000  0.4641860000000 1.0
C      1  0.4504020000000  0.5665570000000  0.5257170000000 1.0
C      1  0.5490550000000  0.5596390000000  0.5410860000000 1.0
C      1  0.3876750000000  0.5118710000000  0.5789100000000 1.0
C      1  0.5730230000000  0.4671940000000  0.5633060000000 1.0
END
