TITL C-1525613-7943-6379 -0.176005614968479 3375 -8831.66067140462 0 0 60 (D5h) n - 1
REM
REM in /home/nfs/bkarasulu/CARBON/AIRSS/Generating-Clusters/ReaxFF-fromJPCA2015/Units_Real/Try2-Higher-symm/Only-C60
REM
REM
REM
REM
REM
REM ./C.cell (863b2abdce7293c0672fb3ba77bf323a)
REM AIRSS Version 0.9.1 bugfix July 2018 build 013d7b7c2542+ Fri, 06 Jul 2018 19:26:36 +0100
REM compiler GCC version 9.2.1 20190827 (Red Hat 9.2.1-1)
REM options -cpp -mtune=generic -march=x86-64 -g -O0 -fpre-include=/usr/include/finclude/math-vector-fortran.h
REM seed -1875612455 -1292246331 -2083574509 -222982674 -1574298429 871283459 409871510 -1721827779 -1367893251 -965231517 -194274809 -1215216438 1901094554 -724893372 1138654565 -2023052854 -886207564 911980888 -514921743 -869923219 -511458065 -1370859190 1211705973 -1403571634 1365359841 418919700 1496355608 738485445 -1473459680 1383442931 681437326 1618513537 -694424579
REM
CELL 1.54180   15.00000   15.00000   15.00000   90.00000   90.00000   90.00000
LATT -1
SFAC C  
C      1  0.5528520000000  0.5243750000000  0.4171970000000 1.0
C      1  0.5519910000000  0.5863750000000  0.4973420000000 1.0
C      1  0.5530370000000  0.5290660000000  0.5812270000000 1.0
C      1  0.5520400000000  0.4315090000000  0.5527020000000 1.0
C      1  0.5528680000000  0.4287310000000  0.4512690000000 1.0
C      1  0.4471480000000  0.5243750000000  0.4171970000000 1.0
C      1  0.4480090000000  0.5863750000000  0.4973420000000 1.0
C      1  0.4469630000000  0.5290660000000  0.5812270000000 1.0
C      1  0.4479600000000  0.4315090000000  0.5527020000000 1.0
C      1  0.4471320000000  0.4287310000000  0.4512690000000 1.0
C      1  0.3885320000000  0.6383700000000  0.3317620000000 1.0
C      1  0.3886150000000  0.7027740000000  0.5795000000000 1.0
C      1  0.3885360000000  0.4869560000000  0.7174580000000 1.0
C      1  0.3886620000000  0.2892790000000  0.5548180000000 1.0
C      1  0.3886240000000  0.3827690000000  0.3164900000000 1.0
C      1  0.6114680000000  0.6383700000000  0.3317620000000 1.0
C      1  0.6113850000000  0.7027740000000  0.5795000000000 1.0
C      1  0.6114640000000  0.4869560000000  0.7174580000000 1.0
C      1  0.6113380000000  0.2892790000000  0.5548180000000 1.0
C      1  0.6113760000000  0.3827690000000  0.3164900000000 1.0
C      1  0.2781590000000  0.5652160000000  0.4490750000000 1.0
C      1  0.2781970000000  0.5686330000000  0.5462690000000 1.0
C      1  0.2781900000000  0.4772330000000  0.5795670000000 1.0
C      1  0.2781940000000  0.4172830000000  0.5029410000000 1.0
C      1  0.2781660000000  0.4716380000000  0.4222930000000 1.0
C      1  0.7218410000000  0.5652160000000  0.4490750000000 1.0
C      1  0.7218030000000  0.5686330000000  0.5462690000000 1.0
C      1  0.7218100000000  0.4772330000000  0.5795670000000 1.0
C      1  0.7218060000000  0.4172830000000  0.5029410000000 1.0
C      1  0.7218340000000  0.4716380000000  0.4222930000000 1.0
C      1  0.4408780000000  0.3492410000000  0.6169750000000 1.0
C      1  0.4408750000000  0.3422340000000  0.3928110000000 1.0
C      1  0.4408720000000  0.5532420000000  0.3168670000000 1.0
C      1  0.4408940000000  0.6906550000000  0.4940160000000 1.0
C      1  0.4408310000000  0.5645590000000  0.6794220000000 1.0
C      1  0.5591220000000  0.3492410000000  0.6169750000000 1.0
C      1  0.5591250000000  0.3422340000000  0.3928110000000 1.0
C      1  0.5591280000000  0.5532420000000  0.3168670000000 1.0
C      1  0.5591060000000  0.6906550000000  0.4940160000000 1.0
C      1  0.5591690000000  0.5645590000000  0.6794220000000 1.0
C      1  0.6113550000000  0.6486490000000  0.6596210000000 1.0
C      1  0.6114030000000  0.3942200000000  0.6906240000000 1.0
C      1  0.6113890000000  0.2859100000000  0.4582110000000 1.0
C      1  0.6113770000000  0.4735230000000  0.2835880000000 1.0
C      1  0.6113130000000  0.6975450000000  0.4079760000000 1.0
C      1  0.3886450000000  0.6486490000000  0.6596210000000 1.0
C      1  0.3885970000000  0.3942200000000  0.6906240000000 1.0
C      1  0.3886110000000  0.2859100000000  0.4582110000000 1.0
C      1  0.3886230000000  0.4735230000000  0.2835880000000 1.0
C      1  0.3886870000000  0.6975450000000  0.4079760000000 1.0
C      1  0.3117850000000  0.6397020000000  0.3917850000000 1.0
C      1  0.3116410000000  0.6460480000000  0.5994400000000 1.0
C      1  0.3117690000000  0.4505660000000  0.6696760000000 1.0
C      1  0.3116600000000  0.3233900000000  0.5053560000000 1.0
C      1  0.3117710000000  0.4403120000000  0.3337250000000 1.0
C      1  0.6882150000000  0.6397020000000  0.3917850000000 1.0
C      1  0.6883590000000  0.6460480000000  0.5994400000000 1.0
C      1  0.6882310000000  0.4505660000000  0.6696760000000 1.0
C      1  0.6883400000000  0.3233900000000  0.5053560000000 1.0
C      1  0.6882290000000  0.4403120000000  0.3337250000000 1.0
END
