TITL C-1525613-7943-367 -0.02147499919213 3375 -8703.56899259514 0 0 60 (C2) n - 1
REM
REM in /home/nfs/bkarasulu/CARBON/AIRSS/Generating-Clusters/ReaxFF-fromJPCA2015/Units_Real/Try2-Higher-symm/Only-C60
REM
REM
REM
REM
REM
REM ./C.cell (863b2abdce7293c0672fb3ba77bf323a)
REM AIRSS Version 0.9.1 bugfix July 2018 build 013d7b7c2542+ Fri, 06 Jul 2018 19:26:36 +0100
REM compiler GCC version 9.2.1 20190827 (Red Hat 9.2.1-1)
REM options -cpp -mtune=generic -march=x86-64 -g -O0 -fpre-include=/usr/include/finclude/math-vector-fortran.h
REM seed -1431930736 -869708193 374835540 429965143 -1967214486 615963388 1394070250 -1185586996 744562374 -724328455 1357212238 -998931370 -1594965998 336448864 -334180197 1099829061 1240803349 -1326179564 1106374868 1638102927 1208185255 -20853648 -648241835 -1415707387 452023525 -1717995573 -1685793047 297781127 -1198204518 -1740874766 552395959 -679645580 1983853471
REM
CELL 1.54180   15.00000   15.00000   15.00000   90.00000   90.00000   90.00000
LATT -1
SFAC C  
C      1  0.4051180000000  0.4047650000000  0.3558800000000 1.0
C      1  0.4055140000000  0.3322470000000  0.5460260000000 1.0
C      1  0.4038650000000  0.4938950000000  0.6693730000000 1.0
C      1  0.4052600000000  0.6655640000000  0.5631000000000 1.0
C      1  0.4023730000000  0.6037310000000  0.3665930000000 1.0
C      1  0.5948820000000  0.4047650000000  0.6441200000000 1.0
C      1  0.5944860000000  0.3322470000000  0.4539740000000 1.0
C      1  0.5961350000000  0.4938950000000  0.3306270000000 1.0
C      1  0.5947400000000  0.6655640000000  0.4369000000000 1.0
C      1  0.5976270000000  0.6037310000000  0.6334070000000 1.0
C      1  0.3819930000000  0.6739040000000  0.6553330000000 1.0
C      1  0.3792000000000  0.6956830000000  0.3844090000000 1.0
C      1  0.3821040000000  0.4489460000000  0.2739360000000 1.0
C      1  0.3797770000000  0.2703650000000  0.4761150000000 1.0
C      1  0.3808370000000  0.4096700000000  0.7086960000000 1.0
C      1  0.6180070000000  0.6739040000000  0.3446670000000 1.0
C      1  0.6208000000000  0.6956830000000  0.6155910000000 1.0
C      1  0.6178960000000  0.4489460000000  0.7260640000000 1.0
C      1  0.6202230000000  0.2703650000000  0.5238850000000 1.0
C      1  0.6191630000000  0.4096700000000  0.2913040000000 1.0
C      1  0.5250620000000  0.6090680000000  0.6998890000000 1.0
C      1  0.5222040000000  0.7275500000000  0.4568320000000 1.0
C      1  0.5243900000000  0.5294380000000  0.2741870000000 1.0
C      1  0.5229790000000  0.2905310000000  0.4008940000000 1.0
C      1  0.5236830000000  0.3415180000000  0.6675450000000 1.0
C      1  0.4749380000000  0.6090680000000  0.3001110000000 1.0
C      1  0.4777960000000  0.7275500000000  0.5431680000000 1.0
C      1  0.4756100000000  0.5294380000000  0.7258130000000 1.0
C      1  0.4770210000000  0.2905320000000  0.5991060000000 1.0
C      1  0.4763170000000  0.3415180000000  0.3324550000000 1.0
C      1  0.6895310000000  0.6005790000000  0.3323260000000 1.0
C      1  0.6887370000000  0.3754580000000  0.3597420000000 1.0
C      1  0.6880280000000  0.3262610000000  0.5755150000000 1.0
C      1  0.6898380000000  0.5178130000000  0.6961580000000 1.0
C      1  0.6877170000000  0.6802690000000  0.5403490000000 1.0
C      1  0.3104690000000  0.6005790000000  0.6676740000000 1.0
C      1  0.3112630000000  0.3754580000000  0.6402580000000 1.0
C      1  0.3119720000000  0.3262610000000  0.4244850000000 1.0
C      1  0.3101620000000  0.5178130000000  0.3038420000000 1.0
C      1  0.3122830000000  0.6802690000000  0.4596510000000 1.0
C      1  0.6626180000000  0.5309110000000  0.6014600000000 1.0
C      1  0.6503700000000  0.6020000000000  0.4907630000000 1.0
C      1  0.6614030000000  0.5344530000000  0.4013230000000 1.0
C      1  0.6532010000000  0.4144420000000  0.4448550000000 1.0
C      1  0.6581690000000  0.4220220000000  0.5620050000000 1.0
C      1  0.3373820000000  0.5309110000000  0.3985400000000 1.0
C      1  0.3496300000000  0.6020000000000  0.5092370000000 1.0
C      1  0.3385970000000  0.5344530000000  0.5986770000000 1.0
C      1  0.3467990000000  0.4144410000000  0.5551450000000 1.0
C      1  0.3418310000000  0.4220220000000  0.4379950000000 1.0
C      1  0.5265160000000  0.6905120000000  0.3124150000000 1.0
C      1  0.5298050000000  0.3810190000000  0.2613420000000 1.0
C      1  0.5289090000000  0.2351360000000  0.5393320000000 1.0
C      1  0.5274590000000  0.4558960000000  0.7634800000000 1.0
C      1  0.5308880000000  0.7363510000000  0.6236240000000 1.0
C      1  0.4734840000000  0.6905120000000  0.6875850000000 1.0
C      1  0.4701950000000  0.3810190000000  0.7386580000000 1.0
C      1  0.4710910000000  0.2351360000000  0.4606680000000 1.0
C      1  0.4725410000000  0.4558960000000  0.2365200000000 1.0
C      1  0.4691120000000  0.7363510000000  0.3763760000000 1.0
END
