TITL C-1525613-7943-452 0.263391032960885 3375 -8647.42010980502 0 0 60 (Ci) n - 1
REM
REM in /home/nfs/bkarasulu/CARBON/AIRSS/Generating-Clusters/ReaxFF-fromJPCA2015/Units_Real/Try2-Higher-symm/Only-C60
REM
REM
REM
REM
REM
REM ./C.cell (863b2abdce7293c0672fb3ba77bf323a)
REM AIRSS Version 0.9.1 bugfix July 2018 build 013d7b7c2542+ Fri, 06 Jul 2018 19:26:36 +0100
REM compiler GCC version 9.2.1 20190827 (Red Hat 9.2.1-1)
REM options -cpp -mtune=generic -march=x86-64 -g -O0 -fpre-include=/usr/include/finclude/math-vector-fortran.h
REM seed 1969244026 -1794084967 234962669 -1794718100 -1169020702 -1221855342 -1317217138 -562730806 -627679071 -1465238668 -2055736877 -914049803 -592813350 518071218 -342996049 2111616921 119834850 534392077 -1698497681 -980321198 -527351276 336218780 133559078 1926159483 -1275411998 -615386778 458101933 263386579 -1618645727 1924077994 -698661933 -1446525520 -1579245436
REM
CELL 1.54180   15.00000   15.00000   15.00000   90.00000   90.00000   90.00000
LATT -1
SFAC C  
C      1  0.4196490000000  0.5300960000000  0.5713400000000 1.0
C      1  0.4227090000000  0.4799080000000  0.4297830000000 1.0
C      1  0.4444780000000  0.4359260000000  0.5689430000000 1.0
C      1  0.4981850000000  0.4178070000000  0.4292000000000 1.0
C      1  0.5418740000000  0.4293560000000  0.5689450000000 1.0
C      1  0.5803510000000  0.4699040000000  0.4286600000000 1.0
C      1  0.5772910000000  0.5200920000000  0.5702170000000 1.0
C      1  0.5555210000000  0.5640740000000  0.4310560000000 1.0
C      1  0.5018150000000  0.5821930000000  0.5708000000000 1.0
C      1  0.4581260000000  0.5706440000000  0.4310560000000 1.0
C      1  0.4406880000000  0.4386000000000  0.7164550000000 1.0
C      1  0.4898730000000  0.4178470000000  0.2836370000000 1.0
C      1  0.5379850000000  0.4254190000000  0.7153190000000 1.0
C      1  0.5764540000000  0.4646780000000  0.2816780000000 1.0
C      1  0.5811270000000  0.5139530000000  0.7150570000000 1.0
C      1  0.5593120000000  0.5614000000000  0.2835450000000 1.0
C      1  0.5101270000000  0.5821520000000  0.7163630000000 1.0
C      1  0.4620150000000  0.5745810000000  0.2846800000000 1.0
C      1  0.4235450000000  0.5353220000000  0.7183220000000 1.0
C      1  0.4188730000000  0.4860470000000  0.2849430000000 1.0
C      1  0.5799680000000  0.2755370000000  0.6078100000000 1.0
C      1  0.6981930000000  0.3675330000000  0.3874460000000 1.0
C      1  0.7336330000000  0.5213340000000  0.6036200000000 1.0
C      1  0.6879890000000  0.6481950000000  0.3931790000000 1.0
C      1  0.5520390000000  0.7291620000000  0.6056670000000 1.0
C      1  0.4200320000000  0.7244640000000  0.3921900000000 1.0
C      1  0.3018070000000  0.6324670000000  0.6125540000000 1.0
C      1  0.2663670000000  0.4786660000000  0.3963800000000 1.0
C      1  0.3120110000000  0.3518050000000  0.6068210000000 1.0
C      1  0.4479610000000  0.2708390000000  0.3943320000000 1.0
C      1  0.7393820000000  0.4650020000000  0.5301270000000 1.0
C      1  0.7618820000000  0.6101000000000  0.4511820000000 1.0
C      1  0.6125620000000  0.7138970000000  0.5380310000000 1.0
C      1  0.4814110000000  0.7848050000000  0.4465700000000 1.0
C      1  0.3315750000000  0.6900420000000  0.5439740000000 1.0
C      1  0.2606180000000  0.5349980000000  0.4698730000000 1.0
C      1  0.2381190000000  0.3899000000000  0.5488180000000 1.0
C      1  0.3874380000000  0.2861030000000  0.4619690000000 1.0
C      1  0.5185890000000  0.2151950000000  0.5534300000000 1.0
C      1  0.6684250000000  0.3099580000000  0.4560260000000 1.0
C      1  0.5102470000000  0.6480270000000  0.6425050000000 1.0
C      1  0.4289100000000  0.6313370000000  0.3595940000000 1.0
C      1  0.3613310000000  0.5593010000000  0.6449580000000 1.0
C      1  0.3565450000000  0.4660810000000  0.3592540000000 1.0
C      1  0.3965740000000  0.3905370000000  0.6414530000000 1.0
C      1  0.4897530000000  0.3519740000000  0.3574950000000 1.0
C      1  0.5710910000000  0.3686640000000  0.6404060000000 1.0
C      1  0.6386690000000  0.4406990000000  0.3550420000000 1.0
C      1  0.6434550000000  0.5339190000000  0.6407460000000 1.0
C      1  0.6034250000000  0.6094630000000  0.3585470000000 1.0
C      1  0.3474340000000  0.3065280000000  0.5344080000000 1.0
C      1  0.5013990000000  0.2086750000000  0.4561540000000 1.0
C      1  0.6333070000000  0.2921270000000  0.5343900000000 1.0
C      1  0.7407880000000  0.4225880000000  0.4519380000000 1.0
C      1  0.7777560000000  0.5963410000000  0.5482410000000 1.0
C      1  0.6525670000000  0.6934720000000  0.4655920000000 1.0
C      1  0.4986010000000  0.7913240000000  0.5438460000000 1.0
C      1  0.3666930000000  0.7078730000000  0.4656110000000 1.0
C      1  0.2592120000000  0.5774120000000  0.5480620000000 1.0
C      1  0.2222440000000  0.4036590000000  0.4517590000000 1.0
END
