TITL C-1525613-7943-4228 -0.173688582480945 3375 -9392.48475935073 0 0 60 (D5h) n - 1
REM
REM in /home/nfs/bkarasulu/CARBON/AIRSS/Generating-Clusters/ReaxFF-fromJPCA2015/Units_Real/Try2-Higher-symm/Only-C60
REM
REM
REM
REM
REM
REM ./C.cell (863b2abdce7293c0672fb3ba77bf323a)
REM AIRSS Version 0.9.1 bugfix July 2018 build 013d7b7c2542+ Fri, 06 Jul 2018 19:26:36 +0100
REM compiler GCC version 9.2.1 20190827 (Red Hat 9.2.1-1)
REM options -cpp -mtune=generic -march=x86-64 -g -O0 -fpre-include=/usr/include/finclude/math-vector-fortran.h
REM seed -2091184818 1898947766 -1558178861 -1677467679 -1521529014 -311727943 730778328 -1141852598 1191993244 -1417504830 1769096868 492740395 2020403011 1095946220 265046770 -1503688358 -1445827729 1414656060 2133699327 -953627790 -1877385040 1443949309 -1818685988 321671440 860324615 1089356077 -1642711918 -1743253979 -1021599390 -1526024417 -1880056205 2099081479 172215087
REM
CELL 1.54180   15.00000   15.00000   15.00000   90.00000   90.00000   90.00000
LATT -1
SFAC C  
C      1  0.6117400000000  0.2788160000000  0.5126750000000 1.0
C      1  0.6098560000000  0.4193480000000  0.2954330000000 1.0
C      1  0.6106870000000  0.6698300000000  0.3600520000000 1.0
C      1  0.6104820000000  0.6856850000000  0.6178460000000 1.0
C      1  0.6129560000000  0.4437280000000  0.7164870000000 1.0
C      1  0.3902880000000  0.2806090000000  0.5133650000000 1.0
C      1  0.3895020000000  0.4195270000000  0.2953790000000 1.0
C      1  0.3894320000000  0.6692440000000  0.3603380000000 1.0
C      1  0.3898730000000  0.6857560000000  0.6173490000000 1.0
C      1  0.3894840000000  0.4451400000000  0.7124650000000 1.0
C      1  0.3902700000000  0.2962220000000  0.4184780000000 1.0
C      1  0.3890130000000  0.5143680000000  0.2808690000000 1.0
C      1  0.3893490000000  0.7127710000000  0.4456270000000 1.0
C      1  0.3888640000000  0.6182480000000  0.6856370000000 1.0
C      1  0.3920040000000  0.3604810000000  0.6680290000000 1.0
C      1  0.6100210000000  0.2956090000000  0.4179270000000 1.0
C      1  0.6104470000000  0.5143380000000  0.2808380000000 1.0
C      1  0.6106610000000  0.7129680000000  0.4459540000000 1.0
C      1  0.6114970000000  0.6186840000000  0.6871340000000 1.0
C      1  0.6131450000000  0.3569560000000  0.6718950000000 1.0
C      1  0.4516740000000  0.2047130000000  0.5015750000000 1.0
C      1  0.4514530000000  0.4072770000000  0.2209100000000 1.0
C      1  0.4515270000000  0.7364160000000  0.3248480000000 1.0
C      1  0.4516080000000  0.7395560000000  0.6701180000000 1.0
C      1  0.4504880000000  0.4107270000000  0.7819510000000 1.0
C      1  0.5490860000000  0.2037910000000  0.5010180000000 1.0
C      1  0.5479640000000  0.4072480000000  0.2208100000000 1.0
C      1  0.5486760000000  0.7370910000000  0.3250070000000 1.0
C      1  0.5480450000000  0.7395510000000  0.6701200000000 1.0
C      1  0.5485020000000  0.4098340000000  0.7829850000000 1.0
C      1  0.3368780000000  0.5369970000000  0.4278630000000 1.0
C      1  0.3366260000000  0.5802860000000  0.5121560000000 1.0
C      1  0.3367000000000  0.5127670000000  0.5789990000000 1.0
C      1  0.3376550000000  0.4280130000000  0.5360060000000 1.0
C      1  0.3374030000000  0.4432380000000  0.4422940000000 1.0
C      1  0.6615460000000  0.5365680000000  0.4281660000000 1.0
C      1  0.6620090000000  0.5792470000000  0.5125700000000 1.0
C      1  0.6624810000000  0.5124030000000  0.5797960000000 1.0
C      1  0.6620740000000  0.4280880000000  0.5361450000000 1.0
C      1  0.6611870000000  0.4430850000000  0.4425610000000 1.0
C      1  0.3694120000000  0.3489250000000  0.5768110000000 1.0
C      1  0.3683150000000  0.3802490000000  0.3792790000000 1.0
C      1  0.3675150000000  0.5777240000000  0.3487150000000 1.0
C      1  0.3674940000000  0.6683190000000  0.5264400000000 1.0
C      1  0.3671430000000  0.5266530000000  0.6675140000000 1.0
C      1  0.6321860000000  0.3475000000000  0.5771230000000 1.0
C      1  0.6307130000000  0.3802090000000  0.3795010000000 1.0
C      1  0.6317310000000  0.5778910000000  0.3487780000000 1.0
C      1  0.6316460000000  0.6673070000000  0.5266180000000 1.0
C      1  0.6325060000000  0.5262540000000  0.6693500000000 1.0
C      1  0.4517260000000  0.2214880000000  0.4053720000000 1.0
C      1  0.4509750000000  0.5039200000000  0.2051390000000 1.0
C      1  0.4513790000000  0.7807080000000  0.4127060000000 1.0
C      1  0.4511840000000  0.6715410000000  0.7401040000000 1.0
C      1  0.4513080000000  0.3246560000000  0.7355830000000 1.0
C      1  0.5481850000000  0.2213810000000  0.4050860000000 1.0
C      1  0.5485160000000  0.5038440000000  0.2051020000000 1.0
C      1  0.5482420000000  0.7809980000000  0.4128310000000 1.0
C      1  0.5486140000000  0.6722300000000  0.7405310000000 1.0
C      1  0.5480600000000  0.3229830000000  0.7377380000000 1.0
END
