TITL C-1525613-7943-663 -0.0402878379900228 3375 -9539.17611833353 0 0 60 (C1) n - 1
REM
REM in /home/nfs/bkarasulu/CARBON/AIRSS/Generating-Clusters/ReaxFF-fromJPCA2015/Units_Real/Try2-Higher-symm/Only-C60
REM
REM
REM
REM
REM
REM ./C.cell (863b2abdce7293c0672fb3ba77bf323a)
REM AIRSS Version 0.9.1 bugfix July 2018 build 013d7b7c2542+ Fri, 06 Jul 2018 19:26:36 +0100
REM compiler GCC version 9.2.1 20190827 (Red Hat 9.2.1-1)
REM options -cpp -mtune=generic -march=x86-64 -g -O0 -fpre-include=/usr/include/finclude/math-vector-fortran.h
REM seed 126749266 -467920086 1886730387 -2035994507 -1181808101 1428338258 -529211249 1391372450 1256660585 -2137268923 -1957407399 752273036 186720034 -1012770430 176113092 913589373 2091379058 841675237 1563621075 -616977795 713680732 -1137112030 847026939 -2078868586 601843885 1925640558 -174320001 -2003815319 77592487 829607244 -793786686 532851089 1652884485
REM
CELL 1.54180   15.00000   15.00000   15.00000   90.00000   90.00000   90.00000
LATT -1
SFAC C  
C      1  0.5476850000000  0.7083540000000  0.4443430000000 1.0
C      1  0.5681440000000  0.7034720000000  0.5387950000000 1.0
C      1  0.4842650000000  0.7085240000000  0.5885070000000 1.0
C      1  0.4127690000000  0.7176280000000  0.5235970000000 1.0
C      1  0.4526580000000  0.7234520000000  0.4345390000000 1.0
C      1  0.4516150000000  0.2876310000000  0.4426190000000 1.0
C      1  0.4309390000000  0.2951350000000  0.5369670000000 1.0
C      1  0.5156350000000  0.2944250000000  0.5850120000000 1.0
C      1  0.5872400000000  0.2848760000000  0.5202750000000 1.0
C      1  0.5470880000000  0.2750790000000  0.4320490000000 1.0
C      1  0.3173530000000  0.6183930000000  0.6179280000000 1.0
C      1  0.3175330000000  0.6562060000000  0.3690540000000 1.0
C      1  0.5337100000000  0.6281790000000  0.3033880000000 1.0
C      1  0.6901490000000  0.5964120000000  0.5026650000000 1.0
C      1  0.5506570000000  0.6117900000000  0.7061270000000 1.0
C      1  0.6822070000000  0.3845760000000  0.6145920000000 1.0
C      1  0.6832170000000  0.3422490000000  0.3661640000000 1.0
C      1  0.4654820000000  0.3693910000000  0.3035660000000 1.0
C      1  0.3089180000000  0.4021480000000  0.5028990000000 1.0
C      1  0.4494400000000  0.3921650000000  0.7030690000000 1.0
C      1  0.6419670000000  0.6485110000000  0.5696530000000 1.0
C      1  0.4727090000000  0.6579730000000  0.6708290000000 1.0
C      1  0.3273110000000  0.6723830000000  0.5376160000000 1.0
C      1  0.4043670000000  0.6971000000000  0.3532190000000 1.0
C      1  0.5927560000000  0.6512460000000  0.3779780000000 1.0
C      1  0.3571370000000  0.3497830000000  0.5691390000000 1.0
C      1  0.5269270000000  0.3464700000000  0.6664500000000 1.0
C      1  0.6724260000000  0.3309200000000  0.5338710000000 1.0
C      1  0.5958450000000  0.3011350000000  0.3509390000000 1.0
C      1  0.4054590000000  0.3441130000000  0.3765870000000 1.0
C      1  0.5438310000000  0.4805670000000  0.2399020000000 1.0
C      1  0.7386120000000  0.4571940000000  0.4497940000000 1.0
C      1  0.6206920000000  0.4716670000000  0.7300110000000 1.0
C      1  0.3184950000000  0.4725880000000  0.6819130000000 1.0
C      1  0.3172090000000  0.5002810000000  0.3821440000000 1.0
C      1  0.4543630000000  0.5166890000000  0.2410920000000 1.0
C      1  0.2653270000000  0.5426020000000  0.4528850000000 1.0
C      1  0.3786190000000  0.5309910000000  0.7311080000000 1.0
C      1  0.6820460000000  0.5287280000000  0.6811140000000 1.0
C      1  0.6855620000000  0.4981620000000  0.3787260000000 1.0
C      1  0.2774850000000  0.5286900000000  0.6146600000000 1.0
C      1  0.3458850000000  0.5739020000000  0.3243210000000 1.0
C      1  0.5793270000000  0.5568340000000  0.2763220000000 1.0
C      1  0.7392310000000  0.5156960000000  0.5272110000000 1.0
C      1  0.5422690000000  0.5250320000000  0.7504900000000 1.0
C      1  0.7234590000000  0.4732730000000  0.6130900000000 1.0
C      1  0.6545360000000  0.4242750000000  0.3220400000000 1.0
C      1  0.4192370000000  0.4399680000000  0.2767740000000 1.0
C      1  0.2624990000000  0.4841780000000  0.5296930000000 1.0
C      1  0.4575050000000  0.4779560000000  0.7497280000000 1.0
C      1  0.4290480000000  0.6220130000000  0.2903560000000 1.0
C      1  0.6584250000000  0.5864210000000  0.4116280000000 1.0
C      1  0.6360420000000  0.6122860000000  0.6596540000000 1.0
C      1  0.3852010000000  0.6180870000000  0.6871900000000 1.0
C      1  0.2816940000000  0.6385690000000  0.4587230000000 1.0
C      1  0.5705830000000  0.3763250000000  0.2888820000000 1.0
C      1  0.3408900000000  0.4103000000000  0.4115040000000 1.0
C      1  0.3639140000000  0.3893020000000  0.6578740000000 1.0
C      1  0.6141040000000  0.3859660000000  0.6835430000000 1.0
C      1  0.7203010000000  0.3617410000000  0.4551920000000 1.0
END
