TITL C-1525613-7943-2400 1.61620654039595 3375 -7541.54296719651 0 0 60 (C5) n - 1
REM
REM in /home/nfs/bkarasulu/CARBON/AIRSS/Generating-Clusters/ReaxFF-fromJPCA2015/Units_Real/Try2-Higher-symm/Only-C60
REM
REM
REM
REM
REM
REM ./C.cell (863b2abdce7293c0672fb3ba77bf323a)
REM AIRSS Version 0.9.1 bugfix July 2018 build 013d7b7c2542+ Fri, 06 Jul 2018 19:26:36 +0100
REM compiler GCC version 9.2.1 20190827 (Red Hat 9.2.1-1)
REM options -cpp -mtune=generic -march=x86-64 -g -O0 -fpre-include=/usr/include/finclude/math-vector-fortran.h
REM seed -1573625058 601558340 173881187 -1866290313 -43582109 928430734 1071327496 -1048745831 -256229410 -717782052 1809059247 -1214582354 -881779470 -1043187566 -2470024 -1690822822 162252631 991129584 -1468336275 -1869881770 1383721189 1752484936 -1839209206 315399701 -829113049 1650201479 -200701995 782208107 1989444185 1168892906 186272559 -910157029 -225218947
REM
CELL 1.54180   15.00000   15.00000   15.00000   90.00000   90.00000   90.00000
LATT -1
SFAC C  
C      1  0.7738230000000  0.6483570000000  0.6099690000000 1.0
C      1  0.4478240000000  0.8083040000000  0.6142780000000 1.0
C      1  0.1914820000000  0.5411680000000  0.6104290000000 1.0
C      1  0.3705600000000  0.2199510000000  0.6120520000000 1.0
C      1  0.7250920000000  0.2857680000000  0.6118410000000 1.0
C      1  0.7738140000000  0.3516470000000  0.6099610000000 1.0
C      1  0.4478160000000  0.1916600000000  0.6142800000000 1.0
C      1  0.1914850000000  0.4588280000000  0.6104230000000 1.0
C      1  0.3705660000000  0.7800240000000  0.6120470000000 1.0
C      1  0.7250960000000  0.7142330000000  0.6118380000000 1.0
C      1  0.3495910000000  0.5486750000000  0.3085490000000 1.0
C      1  0.4074270000000  0.3711200000000  0.3089220000000 1.0
C      1  0.5940340000000  0.3715260000000  0.3100670000000 1.0
C      1  0.6505020000000  0.5497590000000  0.3096300000000 1.0
C      1  0.4998330000000  0.6591450000000  0.3098380000000 1.0
C      1  0.3496280000000  0.4505520000000  0.3084280000000 1.0
C      1  0.4067560000000  0.6281960000000  0.3092540000000 1.0
C      1  0.5931030000000  0.6293330000000  0.3100430000000 1.0
C      1  0.6507580000000  0.4514840000000  0.3095940000000 1.0
C      1  0.5009480000000  0.3406810000000  0.3098800000000 1.0
C      1  0.4072650000000  0.3737230000000  0.4062670000000 1.0
C      1  0.5922950000000  0.3723560000000  0.4077150000000 1.0
C      1  0.6498820000000  0.5480200000000  0.4064950000000 1.0
C      1  0.5004050000000  0.6565760000000  0.4073150000000 1.0
C      1  0.3504760000000  0.5491160000000  0.4061550000000 1.0
C      1  0.4083340000000  0.6268380000000  0.4062730000000 1.0
C      1  0.5928200000000  0.6265910000000  0.4074980000000 1.0
C      1  0.6499570000000  0.4512110000000  0.4066920000000 1.0
C      1  0.4991970000000  0.3431040000000  0.4068880000000 1.0
C      1  0.3501550000000  0.4519470000000  0.4060390000000 1.0
C      1  0.6429410000000  0.4535710000000  0.5579720000000 1.0
C      1  0.5866690000000  0.6212130000000  0.5591670000000 1.0
C      1  0.4111520000000  0.6209490000000  0.5585670000000 1.0
C      1  0.3555950000000  0.4536620000000  0.5584720000000 1.0
C      1  0.4989000000000  0.3495080000000  0.5591530000000 1.0
C      1  0.6429320000000  0.5464440000000  0.5578330000000 1.0
C      1  0.5866560000000  0.3788030000000  0.5593050000000 1.0
C      1  0.4111320000000  0.3790600000000  0.5587800000000 1.0
C      1  0.3555980000000  0.5463400000000  0.5584370000000 1.0
C      1  0.4989170000000  0.6504900000000  0.5588780000000 1.0
C      1  0.5584920000000  0.1791730000000  0.5585870000000 1.0
C      1  0.8226560000000  0.4573970000000  0.5591900000000 1.0
C      1  0.6390590000000  0.7928830000000  0.5609130000000 1.0
C      1  0.2655630000000  0.7228130000000  0.5608160000000 1.0
C      1  0.2137840000000  0.3443320000000  0.5600260000000 1.0
C      1  0.5584940000000  0.8208370000000  0.5585880000000 1.0
C      1  0.8226580000000  0.5426070000000  0.5592000000000 1.0
C      1  0.6390560000000  0.2071130000000  0.5609040000000 1.0
C      1  0.2655710000000  0.2771910000000  0.5608220000000 1.0
C      1  0.2137770000000  0.6556650000000  0.5600350000000 1.0
C      1  0.7390030000000  0.4180130000000  0.5533310000000 1.0
C      1  0.6499320000000  0.7013490000000  0.5569960000000 1.0
C      1  0.3554260000000  0.7062830000000  0.5542330000000 1.0
C      1  0.2584150000000  0.4255890000000  0.5536190000000 1.0
C      1  0.4919570000000  0.2455180000000  0.5496590000000 1.0
C      1  0.7389990000000  0.5819780000000  0.5533630000000 1.0
C      1  0.6499460000000  0.2986430000000  0.5569790000000 1.0
C      1  0.3554370000000  0.2937520000000  0.5543030000000 1.0
C      1  0.2584080000000  0.5744110000000  0.5536250000000 1.0
C      1  0.4919500000000  0.7545200000000  0.5495850000000 1.0
END
