TITL C-1525613-7943-2333 0.10649323609013 3375 -8793.3010658291 0 0 60 (C2) n - 1
REM
REM in /home/nfs/bkarasulu/CARBON/AIRSS/Generating-Clusters/ReaxFF-fromJPCA2015/Units_Real/Try2-Higher-symm/Only-C60
REM
REM
REM
REM
REM
REM ./C.cell (863b2abdce7293c0672fb3ba77bf323a)
REM AIRSS Version 0.9.1 bugfix July 2018 build 013d7b7c2542+ Fri, 06 Jul 2018 19:26:36 +0100
REM compiler GCC version 9.2.1 20190827 (Red Hat 9.2.1-1)
REM options -cpp -mtune=generic -march=x86-64 -g -O0 -fpre-include=/usr/include/finclude/math-vector-fortran.h
REM seed -1589382888 -1652578741 734748791 -1850740995 -1427636522 -1089951266 963466773 1221177218 -674830276 -137552728 -985314972 -1415337205 -1466686897 948717269 1292193955 415336173 112555415 -1983959699 1331864033 188307743 -691293912 2136807907 1047165541 -1770910202 -176464431 -1330669903 2119235104 -1772444370 -1448154694 -1829737277 -487765704 -782492534 2019011936
REM
CELL 1.54180   15.00000   15.00000   15.00000   90.00000   90.00000   90.00000
LATT -1
SFAC C  
C      1  0.7810520000000  0.4289130000000  0.6432880000000 1.0
C      1  0.7803830000000  0.3423890000000  0.4805470000000 1.0
C      1  0.7795060000000  0.4685400000000  0.3466670000000 1.0
C      1  0.7743200000000  0.6348740000000  0.4258510000000 1.0
C      1  0.7742820000000  0.6110070000000  0.6088360000000 1.0
C      1  0.2189670000000  0.5710790000000  0.6432780000000 1.0
C      1  0.2196240000000  0.6576140000000  0.4805470000000 1.0
C      1  0.2204840000000  0.5314590000000  0.3466700000000 1.0
C      1  0.2256600000000  0.3651270000000  0.4258540000000 1.0
C      1  0.2257420000000  0.3889920000000  0.6088390000000 1.0
C      1  0.3845540000000  0.5240210000000  0.6705240000000 1.0
C      1  0.3930440000000  0.3426150000000  0.5748260000000 1.0
C      1  0.3914650000000  0.3858660000000  0.3678050000000 1.0
C      1  0.3888010000000  0.5895310000000  0.3444410000000 1.0
C      1  0.3877010000000  0.6752270000000  0.5349110000000 1.0
C      1  0.6154590000000  0.4759860000000  0.6705480000000 1.0
C      1  0.6069510000000  0.6573690000000  0.5748360000000 1.0
C      1  0.6085130000000  0.6141310000000  0.3678180000000 1.0
C      1  0.6111900000000  0.4104720000000  0.3444530000000 1.0
C      1  0.6123100000000  0.3247720000000  0.5349330000000 1.0
C      1  0.4470810000000  0.4245590000000  0.5397690000000 1.0
C      1  0.4501430000000  0.4435400000000  0.4320140000000 1.0
C      1  0.4488160000000  0.5456140000000  0.4216380000000 1.0
C      1  0.4429960000000  0.5859080000000  0.5183570000000 1.0
C      1  0.4172750000000  0.5107820000000  0.5765740000000 1.0
C      1  0.5529140000000  0.5754150000000  0.5397930000000 1.0
C      1  0.5498450000000  0.5564560000000  0.4320360000000 1.0
C      1  0.5511790000000  0.4543880000000  0.4216460000000 1.0
C      1  0.5570130000000  0.4140810000000  0.5183740000000 1.0
C      1  0.5827200000000  0.4892110000000  0.5765940000000 1.0
C      1  0.8004630000000  0.3950770000000  0.5565880000000 1.0
C      1  0.8000170000000  0.4133440000000  0.4208070000000 1.0
C      1  0.7963570000000  0.5480240000000  0.3951770000000 1.0
C      1  0.7932340000000  0.6130830000000  0.5160470000000 1.0
C      1  0.7956460000000  0.5188900000000  0.6161490000000 1.0
C      1  0.1995520000000  0.6049190000000  0.5566020000000 1.0
C      1  0.1999820000000  0.5866570000000  0.4208070000000 1.0
C      1  0.2036270000000  0.4519780000000  0.3951800000000 1.0
C      1  0.2067560000000  0.3869190000000  0.5160420000000 1.0
C      1  0.2043640000000  0.4811330000000  0.6161560000000 1.0
C      1  0.3617020000000  0.4325460000000  0.6777700000000 1.0
C      1  0.3577440000000  0.3219860000000  0.4916610000000 1.0
C      1  0.3548110000000  0.4567670000000  0.3220640000000 1.0
C      1  0.3534350000000  0.6522970000000  0.4012140000000 1.0
C      1  0.3514730000000  0.6478170000000  0.6151290000000 1.0
C      1  0.6382920000000  0.5674580000000  0.6777950000000 1.0
C      1  0.6422550000000  0.6780140000000  0.4916780000000 1.0
C      1  0.6451790000000  0.5432380000000  0.3220740000000 1.0
C      1  0.6465560000000  0.3477090000000  0.4012340000000 1.0
C      1  0.6485480000000  0.3521870000000  0.6151490000000 1.0
C      1  0.6835060000000  0.4644970000000  0.3022150000000 1.0
C      1  0.6772230000000  0.6739920000000  0.4092560000000 1.0
C      1  0.6789620000000  0.6420030000000  0.6423370000000 1.0
C      1  0.6857780000000  0.4036040000000  0.6785510000000 1.0
C      1  0.6829620000000  0.3019050000000  0.4688730000000 1.0
C      1  0.3164810000000  0.5355090000000  0.3022120000000 1.0
C      1  0.3227540000000  0.3260200000000  0.4092450000000 1.0
C      1  0.3210680000000  0.3579880000000  0.6423270000000 1.0
C      1  0.3142380000000  0.5963990000000  0.6785310000000 1.0
C      1  0.3170420000000  0.6981020000000  0.4688620000000 1.0
END
