TITL C-1525613-7943-3981 -0.00125376467778846 3375 -9342.78966397208 0 0 60 (C1) n - 1
REM
REM in /home/nfs/bkarasulu/CARBON/AIRSS/Generating-Clusters/ReaxFF-fromJPCA2015/Units_Real/Try2-Higher-symm/Only-C60
REM
REM
REM
REM
REM
REM ./C.cell (863b2abdce7293c0672fb3ba77bf323a)
REM AIRSS Version 0.9.1 bugfix July 2018 build 013d7b7c2542+ Fri, 06 Jul 2018 19:26:36 +0100
REM compiler GCC version 9.2.1 20190827 (Red Hat 9.2.1-1)
REM options -cpp -mtune=generic -march=x86-64 -g -O0 -fpre-include=/usr/include/finclude/math-vector-fortran.h
REM seed 1506406795 247792773 400858685 133427291 -1374533811 601960893 -330737621 726525461 -646497250 29540603 -1693485474 1099383657 -732122700 -1111676694 -244462760 849683068 -200691559 1865654736 954645112 1843072814 -1017353325 19249435 1953481188 -1518810004 -81800594 1925011128 903374945 1775647653 987005450 1581450426 -791684908 -1143135682 -992190092
REM
CELL 1.54180   15.00000   15.00000   15.00000   90.00000   90.00000   90.00000
LATT -1
SFAC C  
C      1  0.5563090000000  0.5559990000000  0.2834150000000 1.0
C      1  0.3673970000000  0.5282910000000  0.2348100000000 1.0
C      1  0.2460060000000  0.5218990000000  0.3497070000000 1.0
C      1  0.2718630000000  0.5392840000000  0.5414630000000 1.0
C      1  0.2920940000000  0.5424910000000  0.6368160000000 1.0
C      1  0.4447220000000  0.5418120000000  0.7847830000000 1.0
C      1  0.6224480000000  0.5423320000000  0.7342750000000 1.0
C      1  0.7754680000000  0.5217270000000  0.6419650000000 1.0
C      1  0.7418450000000  0.5319020000000  0.4455770000000 1.0
C      1  0.7079370000000  0.5302650000000  0.3553080000000 1.0
C      1  0.3844430000000  0.4083190000000  0.7002540000000 1.0
C      1  0.5307760000000  0.4004300000000  0.7360280000000 1.0
C      1  0.6681030000000  0.3907380000000  0.6779420000000 1.0
C      1  0.7387460000000  0.3897330000000  0.5469200000000 1.0
C      1  0.7197070000000  0.3864640000000  0.4024500000000 1.0
C      1  0.6157750000000  0.4065760000000  0.3019570000000 1.0
C      1  0.4746860000000  0.4051770000000  0.2686360000000 1.0
C      1  0.3357870000000  0.3798040000000  0.3159310000000 1.0
C      1  0.2668070000000  0.3908530000000  0.4475220000000 1.0
C      1  0.2832210000000  0.3928100000000  0.5944650000000 1.0
C      1  0.5207140000000  0.3489710000000  0.6546260000000 1.0
C      1  0.6098300000000  0.3434070000000  0.6163250000000 1.0
C      1  0.6564650000000  0.3406140000000  0.5316050000000 1.0
C      1  0.6455200000000  0.3375290000000  0.4356030000000 1.0
C      1  0.5777490000000  0.3485480000000  0.3668940000000 1.0
C      1  0.4836700000000  0.3471090000000  0.3456880000000 1.0
C      1  0.3939850000000  0.3350060000000  0.3800990000000 1.0
C      1  0.3482870000000  0.3398650000000  0.4655810000000 1.0
C      1  0.3598690000000  0.3406710000000  0.5619610000000 1.0
C      1  0.4262200000000  0.3534010000000  0.6317440000000 1.0
C      1  0.5288750000000  0.6966190000000  0.3430630000000 1.0
C      1  0.4612590000000  0.7153440000000  0.4032130000000 1.0
C      1  0.4061900000000  0.7078790000000  0.4582020000000 1.0
C      1  0.3448990000000  0.6847790000000  0.5211220000000 1.0
C      1  0.3735300000000  0.6843690000000  0.6175610000000 1.0
C      1  0.4591920000000  0.6736850000000  0.6622840000000 1.0
C      1  0.5528640000000  0.6613370000000  0.6266260000000 1.0
C      1  0.5895380000000  0.6698350000000  0.5453740000000 1.0
C      1  0.6439310000000  0.6671040000000  0.4708190000000 1.0
C      1  0.6172320000000  0.6691980000000  0.3748260000000 1.0
C      1  0.4841230000000  0.6161160000000  0.3063190000000 1.0
C      1  0.3869500000000  0.5923740000000  0.3057880000000 1.0
C      1  0.3128740000000  0.5863260000000  0.3795190000000 1.0
C      1  0.3108820000000  0.6031400000000  0.4782840000000 1.0
C      1  0.3309540000000  0.6216240000000  0.6787750000000 1.0
C      1  0.4152390000000  0.6221490000000  0.7371570000000 1.0
C      1  0.6337510000000  0.6091660000000  0.6654970000000 1.0
C      1  0.7150710000000  0.5897840000000  0.6049770000000 1.0
C      1  0.7090170000000  0.5997450000000  0.5068830000000 1.0
C      1  0.6380530000000  0.5905630000000  0.3246400000000 1.0
C      1  0.6181520000000  0.4425180000000  0.7437560000000 1.0
C      1  0.7500550000000  0.4242720000000  0.6369340000000 1.0
C      1  0.7628610000000  0.4386390000000  0.4671820000000 1.0
C      1  0.6991040000000  0.4372840000000  0.3281350000000 1.0
C      1  0.5525870000000  0.4619760000000  0.2604750000000 1.0
C      1  0.3838110000000  0.4291300000000  0.2470810000000 1.0
C      1  0.2577030000000  0.4216780000000  0.3561390000000 1.0
C      1  0.2443430000000  0.4466880000000  0.5237730000000 1.0
C      1  0.3022720000000  0.4501770000000  0.6699520000000 1.0
C      1  0.4482400000000  0.4444700000000  0.7652940000000 1.0
END
