TITL C-1525613-7943-1085 -0.000959680442392377 3375 -9547.92868608976 0 0 60 (D5d) n - 1
REM
REM in /home/nfs/bkarasulu/CARBON/AIRSS/Generating-Clusters/ReaxFF-fromJPCA2015/Units_Real/Try2-Higher-symm/Only-C60
REM
REM
REM
REM
REM
REM ./C.cell (863b2abdce7293c0672fb3ba77bf323a)
REM AIRSS Version 0.9.1 bugfix July 2018 build 013d7b7c2542+ Fri, 06 Jul 2018 19:26:36 +0100
REM compiler GCC version 9.2.1 20190827 (Red Hat 9.2.1-1)
REM options -cpp -mtune=generic -march=x86-64 -g -O0 -fpre-include=/usr/include/finclude/math-vector-fortran.h
REM seed -1202459925 -1065482273 -1733651662 -747586065 1018502763 -1637639625 1273685074 1677975165 -1612044247 -723439365 1106836172 1587693501 2020942959 582340762 2044739623 1487656739 -1787776932 -90621819 27966448 -2068226095 -836915431 1228433636 1882611991 -856611988 -1734629674 -1501407563 -2010095120 -1680763515 625089387 1098975224 -2107415116 -15964991 1750748436
REM
CELL 1.54180   15.00000   15.00000   15.00000   90.00000   90.00000   90.00000
LATT -1
SFAC C  
C      1  0.5545790000000  0.4583420000000  0.2229120000000 1.0
C      1  0.7070310000000  0.5416140000000  0.3079290000000 1.0
C      1  0.7803730000000  0.4582840000000  0.4662950000000 1.0
C      1  0.7466580000000  0.5415890000000  0.6375450000000 1.0
C      1  0.6186910000000  0.4583060000000  0.7562550000000 1.0
C      1  0.4454210000000  0.5416580000000  0.7770880000000 1.0
C      1  0.2929690000000  0.4583860000000  0.6920710000000 1.0
C      1  0.2196270000000  0.5417160000000  0.5337050000000 1.0
C      1  0.2533420000000  0.4584110000000  0.3624550000000 1.0
C      1  0.3813090000000  0.5416940000000  0.2437450000000 1.0
C      1  0.4650910000000  0.6462840000000  0.4245700000000 1.0
C      1  0.5160360000000  0.3537290000000  0.4184260000000 1.0
C      1  0.5609760000000  0.6462640000000  0.4434650000000 1.0
C      1  0.5825040000000  0.3537080000000  0.4900720000000 1.0
C      1  0.5726420000000  0.6462540000000  0.5404970000000 1.0
C      1  0.5349090000000  0.3537160000000  0.5754300000000 1.0
C      1  0.4839640000000  0.6462710000000  0.5815740000000 1.0
C      1  0.4390240000000  0.3537360000000  0.5565350000000 1.0
C      1  0.4174960000000  0.6462920000000  0.5099280000000 1.0
C      1  0.4273580000000  0.3537460000000  0.4595030000000 1.0
C      1  0.6108780000000  0.5551840000000  0.7393430000000 1.0
C      1  0.4490020000000  0.4447810000000  0.7587920000000 1.0
C      1  0.3066590000000  0.5552600000000  0.6793960000000 1.0
C      1  0.2381160000000  0.4448360000000  0.5314750000000 1.0
C      1  0.2696490000000  0.5552820000000  0.3715400000000 1.0
C      1  0.3891220000000  0.4448160000000  0.2606570000000 1.0
C      1  0.5509980000000  0.5552190000000  0.2412080000000 1.0
C      1  0.6933410000000  0.4447400000000  0.3206040000000 1.0
C      1  0.7618840000000  0.5551640000000  0.4685250000000 1.0
C      1  0.7303510000000  0.4447180000000  0.6284600000000 1.0
C      1  0.3675100000000  0.3627500000000  0.6228910000000 1.0
C      1  0.3206330000000  0.6373150000000  0.5215700000000 1.0
C      1  0.3421550000000  0.3627690000000  0.4119870000000 1.0
C      1  0.4240860000000  0.6372940000000  0.3360460000000 1.0
C      1  0.5348930000000  0.3627290000000  0.3227070000000 1.0
C      1  0.6324900000000  0.6372500000000  0.3771090000000 1.0
C      1  0.6793670000000  0.3626850000000  0.4784300000000 1.0
C      1  0.6578450000000  0.6372310000000  0.5880130000000 1.0
C      1  0.5759140000000  0.3627060000000  0.6639540000000 1.0
C      1  0.4651070000000  0.6372710000000  0.6772930000000 1.0
C      1  0.7281290000000  0.4041410000000  0.4019100000000 1.0
C      1  0.7422560000000  0.5957530000000  0.5547600000000 1.0
C      1  0.6637660000000  0.4041420000000  0.6866780000000 1.0
C      1  0.5228060000000  0.5957960000000  0.7473090000000 1.0
C      1  0.3730550000000  0.4042100000000  0.7134560000000 1.0
C      1  0.2718710000000  0.5958590000000  0.5980900000000 1.0
C      1  0.2577440000000  0.4042470000000  0.4452400000000 1.0
C      1  0.3362340000000  0.5958580000000  0.3133220000000 1.0
C      1  0.4771940000000  0.4042040000000  0.2526910000000 1.0
C      1  0.6269450000000  0.5957900000000  0.2865440000000 1.0
C      1  0.2551250000000  0.5958700000000  0.4587810000000 1.0
C      1  0.3260790000000  0.4042400000000  0.3226930000000 1.0
C      1  0.4635480000000  0.5958300000000  0.2543450000000 1.0
C      1  0.6148580000000  0.4041700000000  0.2798160000000 1.0
C      1  0.7223750000000  0.5957660000000  0.3894060000000 1.0
C      1  0.7448750000000  0.4041300000000  0.5412190000000 1.0
C      1  0.6739210000000  0.5957600000000  0.6773070000000 1.0
C      1  0.5364520000000  0.4041700000000  0.7456550000000 1.0
C      1  0.3851420000000  0.5958300000000  0.7201840000000 1.0
C      1  0.2776250000000  0.4042340000000  0.6105940000000 1.0
END
