TITL C-1525613-7943-2987 -0.0143637570715327 3375 -8659.85231452011 0 0 60 (Ci) n - 1
REM
REM in /home/nfs/bkarasulu/CARBON/AIRSS/Generating-Clusters/ReaxFF-fromJPCA2015/Units_Real/Try2-Higher-symm/Only-C60
REM
REM
REM
REM
REM
REM ./C.cell (863b2abdce7293c0672fb3ba77bf323a)
REM AIRSS Version 0.9.1 bugfix July 2018 build 013d7b7c2542+ Fri, 06 Jul 2018 19:26:36 +0100
REM compiler GCC version 9.2.1 20190827 (Red Hat 9.2.1-1)
REM options -cpp -mtune=generic -march=x86-64 -g -O0 -fpre-include=/usr/include/finclude/math-vector-fortran.h
REM seed 1219918132 -834311745 -8434107 -873608993 846183889 1832886115 323148400 1154875789 -94792623 1292452117 2109600000 -2122614896 1337489170 -857294563 557290292 1455596753 732142618 949912039 1251842782 -1459075952 -1476141398 84210597 -1408914759 1272945337 1990542836 -1877069656 -283700022 -1830859268 1825969587 -1466390892 -951523669 535029574 -2058770642
REM
CELL 1.54180   15.00000   15.00000   15.00000   90.00000   90.00000   90.00000
LATT -1
SFAC C  
C      1  0.3983040000000  0.5855000000000  0.4894560000000 1.0
C      1  0.3701040000000  0.5109580000000  0.5165240000000 1.0
C      1  0.3886910000000  0.4320930000000  0.4832900000000 1.0
C      1  0.4495720000000  0.3789340000000  0.5157290000000 1.0
C      1  0.5316280000000  0.3734880000000  0.4923560000000 1.0
C      1  0.6020400000000  0.4139650000000  0.5099010000000 1.0
C      1  0.6296770000000  0.4884820000000  0.4831100000000 1.0
C      1  0.6106700000000  0.5672320000000  0.5161650000000 1.0
C      1  0.5513310000000  0.6209760000000  0.4868760000000 1.0
C      1  0.4697020000000  0.6254150000000  0.5070490000000 1.0
C      1  0.7316950000000  0.4934740000000  0.4945990000000 1.0
C      1  0.6904250000000  0.6310420000000  0.5066430000000 1.0
C      1  0.5780120000000  0.7163840000000  0.4943630000000 1.0
C      1  0.4349870000000  0.7203880000000  0.5034410000000 1.0
C      1  0.3156080000000  0.6410640000000  0.4963370000000 1.0
C      1  0.2685960000000  0.5063110000000  0.5054610000000 1.0
C      1  0.3096070000000  0.3687480000000  0.4938000000000 1.0
C      1  0.4222610000000  0.2829740000000  0.5056190000000 1.0
C      1  0.5671310000000  0.2796980000000  0.4950030000000 1.0
C      1  0.6847160000000  0.3609290000000  0.5043300000000 1.0
C      1  0.4099950000000  0.3487190000000  0.6370230000000 1.0
C      1  0.5169260000000  0.3243770000000  0.3623700000000 1.0
C      1  0.6157610000000  0.3679050000000  0.6363430000000 1.0
C      1  0.6715250000000  0.4631590000000  0.3629880000000 1.0
C      1  0.6605030000000  0.5715440000000  0.6364820000000 1.0
C      1  0.5892120000000  0.6516090000000  0.3636960000000 1.0
C      1  0.4831380000000  0.6755370000000  0.6375920000000 1.0
C      1  0.3836270000000  0.6316090000000  0.3634330000000 1.0
C      1  0.3284600000000  0.5366460000000  0.6367900000000 1.0
C      1  0.3392410000000  0.4287690000000  0.3628450000000 1.0
C      1  0.2831880000000  0.5001840000000  0.4084420000000 1.0
C      1  0.3238200000000  0.3723610000000  0.5915370000000 1.0
C      1  0.4329410000000  0.2942440000000  0.4077610000000 1.0
C      1  0.5657880000000  0.2935950000000  0.5933120000000 1.0
C      1  0.6736560000000  0.3714440000000  0.4071310000000 1.0
C      1  0.7167210000000  0.5003330000000  0.5914590000000 1.0
C      1  0.6757000000000  0.6276820000000  0.4089820000000 1.0
C      1  0.5670600000000  0.7058060000000  0.5929690000000 1.0
C      1  0.4334460000000  0.7069450000000  0.4057510000000 1.0
C      1  0.3259900000000  0.6280310000000  0.5935000000000 1.0
C      1  0.4258780000000  0.4636850000000  0.3317280000000 1.0
C      1  0.4608960000000  0.4253740000000  0.6683520000000 1.0
C      1  0.5118250000000  0.4169860000000  0.3317270000000 1.0
C      1  0.5585520000000  0.4393550000000  0.6680710000000 1.0
C      1  0.5813330000000  0.4863700000000  0.3316620000000 1.0
C      1  0.5742750000000  0.5363560000000  0.6680940000000 1.0
C      1  0.5391650000000  0.5749000000000  0.3318540000000 1.0
C      1  0.4881830000000  0.5831850000000  0.6682420000000 1.0
C      1  0.4414530000000  0.5605850000000  0.3319110000000 1.0
C      1  0.4186460000000  0.5136590000000  0.6683610000000 1.0
C      1  0.7006050000000  0.4024950000000  0.5945150000000 1.0
C      1  0.7215990000000  0.5403560000000  0.4062360000000 1.0
C      1  0.6563580000000  0.6640330000000  0.5954340000000 1.0
C      1  0.5317040000000  0.7216120000000  0.4041040000000 1.0
C      1  0.3962560000000  0.6971910000000  0.5945830000000 1.0
C      1  0.2999770000000  0.5972140000000  0.4055600000000 1.0
C      1  0.2780680000000  0.4596420000000  0.5939320000000 1.0
C      1  0.3440950000000  0.3368290000000  0.4047030000000 1.0
C      1  0.4667560000000  0.2786910000000  0.5961920000000 1.0
C      1  0.6029260000000  0.3029270000000  0.4042820000000 1.0
END
