TITL C-1525613-7943-4061 0.217355313291803 3375 -8219.40199746713 0 0 60 (Cs) n - 1
REM
REM in /home/nfs/bkarasulu/CARBON/AIRSS/Generating-Clusters/ReaxFF-fromJPCA2015/Units_Real/Try2-Higher-symm/Only-C60
REM
REM
REM
REM
REM
REM ./C.cell (863b2abdce7293c0672fb3ba77bf323a)
REM AIRSS Version 0.9.1 bugfix July 2018 build 013d7b7c2542+ Fri, 06 Jul 2018 19:26:36 +0100
REM compiler GCC version 9.2.1 20190827 (Red Hat 9.2.1-1)
REM options -cpp -mtune=generic -march=x86-64 -g -O0 -fpre-include=/usr/include/finclude/math-vector-fortran.h
REM seed -1572254063 -1511271293 -1669326430 -1526820197 1081365666 1953596712 772868036 -674333192 -1084881348 -1544540054 390749807 -503523116 776800020 723283073 383511886 1151588310 -307013303 1621556192 -1327449128 1417772174 -1191710326 1216152454 576614906 1913434506 1745153124 1870495636 1721108431 967554097 613502898 -565534569 -250992394 731456161 -512733941
REM
CELL 1.54180   15.00000   15.00000   15.00000   90.00000   90.00000   90.00000
LATT -1
SFAC C  
C      1  0.6516470000000  0.5486290000000  0.2727920000000 1.0
C      1  0.5005800000000  0.6576450000000  0.2711830000000 1.0
C      1  0.3488960000000  0.5494860000000  0.2726110000000 1.0
C      1  0.4060200000000  0.3719850000000  0.2721180000000 1.0
C      1  0.5926570000000  0.3722000000000  0.2715500000000 1.0
C      1  0.6513650000000  0.4504930000000  0.2726840000000 1.0
C      1  0.4995610000000  0.3421220000000  0.2714360000000 1.0
C      1  0.3486230000000  0.4512640000000  0.2727060000000 1.0
C      1  0.4067740000000  0.6282430000000  0.2721270000000 1.0
C      1  0.5934240000000  0.6269730000000  0.2716790000000 1.0
C      1  0.5907550000000  0.6269690000000  0.6728650000000 1.0
C      1  0.4090090000000  0.6251320000000  0.6813710000000 1.0
C      1  0.3529620000000  0.4520560000000  0.6772170000000 1.0
C      1  0.4995620000000  0.3429730000000  0.6734170000000 1.0
C      1  0.6448260000000  0.4521940000000  0.6817830000000 1.0
C      1  0.5907660000000  0.3730400000000  0.6729320000000 1.0
C      1  0.4089850000000  0.3750010000000  0.6813420000000 1.0
C      1  0.3528760000000  0.5479460000000  0.6773950000000 1.0
C      1  0.4995390000000  0.6569690000000  0.6733890000000 1.0
C      1  0.6448430000000  0.5477810000000  0.6817460000000 1.0
C      1  0.6374990000000  0.7753530000000  0.5616340000000 1.0
C      1  0.2863890000000  0.7147350000000  0.5679800000000 1.0
C      1  0.2312850000000  0.3588670000000  0.5660620000000 1.0
C      1  0.5494400000000  0.1961270000000  0.5615760000000 1.0
C      1  0.7970480000000  0.4540900000000  0.5688490000000 1.0
C      1  0.6376790000000  0.2247160000000  0.5616420000000 1.0
C      1  0.2864140000000  0.2853270000000  0.5680270000000 1.0
C      1  0.2312680000000  0.6411050000000  0.5660170000000 1.0
C      1  0.5493470000000  0.8039530000000  0.5616370000000 1.0
C      1  0.7971210000000  0.5458520000000  0.5687660000000 1.0
C      1  0.6406710000000  0.3309360000000  0.5887160000000 1.0
C      1  0.6988350000000  0.5865170000000  0.5998490000000 1.0
C      1  0.4843900000000  0.7197800000000  0.5893560000000 1.0
C      1  0.2883150000000  0.5504440000000  0.5936640000000 1.0
C      1  0.3890560000000  0.3123990000000  0.5994720000000 1.0
C      1  0.6408030000000  0.6691100000000  0.5887490000000 1.0
C      1  0.6986770000000  0.4134940000000  0.5997790000000 1.0
C      1  0.4845000000000  0.2801750000000  0.5892670000000 1.0
C      1  0.2883970000000  0.4495720000000  0.5934730000000 1.0
C      1  0.3890310000000  0.6876040000000  0.5995300000000 1.0
C      1  0.5895560000000  0.6231580000000  0.5165160000000 1.0
C      1  0.4127390000000  0.6207620000000  0.5268700000000 1.0
C      1  0.3562340000000  0.4531760000000  0.5204570000000 1.0
C      1  0.5000490000000  0.3478650000000  0.5174500000000 1.0
C      1  0.6410480000000  0.4538520000000  0.5272280000000 1.0
C      1  0.5895410000000  0.3767410000000  0.5163660000000 1.0
C      1  0.4127730000000  0.3794120000000  0.5269840000000 1.0
C      1  0.3561910000000  0.5469160000000  0.5206070000000 1.0
C      1  0.5000960000000  0.6519510000000  0.5176780000000 1.0
C      1  0.6411400000000  0.5460260000000  0.5273860000000 1.0
C      1  0.6499130000000  0.5495420000000  0.3702140000000 1.0
C      1  0.4997690000000  0.6583630000000  0.3685650000000 1.0
C      1  0.3501870000000  0.5482850000000  0.3698130000000 1.0
C      1  0.4078070000000  0.3718430000000  0.3698420000000 1.0
C      1  0.5926670000000  0.3723970000000  0.3683400000000 1.0
C      1  0.6502780000000  0.4514010000000  0.3703920000000 1.0
C      1  0.5008480000000  0.3419420000000  0.3686440000000 1.0
C      1  0.3505770000000  0.4509520000000  0.3697250000000 1.0
C      1  0.4066690000000  0.6279470000000  0.3699320000000 1.0
C      1  0.5920860000000  0.6282130000000  0.3686020000000 1.0
END
