TITL C-1525613-7943-2360 0.278726847082707 3375 -8548.27633020439 0 0 60 (C1) n - 1
REM
REM in /home/nfs/bkarasulu/CARBON/AIRSS/Generating-Clusters/ReaxFF-fromJPCA2015/Units_Real/Try2-Higher-symm/Only-C60
REM
REM
REM
REM
REM
REM ./C.cell (863b2abdce7293c0672fb3ba77bf323a)
REM AIRSS Version 0.9.1 bugfix July 2018 build 013d7b7c2542+ Fri, 06 Jul 2018 19:26:36 +0100
REM compiler GCC version 9.2.1 20190827 (Red Hat 9.2.1-1)
REM options -cpp -mtune=generic -march=x86-64 -g -O0 -fpre-include=/usr/include/finclude/math-vector-fortran.h
REM seed -1311073084 -1363439331 1245367305 2074999668 -83366608 -231500579 137857230 854036163 -534153535 -1897011495 723314254 -1768019037 1111402896 568126811 -1670267915 1245179009 1223630542 996359759 1609543252 -1365861644 95353208 -289212779 -1301680332 -1458119176 1303995875 283263726 1501147052 -521828576 -1778003805 -212446804 1238447977 1603024971 1419806382
REM
CELL 1.54180   15.00000   15.00000   15.00000   90.00000   90.00000   90.00000
LATT -1
SFAC C  
C      1  0.3154490000000  0.3805900000000  0.6184920000000 1.0
C      1  0.2818760000000  0.3800700000000  0.4832820000000 1.0
C      1  0.3102420000000  0.3903230000000  0.3452690000000 1.0
C      1  0.4534480000000  0.3663300000000  0.3138390000000 1.0
C      1  0.5952430000000  0.3866920000000  0.2786080000000 1.0
C      1  0.6811020000000  0.3799870000000  0.3833400000000 1.0
C      1  0.7166370000000  0.3788940000000  0.5171110000000 1.0
C      1  0.6930430000000  0.3872640000000  0.6549140000000 1.0
C      1  0.5470030000000  0.3668370000000  0.6842040000000 1.0
C      1  0.4060470000000  0.3894230000000  0.7193830000000 1.0
C      1  0.3628440000000  0.6652850000000  0.4223420000000 1.0
C      1  0.4341630000000  0.6648360000000  0.3568140000000 1.0
C      1  0.5317640000000  0.6633020000000  0.3460930000000 1.0
C      1  0.6159160000000  0.6636720000000  0.3951290000000 1.0
C      1  0.6559090000000  0.6656310000000  0.4833060000000 1.0
C      1  0.6358260000000  0.6646470000000  0.5781990000000 1.0
C      1  0.5644920000000  0.6648830000000  0.6438310000000 1.0
C      1  0.4671070000000  0.6637780000000  0.6537290000000 1.0
C      1  0.3823960000000  0.6644670000000  0.6052620000000 1.0
C      1  0.3434770000000  0.6650920000000  0.5170430000000 1.0
C      1  0.6485190000000  0.4739800000000  0.6340330000000 1.0
C      1  0.5566190000000  0.4643550000000  0.6738610000000 1.0
C      1  0.4184360000000  0.4751550000000  0.6754840000000 1.0
C      1  0.3420620000000  0.4776770000000  0.6076050000000 1.0
C      1  0.3115450000000  0.4783970000000  0.4772620000000 1.0
C      1  0.3437340000000  0.4766720000000  0.3820350000000 1.0
C      1  0.4658750000000  0.4640090000000  0.3196310000000 1.0
C      1  0.5674840000000  0.4720000000000  0.3161370000000 1.0
C      1  0.6696490000000  0.4785920000000  0.4087050000000 1.0
C      1  0.6938620000000  0.4783030000000  0.5043180000000 1.0
C      1  0.6845880000000  0.5551070000000  0.6597060000000 1.0
C      1  0.5566660000000  0.5425470000000  0.7326550000000 1.0
C      1  0.4077580000000  0.5546970000000  0.7246680000000 1.0
C      1  0.2936720000000  0.5528370000000  0.6284880000000 1.0
C      1  0.2585630000000  0.5531900000000  0.4810380000000 1.0
C      1  0.3144220000000  0.5551260000000  0.3432940000000 1.0
C      1  0.4418410000000  0.5425270000000  0.2666510000000 1.0
C      1  0.5890510000000  0.5537670000000  0.2745900000000 1.0
C      1  0.7081880000000  0.5548910000000  0.3733780000000 1.0
C      1  0.7430690000000  0.5550080000000  0.5167130000000 1.0
C      1  0.4642610000000  0.3221610000000  0.7050400000000 1.0
C      1  0.3701110000000  0.3212450000000  0.6698480000000 1.0
C      1  0.3108080000000  0.3246790000000  0.5482240000000 1.0
C      1  0.3051770000000  0.3183950000000  0.4114640000000 1.0
C      1  0.3717900000000  0.3191900000000  0.3347100000000 1.0
C      1  0.5358200000000  0.3197950000000  0.2941220000000 1.0
C      1  0.6291190000000  0.3205230000000  0.3301610000000 1.0
C      1  0.6877320000000  0.3230330000000  0.4518320000000 1.0
C      1  0.6944110000000  0.3159810000000  0.5883610000000 1.0
C      1  0.6282090000000  0.3182060000000  0.6647610000000 1.0
C      1  0.7366180000000  0.6133760000000  0.4423960000000 1.0
C      1  0.7226540000000  0.6092080000000  0.5918190000000 1.0
C      1  0.6228300000000  0.6078460000000  0.7023370000000 1.0
C      1  0.4815970000000  0.6046000000000  0.7341660000000 1.0
C      1  0.3422280000000  0.6114900000000  0.6854130000000 1.0
C      1  0.2647750000000  0.6075480000000  0.5574050000000 1.0
C      1  0.2748740000000  0.6126330000000  0.4079190000000 1.0
C      1  0.3757560000000  0.6057300000000  0.2996990000000 1.0
C      1  0.5162670000000  0.6063700000000  0.2641110000000 1.0
C      1  0.6553760000000  0.6071510000000  0.3157690000000 1.0
END
