TITL C-1525613-7943-3939 0.337722286096182 3375 -8283.61784729795 0 0 60 (C10) n - 1
REM
REM in /home/nfs/bkarasulu/CARBON/AIRSS/Generating-Clusters/ReaxFF-fromJPCA2015/Units_Real/Try2-Higher-symm/Only-C60
REM
REM
REM
REM
REM
REM ./C.cell (863b2abdce7293c0672fb3ba77bf323a)
REM AIRSS Version 0.9.1 bugfix July 2018 build 013d7b7c2542+ Fri, 06 Jul 2018 19:26:36 +0100
REM compiler GCC version 9.2.1 20190827 (Red Hat 9.2.1-1)
REM options -cpp -mtune=generic -march=x86-64 -g -O0 -fpre-include=/usr/include/finclude/math-vector-fortran.h
REM seed -2011714922 -1225660990 1662358909 993872249 331512606 374709293 -854334805 1629320507 1705041863 -1020795824 948806135 -846008692 -250261115 519858068 721273486 1299322968 1446547867 1771661792 -535002388 -2070788114 -1073418642 -423346333 194114090 543905684 -1098009069 271287889 386156440 -520902261 346840648 1001876043 1891902038 -17048766 -634298546
REM
CELL 1.54180   15.00000   15.00000   15.00000   90.00000   90.00000   90.00000
LATT -1
SFAC C  
C      1  0.4147340000000  0.2695780000000  0.3914080000000 1.0
C      1  0.2956260000000  0.3636910000000  0.3913390000000 1.0
C      1  0.2543700000000  0.5096980000000  0.3912280000000 1.0
C      1  0.3069790000000  0.6522240000000  0.3912020000000 1.0
C      1  0.4334660000000  0.7365870000000  0.3911690000000 1.0
C      1  0.5852660000000  0.7304220000000  0.3914080000000 1.0
C      1  0.7043740000000  0.6363090000000  0.3913390000000 1.0
C      1  0.7456300000000  0.4903020000000  0.3912280000000 1.0
C      1  0.6930210000000  0.3477760000000  0.3912020000000 1.0
C      1  0.5665340000000  0.2634130000000  0.3911690000000 1.0
C      1  0.4451940000000  0.3547870000000  0.3473830000000 1.0
C      1  0.3703530000000  0.4147650000000  0.3472560000000 1.0
C      1  0.3449030000000  0.5072380000000  0.3473710000000 1.0
C      1  0.3787730000000  0.5970580000000  0.3473870000000 1.0
C      1  0.4589320000000  0.6497870000000  0.3472060000000 1.0
C      1  0.5548060000000  0.6452130000000  0.3473830000000 1.0
C      1  0.6296470000000  0.5852350000000  0.3472560000000 1.0
C      1  0.6550970000000  0.4927620000000  0.3473710000000 1.0
C      1  0.6212270000000  0.4029420000000  0.3473870000000 1.0
C      1  0.5410680000000  0.3502130000000  0.3472060000000 1.0
C      1  0.7742360000000  0.3995830000000  0.4224010000000 1.0
C      1  0.6627220000000  0.2575530000000  0.4223100000000 1.0
C      1  0.4890570000000  0.2082230000000  0.4224210000000 1.0
C      1  0.3195110000000  0.2703420000000  0.4223910000000 1.0
C      1  0.2188960000000  0.4200460000000  0.4223320000000 1.0
C      1  0.2257640000000  0.6004170000000  0.4224010000000 1.0
C      1  0.3372780000000  0.7424470000000  0.4223100000000 1.0
C      1  0.5109430000000  0.7917770000000  0.4224210000000 1.0
C      1  0.6804890000000  0.7296580000000  0.4223910000000 1.0
C      1  0.7811040000000  0.5799540000000  0.4223320000000 1.0
C      1  0.6810710000000  0.6089530000000  0.6806210000000 1.0
C      1  0.7106320000000  0.4817720000000  0.6807820000000 1.0
C      1  0.6598500000000  0.3611880000000  0.6808880000000 1.0
C      1  0.5478790000000  0.2936810000000  0.6809440000000 1.0
C      1  0.4174570000000  0.3052130000000  0.6807930000000 1.0
C      1  0.3189290000000  0.3910470000000  0.6806210000000 1.0
C      1  0.2893680000000  0.5182270000000  0.6807820000000 1.0
C      1  0.3401500000000  0.6388120000000  0.6808880000000 1.0
C      1  0.4521210000000  0.7063190000000  0.6809440000000 1.0
C      1  0.5825430000000  0.6947870000000  0.6807930000000 1.0
C      1  0.5192910000000  0.7226460000000  0.6183260000000 1.0
C      1  0.6468340000000  0.6691210000000  0.6181120000000 1.0
C      1  0.7184180000000  0.5505910000000  0.6181060000000 1.0
C      1  0.7059410000000  0.4127870000000  0.6182150000000 1.0
C      1  0.6153150000000  0.3084390000000  0.6182970000000 1.0
C      1  0.4807090000000  0.2773540000000  0.6183260000000 1.0
C      1  0.3531660000000  0.3308790000000  0.6181120000000 1.0
C      1  0.2815820000000  0.4494090000000  0.6181060000000 1.0
C      1  0.2940580000000  0.5872120000000  0.6182150000000 1.0
C      1  0.3846850000000  0.6915620000000  0.6182970000000 1.0
C      1  0.4203350000000  0.6323160000000  0.5400290000000 1.0
C      1  0.5132490000000  0.6537710000000  0.5400010000000 1.0
C      1  0.6011570000000  0.6164940000000  0.5399740000000 1.0
C      1  0.6503760000000  0.5348910000000  0.5400740000000 1.0
C      1  0.6421650000000  0.4397940000000  0.5400330000000 1.0
C      1  0.5796650000000  0.3676840000000  0.5400280000000 1.0
C      1  0.4867510000000  0.3462290000000  0.5400010000000 1.0
C      1  0.3988430000000  0.3835070000000  0.5399740000000 1.0
C      1  0.3496240000000  0.4651090000000  0.5400740000000 1.0
C      1  0.3578350000000  0.5602060000000  0.5400330000000 1.0
END
