TITL C-1525613-7943-3900 0.000589192322074813 3375 -8201.80467672277 0 0 60 (Cs) n - 1
REM
REM in /home/nfs/bkarasulu/CARBON/AIRSS/Generating-Clusters/ReaxFF-fromJPCA2015/Units_Real/Try2-Higher-symm/Only-C60
REM
REM
REM
REM
REM
REM ./C.cell (863b2abdce7293c0672fb3ba77bf323a)
REM AIRSS Version 0.9.1 bugfix July 2018 build 013d7b7c2542+ Fri, 06 Jul 2018 19:26:36 +0100
REM compiler GCC version 9.2.1 20190827 (Red Hat 9.2.1-1)
REM options -cpp -mtune=generic -march=x86-64 -g -O0 -fpre-include=/usr/include/finclude/math-vector-fortran.h
REM seed -783490054 -18365852 1081534342 -277081115 -1784428018 -1939151746 2062516218 39034039 -80098765 1187729544 -764091614 -746883035 167815001 -1391584271 679333652 63442062 1236089002 -582460410 -2093199092 -368522939 -1744673347 -836594345 1622128339 163691544 -1446051258 1281303770 1018885927 -2090543667 1434124491 1405645580 117602410 930878680 1197719069
REM
CELL 1.54180   15.00000   15.00000   15.00000   90.00000   90.00000   90.00000
LATT -1
SFAC C  
C      1  0.5435260000000  0.3858950000000  0.7334040000000 1.0
C      1  0.5965260000000  0.5097620000000  0.7196940000000 1.0
C      1  0.5277930000000  0.6256370000000  0.7254340000000 1.0
C      1  0.4155130000000  0.5512450000000  0.7195670000000 1.0
C      1  0.4147370000000  0.4169100000000  0.7349390000000 1.0
C      1  0.5435260000000  0.3858950000000  0.2665960000000 1.0
C      1  0.5965260000000  0.5097620000000  0.2803060000000 1.0
C      1  0.5277930000000  0.6256370000000  0.2745660000000 1.0
C      1  0.4155130000000  0.5512450000000  0.2804330000000 1.0
C      1  0.4147370000000  0.4169100000000  0.2650620000000 1.0
C      1  0.4363050000000  0.5663440000000  0.5536120000000 1.0
C      1  0.4253270000000  0.4619710000000  0.5550730000000 1.0
C      1  0.5113970000000  0.4231690000000  0.5776900000000 1.0
C      1  0.5836060000000  0.4833230000000  0.5541280000000 1.0
C      1  0.5403970000000  0.5839780000000  0.5544210000000 1.0
C      1  0.4363050000000  0.5663440000000  0.4463880000000 1.0
C      1  0.4253270000000  0.4619710000000  0.4449270000000 1.0
C      1  0.5113970000000  0.4231690000000  0.4223100000000 1.0
C      1  0.5836060000000  0.4833230000000  0.4458720000000 1.0
C      1  0.5403970000000  0.5839780000000  0.4455790000000 1.0
C      1  0.4015920000000  0.6930870000000  0.6417870000000 1.0
C      1  0.2927080000000  0.4693820000000  0.6423720000000 1.0
C      1  0.4533620000000  0.2918010000000  0.6371640000000 1.0
C      1  0.6836280000000  0.3976090000000  0.6422790000000 1.0
C      1  0.6617430000000  0.6401640000000  0.6393330000000 1.0
C      1  0.4015920000000  0.6930870000000  0.3582130000000 1.0
C      1  0.2927090000000  0.4693830000000  0.3576280000000 1.0
C      1  0.4533620000000  0.2918010000000  0.3628360000000 1.0
C      1  0.6836280000000  0.3976090000000  0.3577210000000 1.0
C      1  0.6617430000000  0.6401640000000  0.3606670000000 1.0
C      1  0.6062700000000  0.5956010000000  0.2925500000000 1.0
C      1  0.4441700000000  0.6326530000000  0.2927070000000 1.0
C      1  0.3621440000000  0.4822420000000  0.2894200000000 1.0
C      1  0.4665860000000  0.3518900000000  0.2860850000000 1.0
C      1  0.6171600000000  0.4253290000000  0.2907740000000 1.0
C      1  0.6062700000000  0.5956010000000  0.7074500000000 1.0
C      1  0.4441700000000  0.6326530000000  0.7072930000000 1.0
C      1  0.3621440000000  0.4822420000000  0.7105800000000 1.0
C      1  0.4665860000000  0.3518900000000  0.7139150000000 1.0
C      1  0.6171600000000  0.4253290000000  0.7092260000000 1.0
C      1  0.3401090000000  0.4270200000000  0.4209640000000 1.0
C      1  0.5208390000000  0.3300180000000  0.4141610000000 1.0
C      1  0.6728110000000  0.4590430000000  0.4220980000000 1.0
C      1  0.5944780000000  0.6599790000000  0.4183210000000 1.0
C      1  0.3752850000000  0.6358880000000  0.4218380000000 1.0
C      1  0.3401090000000  0.4270200000000  0.5790350000000 1.0
C      1  0.5208380000000  0.3300180000000  0.5858390000000 1.0
C      1  0.6728110000000  0.4590430000000  0.5779020000000 1.0
C      1  0.5944780000000  0.6599790000000  0.5816790000000 1.0
C      1  0.3752850000000  0.6358880000000  0.5781620000000 1.0
C      1  0.3889080000000  0.7220270000000  0.5481530000000 1.0
C      1  0.2618600000000  0.4633740000000  0.5481810000000 1.0
C      1  0.4728640000000  0.2611890000000  0.5476790000000 1.0
C      1  0.7097430000000  0.3803150000000  0.5481360000000 1.0
C      1  0.6786140000000  0.6731550000000  0.5483520000000 1.0
C      1  0.3889070000000  0.7220270000000  0.4518470000000 1.0
C      1  0.2618600000000  0.4633740000000  0.4518190000000 1.0
C      1  0.4728640000000  0.2611890000000  0.4523210000000 1.0
C      1  0.7097430000000  0.3803160000000  0.4518640000000 1.0
C      1  0.6786140000000  0.6731550000000  0.4516480000000 1.0
END
