TITL C-1525613-7943-6953 -0.00078469103951481 3375 -9573.94446537973 0 0 60 (D10) n - 1
REM
REM in /home/nfs/bkarasulu/CARBON/AIRSS/Generating-Clusters/ReaxFF-fromJPCA2015/Units_Real/Try2-Higher-symm/Only-C60
REM
REM
REM
REM
REM
REM ./C.cell (863b2abdce7293c0672fb3ba77bf323a)
REM AIRSS Version 0.9.1 bugfix July 2018 build 013d7b7c2542+ Fri, 06 Jul 2018 19:26:36 +0100
REM compiler GCC version 9.2.1 20190827 (Red Hat 9.2.1-1)
REM options -cpp -mtune=generic -march=x86-64 -g -O0 -fpre-include=/usr/include/finclude/math-vector-fortran.h
REM seed -1976408001 1627213672 -826008606 -1447271694 1818511394 142311420 -806031474 -643604321 686588530 1992286782 555715758 -579893090 -1302511029 -1039108440 2010033768 832461273 -1462459721 1668767352 -1731903322 -1723622028 1289159964 729754347 1549315211 873584014 123578928 -1264465233 -771532127 1567289389 210262913 -1025226062 462973746 1204414156 -25634121
REM
CELL 1.54180   15.00000   15.00000   15.00000   90.00000   90.00000   90.00000
LATT -1
SFAC C  
C      1  0.3554590000000  0.4503610000000  0.7218510000000 1.0
C      1  0.5134640000000  0.4516470000000  0.7656970000000 1.0
C      1  0.6674310000000  0.4506490000000  0.7072320000000 1.0
C      1  0.7570710000000  0.4506840000000  0.5693550000000 1.0
C      1  0.7486310000000  0.4507010000000  0.4050500000000 1.0
C      1  0.6452560000000  0.4506970000000  0.2770580000000 1.0
C      1  0.4864090000000  0.4506910000000  0.2342100000000 1.0
C      1  0.3327030000000  0.4506680000000  0.2928780000000 1.0
C      1  0.2427820000000  0.4506320000000  0.4305700000000 1.0
C      1  0.2515050000000  0.4516350000000  0.5950350000000 1.0
C      1  0.7365730000000  0.4072620000000  0.4880320000000 1.0
C      1  0.6842600000000  0.4072720000000  0.3512980000000 1.0
C      1  0.5615870000000  0.4072690000000  0.2713800000000 1.0
C      1  0.4153790000000  0.4072520000000  0.2787760000000 1.0
C      1  0.3013850000000  0.4071540000000  0.3706180000000 1.0
C      1  0.2632700000000  0.4073160000000  0.5119520000000 1.0
C      1  0.3161570000000  0.4077400000000  0.6491010000000 1.0
C      1  0.4378890000000  0.4077450000000  0.7284050000000 1.0
C      1  0.5847110000000  0.4073290000000  0.7213670000000 1.0
C      1  0.6986060000000  0.4071690000000  0.6294080000000 1.0
C      1  0.4440500000000  0.6435490000000  0.3539230000000 1.0
C      1  0.3687740000000  0.6436100000000  0.4146210000000 1.0
C      1  0.3437170000000  0.6436670000000  0.5080180000000 1.0
C      1  0.3781620000000  0.6436100000000  0.5983980000000 1.0
C      1  0.4592020000000  0.6436090000000  0.6511840000000 1.0
C      1  0.5557930000000  0.6436670000000  0.6461710000000 1.0
C      1  0.6311170000000  0.6436180000000  0.5855290000000 1.0
C      1  0.6562430000000  0.6435700000000  0.4921530000000 1.0
C      1  0.6216710000000  0.6435340000000  0.4018320000000 1.0
C      1  0.5406390000000  0.6435190000000  0.3490490000000 1.0
C      1  0.5406380000000  0.3565020000000  0.3490630000000 1.0
C      1  0.4440530000000  0.3564790000000  0.3539460000000 1.0
C      1  0.3687420000000  0.3563970000000  0.4146220000000 1.0
C      1  0.3435180000000  0.3564580000000  0.5079900000000 1.0
C      1  0.3782520000000  0.3564290000000  0.5982600000000 1.0
C      1  0.4593090000000  0.3564340000000  0.6510630000000 1.0
C      1  0.5559180000000  0.3564690000000  0.6463610000000 1.0
C      1  0.6311420000000  0.3564080000000  0.5855730000000 1.0
C      1  0.6562290000000  0.3564840000000  0.4921720000000 1.0
C      1  0.6216700000000  0.3565010000000  0.4018490000000 1.0
C      1  0.2636040000000  0.5923000000000  0.5124320000000 1.0
C      1  0.3154530000000  0.5921440000000  0.6483080000000 1.0
C      1  0.4388890000000  0.5921490000000  0.7287170000000 1.0
C      1  0.5841260000000  0.5923120000000  0.7212430000000 1.0
C      1  0.6984610000000  0.5927370000000  0.6294400000000 1.0
C      1  0.7365570000000  0.5927380000000  0.4880640000000 1.0
C      1  0.6842570000000  0.5927400000000  0.3513020000000 1.0
C      1  0.5615760000000  0.5927330000000  0.2713780000000 1.0
C      1  0.4153480000000  0.5927230000000  0.2788000000000 1.0
C      1  0.3014040000000  0.5927230000000  0.3707590000000 1.0
C      1  0.7486160000000  0.5493160000000  0.4050700000000 1.0
C      1  0.6452490000000  0.5493130000000  0.2770630000000 1.0
C      1  0.4863920000000  0.5493070000000  0.2342270000000 1.0
C      1  0.3327010000000  0.5492860000000  0.2929590000000 1.0
C      1  0.2429780000000  0.5492110000000  0.4308620000000 1.0
C      1  0.2524860000000  0.5495720000000  0.5944270000000 1.0
C      1  0.3548380000000  0.5481950000000  0.7227990000000 1.0
C      1  0.5136190000000  0.5495850000000  0.7645470000000 1.0
C      1  0.6670820000000  0.5492280000000  0.7071660000000 1.0
C      1  0.7569940000000  0.5493010000000  0.5693870000000 1.0
END
