TITL C-1525613-7943-5308 0.527621923992715 3375 -8152.65982965536 0 0 60 (Cs) n - 1
REM
REM in /home/nfs/bkarasulu/CARBON/AIRSS/Generating-Clusters/ReaxFF-fromJPCA2015/Units_Real/Try2-Higher-symm/Only-C60
REM
REM
REM
REM
REM
REM ./C.cell (863b2abdce7293c0672fb3ba77bf323a)
REM AIRSS Version 0.9.1 bugfix July 2018 build 013d7b7c2542+ Fri, 06 Jul 2018 19:26:36 +0100
REM compiler GCC version 9.2.1 20190827 (Red Hat 9.2.1-1)
REM options -cpp -mtune=generic -march=x86-64 -g -O0 -fpre-include=/usr/include/finclude/math-vector-fortran.h
REM seed 996428553 -862884591 -886177751 480365165 1062978188 807960093 1093784181 23216329 757258749 788761111 11881078 1284388994 1582608392 -761781116 553326053 -473436217 1009376018 1750517452 -1138133569 -1643747175 177252870 1326565542 -959027692 -187955664 -1510273541 954161296 -1478774374 896779990 1100986937 -1445006775 122646133 -2039775087 1710700902
REM
CELL 1.54180   15.00000   15.00000   15.00000   90.00000   90.00000   90.00000
LATT -1
SFAC C  
C      1  0.2589710000000  0.6156640000000  0.4511050000000 1.0
C      1  0.4730820000000  0.6159080000000  0.2554700000000 1.0
C      1  0.7235840000000  0.6189900000000  0.3981330000000 1.0
C      1  0.6658250000000  0.6158830000000  0.6818410000000 1.0
C      1  0.3792560000000  0.6189210000000  0.7138430000000 1.0
C      1  0.2589680000000  0.6156650000000  0.5488980000000 1.0
C      1  0.4730810000000  0.6159090000000  0.7445280000000 1.0
C      1  0.7235840000000  0.6189800000000  0.6018700000000 1.0
C      1  0.6658260000000  0.6158790000000  0.3181600000000 1.0
C      1  0.3792550000000  0.6189240000000  0.2861570000000 1.0
C      1  0.6451270000000  0.4911160000000  0.5469530000000 1.0
C      1  0.5001650000000  0.4904880000000  0.6521550000000 1.0
C      1  0.3561390000000  0.4902390000000  0.5466060000000 1.0
C      1  0.4107500000000  0.4914710000000  0.3772620000000 1.0
C      1  0.5888600000000  0.4904570000000  0.3775990000000 1.0
C      1  0.6451270000000  0.4911180000000  0.4530470000000 1.0
C      1  0.5001640000000  0.4904890000000  0.3478410000000 1.0
C      1  0.3561470000000  0.4902350000000  0.4533850000000 1.0
C      1  0.4107490000000  0.4914700000000  0.6227350000000 1.0
C      1  0.5888530000000  0.4904560000000  0.6224000000000 1.0
C      1  0.2589590000000  0.5160750000000  0.5496770000000 1.0
C      1  0.3790750000000  0.5206730000000  0.2882980000000 1.0
C      1  0.6651730000000  0.5149950000000  0.3195000000000 1.0
C      1  0.7220960000000  0.5204760000000  0.5998730000000 1.0
C      1  0.4721660000000  0.5153720000000  0.7433660000000 1.0
C      1  0.2589730000000  0.5160700000000  0.4503340000000 1.0
C      1  0.3790720000000  0.5206750000000  0.7116990000000 1.0
C      1  0.6651780000000  0.5149980000000  0.6804990000000 1.0
C      1  0.7220930000000  0.5204790000000  0.4001250000000 1.0
C      1  0.4721610000000  0.5153700000000  0.2566410000000 1.0
C      1  0.4098150000000  0.3385680000000  0.6251460000000 1.0
C      1  0.3519870000000  0.3396510000000  0.4528510000000 1.0
C      1  0.5002250000000  0.3401270000000  0.3453690000000 1.0
C      1  0.6469670000000  0.3391700000000  0.4508550000000 1.0
C      1  0.5907000000000  0.3400770000000  0.6257250000000 1.0
C      1  0.4098150000000  0.3385660000000  0.3748540000000 1.0
C      1  0.3519840000000  0.3396500000000  0.5471480000000 1.0
C      1  0.5002250000000  0.3401270000000  0.6546310000000 1.0
C      1  0.6469670000000  0.3391720000000  0.5491450000000 1.0
C      1  0.5907000000000  0.3400760000000  0.3742750000000 1.0
C      1  0.5931870000000  0.6610270000000  0.3706530000000 1.0
C      1  0.6516010000000  0.6622560000000  0.5487530000000 1.0
C      1  0.5007340000000  0.6610940000000  0.6592380000000 1.0
C      1  0.3488710000000  0.6613600000000  0.5494400000000 1.0
C      1  0.4061030000000  0.6626500000000  0.3713310000000 1.0
C      1  0.5931870000000  0.6610280000000  0.6293460000000 1.0
C      1  0.6516020000000  0.6622570000000  0.4512490000000 1.0
C      1  0.5007350000000  0.6610940000000  0.3407630000000 1.0
C      1  0.3488700000000  0.6613600000000  0.4505600000000 1.0
C      1  0.4061020000000  0.6626500000000  0.6286690000000 1.0
C      1  0.3769970000000  0.3666640000000  0.7206490000000 1.0
C      1  0.2519990000000  0.3767860000000  0.4500660000000 1.0
C      1  0.4706460000000  0.3781880000000  0.2482960000000 1.0
C      1  0.7291900000000  0.3685230000000  0.3940880000000 1.0
C      1  0.6717520000000  0.3771340000000  0.6868270000000 1.0
C      1  0.3769970000000  0.3666640000000  0.2793510000000 1.0
C      1  0.2519970000000  0.3767850000000  0.5499360000000 1.0
C      1  0.4706460000000  0.3781850000000  0.7517030000000 1.0
C      1  0.7291900000000  0.3685310000000  0.6059110000000 1.0
C      1  0.6717520000000  0.3771360000000  0.3131730000000 1.0
END
