TITL C-1525613-7943-560 1.45289508360093 3375 -6863.39544272093 0 0 60 (C1) n - 1
REM
REM in /home/nfs/bkarasulu/CARBON/AIRSS/Generating-Clusters/ReaxFF-fromJPCA2015/Units_Real/Try2-Higher-symm/Only-C60
REM
REM
REM
REM
REM
REM ./C.cell (863b2abdce7293c0672fb3ba77bf323a)
REM AIRSS Version 0.9.1 bugfix July 2018 build 013d7b7c2542+ Fri, 06 Jul 2018 19:26:36 +0100
REM compiler GCC version 9.2.1 20190827 (Red Hat 9.2.1-1)
REM options -cpp -mtune=generic -march=x86-64 -g -O0 -fpre-include=/usr/include/finclude/math-vector-fortran.h
REM seed 1257841731 -2047629392 -1679768108 -485609915 1974777793 1870406679 521089124 -1033969562 1061351057 -835488230 615319215 1867275437 -489862496 -296119556 299498520 492800177 -1170382196 -1834652686 5953023 2110957608 -420450135 1663572293 -1715568894 -1330231591 -379413858 -84521120 -294317408 -956025067 1656088996 1362765894 -1342472977 -1074993502 -969218402
REM
CELL 1.54180   15.00000   15.00000   15.00000   90.00000   90.00000   90.00000
LATT -1
SFAC C  
C      1  0.4162530000000  0.5035040000000  0.6202990000000 1.0
C      1  0.5856560000000  0.5061740000000  0.6170390000000 1.0
C      1  0.6387320000000  0.5012910000000  0.4507210000000 1.0
C      1  0.4951800000000  0.5020850000000  0.3517250000000 1.0
C      1  0.3608470000000  0.5032950000000  0.4557420000000 1.0
C      1  0.4150600000000  0.4973910000000  0.3799100000000 1.0
C      1  0.5861170000000  0.4942040000000  0.3827540000000 1.0
C      1  0.6388250000000  0.4978510000000  0.5493140000000 1.0
C      1  0.4963790000000  0.4987580000000  0.6473450000000 1.0
C      1  0.3587430000000  0.4958750000000  0.5411380000000 1.0
C      1  0.4647910000000  0.7207950000000  0.5894220000000 1.0
C      1  0.5717580000000  0.7202960000000  0.5620760000000 1.0
C      1  0.5807420000000  0.7191500000000  0.4512700000000 1.0
C      1  0.4769140000000  0.7201730000000  0.4080090000000 1.0
C      1  0.4054490000000  0.7200850000000  0.4921860000000 1.0
C      1  0.4638650000000  0.2799190000000  0.4114360000000 1.0
C      1  0.5725900000000  0.2791930000000  0.4385200000000 1.0
C      1  0.5811800000000  0.2804380000000  0.5487860000000 1.0
C      1  0.4769590000000  0.2800470000000  0.5921310000000 1.0
C      1  0.4052220000000  0.2798810000000  0.5073970000000 1.0
C      1  0.6058920000000  0.6763400000000  0.6502270000000 1.0
C      1  0.6761880000000  0.6778830000000  0.4468990000000 1.0
C      1  0.5031600000000  0.6760530000000  0.3179830000000 1.0
C      1  0.3267280000000  0.6767170000000  0.4404640000000 1.0
C      1  0.3904690000000  0.6764040000000  0.6466920000000 1.0
C      1  0.6058520000000  0.3236270000000  0.3503090000000 1.0
C      1  0.6762590000000  0.3220970000000  0.5530440000000 1.0
C      1  0.5031520000000  0.3238410000000  0.6823760000000 1.0
C      1  0.3271280000000  0.3233560000000  0.5599750000000 1.0
C      1  0.3901450000000  0.3238060000000  0.3536750000000 1.0
C      1  0.4511030000000  0.6129420000000  0.4318520000000 1.0
C      1  0.4212500000000  0.6136190000000  0.5236130000000 1.0
C      1  0.4986200000000  0.6141230000000  0.5842390000000 1.0
C      1  0.5782930000000  0.6146180000000  0.5304910000000 1.0
C      1  0.5497030000000  0.6126020000000  0.4358760000000 1.0
C      1  0.4519090000000  0.3864440000000  0.5685640000000 1.0
C      1  0.4214520000000  0.3863510000000  0.4760120000000 1.0
C      1  0.4987170000000  0.3853600000000  0.4165480000000 1.0
C      1  0.5789350000000  0.3849050000000  0.4697680000000 1.0
C      1  0.5499980000000  0.3871950000000  0.5641460000000 1.0
C      1  0.3643830000000  0.6166770000000  0.3740620000000 1.0
C      1  0.3378890000000  0.6177740000000  0.5898810000000 1.0
C      1  0.5361810000000  0.6175550000000  0.6826280000000 1.0
C      1  0.6844790000000  0.6187280000000  0.5233280000000 1.0
C      1  0.5781600000000  0.6161140000000  0.3335960000000 1.0
C      1  0.3648580000000  0.3824690000000  0.6273040000000 1.0
C      1  0.3390130000000  0.3835900000000  0.4107200000000 1.0
C      1  0.5366840000000  0.3825910000000  0.3174670000000 1.0
C      1  0.6846190000000  0.3810660000000  0.4765000000000 1.0
C      1  0.5779500000000  0.3839740000000  0.6664730000000 1.0
C      1  0.7310840000000  0.4685770000000  0.4610310000000 1.0
C      1  0.5340290000000  0.4689750000000  0.2666700000000 1.0
C      1  0.2899510000000  0.4696960000000  0.3961790000000 1.0
C      1  0.3368020000000  0.4702280000000  0.6675270000000 1.0
C      1  0.6085080000000  0.4708100000000  0.7060240000000 1.0
C      1  0.7308480000000  0.5314380000000  0.5387520000000 1.0
C      1  0.5337320000000  0.5306490000000  0.7329850000000 1.0
C      1  0.2900680000000  0.5308600000000  0.6031830000000 1.0
C      1  0.3358260000000  0.5301330000000  0.3318880000000 1.0
C      1  0.6087170000000  0.5294100000000  0.2938280000000 1.0
END
