TITL C-1525613-7943-4038 -0.000805511489473539 3375 -9162.24753168127 0 0 60 (C5v) n - 1
REM
REM in /home/nfs/bkarasulu/CARBON/AIRSS/Generating-Clusters/ReaxFF-fromJPCA2015/Units_Real/Try2-Higher-symm/Only-C60
REM
REM
REM
REM
REM
REM ./C.cell (863b2abdce7293c0672fb3ba77bf323a)
REM AIRSS Version 0.9.1 bugfix July 2018 build 013d7b7c2542+ Fri, 06 Jul 2018 19:26:36 +0100
REM compiler GCC version 9.2.1 20190827 (Red Hat 9.2.1-1)
REM options -cpp -mtune=generic -march=x86-64 -g -O0 -fpre-include=/usr/include/finclude/math-vector-fortran.h
REM seed 1019771288 1066748183 -696683670 -1785929434 857972845 1167161873 539089737 -1268306325 -2109834245 1617625037 -1378318984 -151485706 -1847194187 -1030890391 324129027 -1660324158 -838803805 -1739208303 978317303 -1902118448 -1563004462 437619953 2050847127 -88997283 -874552061 1370555155 1418082936 -1714601610 -836733587 -1520482916 989626574 2100210276 -746675050
REM
CELL 1.54180   15.00000   15.00000   15.00000   90.00000   90.00000   90.00000
LATT -1
SFAC C  
C      1  0.7677640000000  0.4665470000000  0.4151080000000 1.0
C      1  0.7247640000000  0.4665500000000  0.3315250000000 1.0
C      1  0.5020080000000  0.4665550000000  0.2191030000000 1.0
C      1  0.4092270000000  0.4665540000000  0.2341710000000 1.0
C      1  0.2334780000000  0.4665480000000  0.4112930000000 1.0
C      1  0.2191310000000  0.4665450000000  0.5041870000000 1.0
C      1  0.3332760000000  0.4665400000000  0.7260660000000 1.0
C      1  0.4171900000000  0.4665390000000  0.7684170000000 1.0
C      1  0.6634750000000  0.4665370000000  0.7284190000000 1.0
C      1  0.7296800000000  0.4665380000000  0.6616960000000 1.0
C      1  0.5975860000000  0.3587850000000  0.3066190000000 1.0
C      1  0.4658650000000  0.3431900000000  0.2897460000000 1.0
C      1  0.3462520000000  0.3587860000000  0.3474340000000 1.0
C      1  0.2895020000000  0.3431870000000  0.4674940000000 1.0
C      1  0.3073910000000  0.3587770000000  0.5990820000000 1.0
C      1  0.4040340000000  0.3431760000000  0.6901600000000 1.0
C      1  0.5347100000000  0.3587690000000  0.7138010000000 1.0
C      1  0.6511880000000  0.3431770000000  0.6500180000000 1.0
C      1  0.7140600000000  0.3587740000000  0.5330460000000 1.0
C      1  0.6894070000000  0.3431840000000  0.4025570000000 1.0
C      1  0.7325040000000  0.5880160000000  0.5359020000000 1.0
C      1  0.7163400000000  0.6092010000000  0.3887140000000 1.0
C      1  0.6059900000000  0.5880230000000  0.2899730000000 1.0
C      1  0.4610110000000  0.6092060000000  0.2598620000000 1.0
C      1  0.3330050000000  0.5880200000000  0.3342980000000 1.0
C      1  0.2595640000000  0.6091990000000  0.4628790000000 1.0
C      1  0.2908000000000  0.5880130000000  0.6076200000000 1.0
C      1  0.3903940000000  0.6091930000000  0.7172010000000 1.0
C      1  0.5377030000000  0.5880120000000  0.7322210000000 1.0
C      1  0.6726940000000  0.6091920000000  0.6713620000000 1.0
C      1  0.2514920000000  0.3789450000000  0.5361940000000 1.0
C      1  0.3260460000000  0.3789420000000  0.6811280000000 1.0
C      1  0.4576280000000  0.3789380000000  0.7475350000000 1.0
C      1  0.6185050000000  0.3789370000000  0.7214040000000 1.0
C      1  0.7223170000000  0.3789390000000  0.6167800000000 1.0
C      1  0.7471950000000  0.3789450000000  0.4557050000000 1.0
C      1  0.6797740000000  0.3789510000000  0.3246410000000 1.0
C      1  0.5342670000000  0.3789540000000  0.2512080000000 1.0
C      1  0.3887840000000  0.3789540000000  0.2748350000000 1.0
C      1  0.2739870000000  0.3789500000000  0.3905320000000 1.0
C      1  0.7677180000000  0.5559510000000  0.4513580000000 1.0
C      1  0.6952470000000  0.5559560000000  0.3104870000000 1.0
C      1  0.5364670000000  0.5559590000000  0.2303550000000 1.0
C      1  0.3800960000000  0.5559580000000  0.2557470000000 1.0
C      1  0.2548230000000  0.5559530000000  0.3819970000000 1.0
C      1  0.2306460000000  0.5559490000000  0.5385600000000 1.0
C      1  0.3120070000000  0.5559460000000  0.6967140000000 1.0
C      1  0.4534360000000  0.5559440000000  0.7680910000000 1.0
C      1  0.6289900000000  0.5559420000000  0.7395820000000 1.0
C      1  0.7405730000000  0.5559450000000  0.6271280000000 1.0
C      1  0.5696790000000  0.6423960000000  0.3619310000000 1.0
C      1  0.4747530000000  0.6555550000000  0.3445030000000 1.0
C      1  0.3902180000000  0.6423940000000  0.3910700000000 1.0
C      1  0.3443080000000  0.6555510000000  0.4759650000000 1.0
C      1  0.3624730000000  0.6423900000000  0.5707520000000 1.0
C      1  0.4290250000000  0.6555470000000  0.6406490000000 1.0
C      1  0.5247870000000  0.6423880000000  0.6526640000000 1.0
C      1  0.6118270000000  0.6555470000000  0.6109670000000 1.0
C      1  0.6528470000000  0.6423910000000  0.5236050000000 1.0
C      1  0.6400890000000  0.6555520000000  0.4279400000000 1.0
END
