TITL C-1525613-7943-4212 0.0921981820420892 3375 -9044.82068823376 0 0 60 (Ci) n - 1
REM
REM in /home/nfs/bkarasulu/CARBON/AIRSS/Generating-Clusters/ReaxFF-fromJPCA2015/Units_Real/Try2-Higher-symm/Only-C60
REM
REM
REM
REM
REM
REM ./C.cell (863b2abdce7293c0672fb3ba77bf323a)
REM AIRSS Version 0.9.1 bugfix July 2018 build 013d7b7c2542+ Fri, 06 Jul 2018 19:26:36 +0100
REM compiler GCC version 9.2.1 20190827 (Red Hat 9.2.1-1)
REM options -cpp -mtune=generic -march=x86-64 -g -O0 -fpre-include=/usr/include/finclude/math-vector-fortran.h
REM seed 1230517309 1195707572 -865334137 1984651922 -65620021 -561476416 904741589 -1752413906 1462813952 240667930 99759778 274844720 1229131357 -85488142 -1360724599 -859598108 911452756 -1359186287 -441622130 -274447100 -1344461747 1197694627 2134967398 915462922 -882178714 1949175377 1156718316 383405312 -1033340784 -897057630 -1696113013 686773932 451518251
REM
CELL 1.54180   15.00000   15.00000   15.00000   90.00000   90.00000   90.00000
LATT -1
SFAC C  
C      1  0.5420770000000  0.2956320000000  0.4291140000000 1.0
C      1  0.4551120000000  0.3770320000000  0.3223760000000 1.0
C      1  0.5437240000000  0.5043840000000  0.2842480000000 1.0
C      1  0.4577170000000  0.6319730000000  0.3276330000000 1.0
C      1  0.5457100000000  0.7064530000000  0.4376640000000 1.0
C      1  0.4579250000000  0.7043690000000  0.5708830000000 1.0
C      1  0.5448840000000  0.6229700000000  0.6776220000000 1.0
C      1  0.4562740000000  0.4956150000000  0.7157510000000 1.0
C      1  0.5422840000000  0.3680290000000  0.6723640000000 1.0
C      1  0.4542940000000  0.2935470000000  0.5623330000000 1.0
C      1  0.4560740000000  0.4671870000000  0.2866610000000 1.0
C      1  0.5449150000000  0.5984450000000  0.3078730000000 1.0
C      1  0.4578500000000  0.6932480000000  0.4025810000000 1.0
C      1  0.5457240000000  0.7127460000000  0.5343710000000 1.0
C      1  0.4577320000000  0.6534530000000  0.6532660000000 1.0
C      1  0.5439230000000  0.5328160000000  0.7133390000000 1.0
C      1  0.4550850000000  0.4015550000000  0.6921240000000 1.0
C      1  0.5421540000000  0.3067550000000  0.5974140000000 1.0
C      1  0.4542780000000  0.2872540000000  0.4656260000000 1.0
C      1  0.5422640000000  0.3465450000000  0.3467300000000 1.0
C      1  0.5985770000000  0.3228260000000  0.5117870000000 1.0
C      1  0.3990930000000  0.3507400000000  0.4051680000000 1.0
C      1  0.5989460000000  0.4325680000000  0.3352080000000 1.0
C      1  0.4011980000000  0.5451770000000  0.3280740000000 1.0
C      1  0.6010230000000  0.6356170000000  0.3862910000000 1.0
C      1  0.4014250000000  0.6771790000000  0.4882090000000 1.0
C      1  0.6009060000000  0.6492600000000  0.5948310000000 1.0
C      1  0.4010510000000  0.5674290000000  0.6647910000000 1.0
C      1  0.5988000000000  0.4548260000000  0.6719260000000 1.0
C      1  0.3989790000000  0.3643810000000  0.6137080000000 1.0
C      1  0.7049680000000  0.3509420000000  0.5091450000000 1.0
C      1  0.2908830000000  0.3703310000000  0.4162720000000 1.0
C      1  0.7061900000000  0.4414940000000  0.3544800000000 1.0
C      1  0.2939230000000  0.5401940000000  0.3492910000000 1.0
C      1  0.7092890000000  0.6182670000000  0.4011250000000 1.0
C      1  0.2950360000000  0.6490630000000  0.4908580000000 1.0
C      1  0.7091160000000  0.6296670000000  0.5837320000000 1.0
C      1  0.2938070000000  0.5584980000000  0.6455230000000 1.0
C      1  0.7060760000000  0.4598060000000  0.6507170000000 1.0
C      1  0.2907110000000  0.3817240000000  0.5988800000000 1.0
C      1  0.5796020000000  0.5656160000000  0.5418140000000 1.0
C      1  0.4212250000000  0.5300380000000  0.5728700000000 1.0
C      1  0.5788190000000  0.4798720000000  0.5759030000000 1.0
C      1  0.4204680000000  0.4404930000000  0.5504390000000 1.0
C      1  0.5780100000000  0.4210590000000  0.5051210000000 1.0
C      1  0.4203970000000  0.4343850000000  0.4581840000000 1.0
C      1  0.5787720000000  0.4699620000000  0.4271270000000 1.0
C      1  0.4211800000000  0.5201300000000  0.4240960000000 1.0
C      1  0.5795300000000  0.5595060000000  0.4495590000000 1.0
C      1  0.4219890000000  0.5789430000000  0.4948770000000 1.0
C      1  0.2673700000000  0.5871650000000  0.4263930000000 1.0
C      1  0.7216330000000  0.6291530000000  0.4922180000000 1.0
C      1  0.2685960000000  0.5952260000000  0.5625730000000 1.0
C      1  0.7242980000000  0.5423790000000  0.6139660000000 1.0
C      1  0.2770480000000  0.4717420000000  0.6195710000000 1.0
C      1  0.7326310000000  0.4128380000000  0.5736130000000 1.0
C      1  0.2783660000000  0.3708420000000  0.5077870000000 1.0
C      1  0.7314120000000  0.4047800000000  0.4374330000000 1.0
C      1  0.2757010000000  0.4576210000000  0.3860450000000 1.0
C      1  0.7229570000000  0.5282520000000  0.3804200000000 1.0
END
