TITL C-1525613-7943-4075 0.0538595268930736 3375 -9314.86331310695 0 0 60 (C1) n - 1
REM
REM in /home/nfs/bkarasulu/CARBON/AIRSS/Generating-Clusters/ReaxFF-fromJPCA2015/Units_Real/Try2-Higher-symm/Only-C60
REM
REM
REM
REM
REM
REM ./C.cell (863b2abdce7293c0672fb3ba77bf323a)
REM AIRSS Version 0.9.1 bugfix July 2018 build 013d7b7c2542+ Fri, 06 Jul 2018 19:26:36 +0100
REM compiler GCC version 9.2.1 20190827 (Red Hat 9.2.1-1)
REM options -cpp -mtune=generic -march=x86-64 -g -O0 -fpre-include=/usr/include/finclude/math-vector-fortran.h
REM seed -262862293 1109518410 -1904761560 1121765510 879719126 -1263612870 23714041 635102112 323845538 712012843 -2047227011 1988023193 -1854724532 -508320275 -1166982164 766868865 -1220681171 -1644034765 1149024120 -1592971129 722976330 358662833 584085091 -1291722805 1088847569 -164519420 242319789 -334990230 -26217706 -45056196 640471115 1067783156 458704891
REM
CELL 1.54180   15.00000   15.00000   15.00000   90.00000   90.00000   90.00000
LATT -1
SFAC C  
C      1  0.6509810000000  0.2816770000000  0.5100530000000 1.0
C      1  0.6416600000000  0.3050330000000  0.4084620000000 1.0
C      1  0.5717520000000  0.3045250000000  0.3418270000000 1.0
C      1  0.4697910000000  0.2933130000000  0.3506190000000 1.0
C      1  0.4186350000000  0.2761190000000  0.4255210000000 1.0
C      1  0.3499840000000  0.2811950000000  0.4905140000000 1.0
C      1  0.3590370000000  0.3052480000000  0.5913750000000 1.0
C      1  0.4293270000000  0.3060190000000  0.6578540000000 1.0
C      1  0.5308900000000  0.2944570000000  0.6493770000000 1.0
C      1  0.5817660000000  0.2766380000000  0.5743910000000 1.0
C      1  0.6966140000000  0.4721130000000  0.6169790000000 1.0
C      1  0.7314400000000  0.4744180000000  0.5260680000000 1.0
C      1  0.6929950000000  0.4661060000000  0.4343350000000 1.0
C      1  0.5492410000000  0.4624090000000  0.2732420000000 1.0
C      1  0.4537090000000  0.4449340000000  0.2748490000000 1.0
C      1  0.2997740000000  0.4725310000000  0.3839580000000 1.0
C      1  0.2669870000000  0.4750790000000  0.4746500000000 1.0
C      1  0.3060890000000  0.4667600000000  0.5644020000000 1.0
C      1  0.4507690000000  0.4637530000000  0.7265620000000 1.0
C      1  0.5458740000000  0.4455640000000  0.7268450000000 1.0
C      1  0.6880660000000  0.6320410000000  0.3708870000000 1.0
C      1  0.6173160000000  0.6316420000000  0.3033690000000 1.0
C      1  0.4754460000000  0.5984850000000  0.2832110000000 1.0
C      1  0.3168350000000  0.6325760000000  0.3645560000000 1.0
C      1  0.2745840000000  0.6444010000000  0.4463430000000 1.0
C      1  0.3180580000000  0.6260540000000  0.6248300000000 1.0
C      1  0.3819080000000  0.6282910000000  0.6920650000000 1.0
C      1  0.5245200000000  0.5978330000000  0.7169830000000 1.0
C      1  0.6815340000000  0.6314280000000  0.6356600000000 1.0
C      1  0.7237700000000  0.6409540000000  0.5538200000000 1.0
C      1  0.3026550000000  0.3480500000000  0.4411550000000 1.0
C      1  0.3249950000000  0.3913230000000  0.6238310000000 1.0
C      1  0.3942740000000  0.3908490000000  0.6957090000000 1.0
C      1  0.5863830000000  0.3656390000000  0.6901400000000 1.0
C      1  0.6752120000000  0.3808270000000  0.6463840000000 1.0
C      1  0.6988170000000  0.3463650000000  0.5618040000000 1.0
C      1  0.6762690000000  0.3904210000000  0.3745840000000 1.0
C      1  0.6061180000000  0.3889420000000  0.3027600000000 1.0
C      1  0.4136440000000  0.3648710000000  0.3118370000000 1.0
C      1  0.3250610000000  0.3814660000000  0.3561720000000 1.0
C      1  0.5905630000000  0.5315320000000  0.7210820000000 1.0
C      1  0.6667650000000  0.5457700000000  0.6681400000000 1.0
C      1  0.7562490000000  0.5654850000000  0.5057470000000 1.0
C      1  0.7305560000000  0.5543040000000  0.4131620000000 1.0
C      1  0.5620300000000  0.5593490000000  0.2685200000000 1.0
C      1  0.4082530000000  0.5304830000000  0.2814400000000 1.0
C      1  0.3318030000000  0.5460880000000  0.3342150000000 1.0
C      1  0.2411130000000  0.5679730000000  0.4958140000000 1.0
C      1  0.2736380000000  0.5546320000000  0.5854440000000 1.0
C      1  0.4385710000000  0.5601100000000  0.7291160000000 1.0
C      1  0.3466840000000  0.7014550000000  0.4776960000000 1.0
C      1  0.3649580000000  0.6913170000000  0.5720720000000 1.0
C      1  0.4326700000000  0.6958560000000  0.6432330000000 1.0
C      1  0.5258580000000  0.6699440000000  0.6552980000000 1.0
C      1  0.6090090000000  0.6881290000000  0.6110270000000 1.0
C      1  0.6514790000000  0.6985390000000  0.5222960000000 1.0
C      1  0.6361710000000  0.6956290000000  0.4265470000000 1.0
C      1  0.5668940000000  0.6991950000000  0.3561020000000 1.0
C      1  0.4740070000000  0.6722980000000  0.3461060000000 1.0
C      1  0.3899500000000  0.6915630000000  0.3889560000000 1.0
END
