TITL C-1525613-7943-2083 -0.0515160546817782 3375 -8960.65596840648 0 0 60 (C1) n - 1
REM
REM in /home/nfs/bkarasulu/CARBON/AIRSS/Generating-Clusters/ReaxFF-fromJPCA2015/Units_Real/Try2-Higher-symm/Only-C60
REM
REM
REM
REM
REM
REM ./C.cell (863b2abdce7293c0672fb3ba77bf323a)
REM AIRSS Version 0.9.1 bugfix July 2018 build 013d7b7c2542+ Fri, 06 Jul 2018 19:26:36 +0100
REM compiler GCC version 9.2.1 20190827 (Red Hat 9.2.1-1)
REM options -cpp -mtune=generic -march=x86-64 -g -O0 -fpre-include=/usr/include/finclude/math-vector-fortran.h
REM seed -2003428136 720242528 -890411089 -766778511 -167041669 1507142692 170166253 -893697008 -852243095 664217849 1318055468 -1684511678 -1260733958 -883328136 -614881911 -836241728 -1841429854 -2124939493 257034838 406604962 1350155507 1508252159 -2033236935 -1320978013 1812975990 726113964 -180591435 -1118146432 -171446632 -2112657903 1718789530 -1716477232 -885157103
REM
CELL 1.54180   15.00000   15.00000   15.00000   90.00000   90.00000   90.00000
LATT -1
SFAC C  
C      1  0.4664410000000  0.6654000000000  0.6260440000000 1.0
C      1  0.4208780000000  0.5664370000000  0.7272850000000 1.0
C      1  0.4200390000000  0.4137800000000  0.7352970000000 1.0
C      1  0.4219170000000  0.2994360000000  0.6335650000000 1.0
C      1  0.4712430000000  0.2851250000000  0.4977010000000 1.0
C      1  0.4740860000000  0.3352640000000  0.3662620000000 1.0
C      1  0.4201290000000  0.4351540000000  0.2776810000000 1.0
C      1  0.4236690000000  0.5929140000000  0.2865330000000 1.0
C      1  0.4518080000000  0.7154400000000  0.3546130000000 1.0
C      1  0.4648670000000  0.7194620000000  0.4893470000000 1.0
C      1  0.5899720000000  0.4685040000000  0.3830430000000 1.0
C      1  0.6298820000000  0.5516280000000  0.3585010000000 1.0
C      1  0.5737400000000  0.5994320000000  0.4198210000000 1.0
C      1  0.5185570000000  0.6349730000000  0.4828870000000 1.0
C      1  0.5227640000000  0.5997700000000  0.5797830000000 1.0
C      1  0.5767990000000  0.5315140000000  0.6116150000000 1.0
C      1  0.6244960000000  0.4525560000000  0.6407100000000 1.0
C      1  0.5804600000000  0.3999770000000  0.5746050000000 1.0
C      1  0.5334430000000  0.3607850000000  0.5055140000000 1.0
C      1  0.5401600000000  0.3945580000000  0.4087750000000 1.0
C      1  0.5744120000000  0.2244800000000  0.3993980000000 1.0
C      1  0.5628540000000  0.3344030000000  0.2564670000000 1.0
C      1  0.5609660000000  0.5112060000000  0.2215740000000 1.0
C      1  0.5808480000000  0.6752580000000  0.2696900000000 1.0
C      1  0.5863050000000  0.7918680000000  0.4133530000000 1.0
C      1  0.5727630000000  0.7728500000000  0.5957290000000 1.0
C      1  0.5630330000000  0.6643400000000  0.7385840000000 1.0
C      1  0.5611050000000  0.4910090000000  0.7814790000000 1.0
C      1  0.5625230000000  0.3274310000000  0.7235930000000 1.0
C      1  0.5646180000000  0.2146830000000  0.5793290000000 1.0
C      1  0.3298430000000  0.5763530000000  0.5822040000000 1.0
C      1  0.3538040000000  0.5329310000000  0.6621630000000 1.0
C      1  0.3580530000000  0.4360390000000  0.6677700000000 1.0
C      1  0.3585840000000  0.3678050000000  0.5996990000000 1.0
C      1  0.3478680000000  0.3922270000000  0.5077030000000 1.0
C      1  0.3476650000000  0.4183110000000  0.4352320000000 1.0
C      1  0.3581770000000  0.4604880000000  0.3498680000000 1.0
C      1  0.3565760000000  0.5585380000000  0.3537000000000 1.0
C      1  0.3301510000000  0.5910850000000  0.4368380000000 1.0
C      1  0.3096340000000  0.6121790000000  0.5120400000000 1.0
C      1  0.5974720000000  0.4198780000000  0.2184410000000 1.0
C      1  0.6122370000000  0.5836880000000  0.2636240000000 1.0
C      1  0.6028240000000  0.7348430000000  0.3379100000000 1.0
C      1  0.6058870000000  0.7869020000000  0.5069800000000 1.0
C      1  0.6077900000000  0.7280640000000  0.6773930000000 1.0
C      1  0.5999810000000  0.5820470000000  0.7803450000000 1.0
C      1  0.6030010000000  0.4170120000000  0.7332130000000 1.0
C      1  0.5867320000000  0.2653460000000  0.6557820000000 1.0
C      1  0.6094450000000  0.2079150000000  0.4883260000000 1.0
C      1  0.6073010000000  0.2701820000000  0.3173870000000 1.0
C      1  0.4673340000000  0.3511580000000  0.2799510000000 1.0
C      1  0.4631730000000  0.5144660000000  0.2454080000000 1.0
C      1  0.4747500000000  0.6761600000000  0.2756520000000 1.0
C      1  0.4837650000000  0.7740870000000  0.4171380000000 1.0
C      1  0.4759720000000  0.7447850000000  0.5794510000000 1.0
C      1  0.4670160000000  0.6485060000000  0.7132300000000 1.0
C      1  0.4627770000000  0.4915000000000  0.7674730000000 1.0
C      1  0.4635470000000  0.3337680000000  0.7123330000000 1.0
C      1  0.4673620000000  0.2402230000000  0.5731490000000 1.0
C      1  0.4765000000000  0.2538800000000  0.4108200000000 1.0
END
