TITL C-1525613-7943-2384 0.0294586750071259 3375 -9147.88653122921 0 0 60 (Ci) n - 1
REM
REM in /home/nfs/bkarasulu/CARBON/AIRSS/Generating-Clusters/ReaxFF-fromJPCA2015/Units_Real/Try2-Higher-symm/Only-C60
REM
REM
REM
REM
REM
REM ./C.cell (863b2abdce7293c0672fb3ba77bf323a)
REM AIRSS Version 0.9.1 bugfix July 2018 build 013d7b7c2542+ Fri, 06 Jul 2018 19:26:36 +0100
REM compiler GCC version 9.2.1 20190827 (Red Hat 9.2.1-1)
REM options -cpp -mtune=generic -march=x86-64 -g -O0 -fpre-include=/usr/include/finclude/math-vector-fortran.h
REM seed 1771734835 -1781417208 953010546 -1943414953 874952254 -929351384 -1905325055 791366987 976580992 -1333198712 -556198618 583694756 -499325285 -987496059 -1162683763 -1239284979 -1138969645 605595374 -1053684498 -732919689 646617238 -1253752074 -115436575 1752208533 1813654372 824878943 1933868362 -1954886656 -1800701199 -1884555411 -389368182 -22419346 -1369563900
REM
CELL 1.54180   15.00000   15.00000   15.00000   90.00000   90.00000   90.00000
LATT -1
SFAC C  
C      1  0.3781890000000  0.3733820000000  0.3415600000000 1.0
C      1  0.3139820000000  0.6486110000000  0.4482970000000 1.0
C      1  0.3464200000000  0.3521040000000  0.5633040000000 1.0
C      1  0.4082060000000  0.6423360000000  0.6450350000000 1.0
C      1  0.5043160000000  0.3721790000000  0.7027830000000 1.0
C      1  0.6219390000000  0.6265420000000  0.6581610000000 1.0
C      1  0.6859640000000  0.3514230000000  0.5519290000000 1.0
C      1  0.6530230000000  0.6474080000000  0.4370180000000 1.0
C      1  0.5920080000000  0.3577480000000  0.3548610000000 1.0
C      1  0.4957680000000  0.6278810000000  0.2970640000000 1.0
C      1  0.4674470000000  0.7542500000000  0.3533920000000 1.0
C      1  0.3886270000000  0.2441640000000  0.3987970000000 1.0
C      1  0.3441420000000  0.7546290000000  0.5266550000000 1.0
C      1  0.4340650000000  0.2396760000000  0.6347580000000 1.0
C      1  0.5236380000000  0.7579100000000  0.6476740000000 1.0
C      1  0.5323610000000  0.2456070000000  0.6466240000000 1.0
C      1  0.6115210000000  0.7561390000000  0.6012230000000 1.0
C      1  0.6554720000000  0.2454940000000  0.4731830000000 1.0
C      1  0.5660370000000  0.7602250000000  0.3655000000000 1.0
C      1  0.4763940000000  0.2421180000000  0.3519660000000 1.0
C      1  0.4896130000000  0.8229840000000  0.5831290000000 1.0
C      1  0.5425690000000  0.1781520000000  0.5744980000000 1.0
C      1  0.5756200000000  0.8239460000000  0.5362870000000 1.0
C      1  0.5865150000000  0.1842520000000  0.4842800000000 1.0
C      1  0.5547290000000  0.8249100000000  0.4395060000000 1.0
C      1  0.5102360000000  0.1771530000000  0.4168520000000 1.0
C      1  0.4573830000000  0.8216400000000  0.4256260000000 1.0
C      1  0.4244250000000  0.1766880000000  0.4639770000000 1.0
C      1  0.4132360000000  0.8157480000000  0.5157280000000 1.0
C      1  0.4450360000000  0.1753030000000  0.5606620000000 1.0
C      1  0.4540170000000  0.4012310000000  0.2980970000000 1.0
C      1  0.3581210000000  0.6106950000000  0.3767030000000 1.0
C      1  0.3212040000000  0.3866440000000  0.4858320000000 1.0
C      1  0.3384440000000  0.6083450000000  0.6028360000000 1.0
C      1  0.4169870000000  0.3993070000000  0.6909800000000 1.0
C      1  0.5463140000000  0.5987560000000  0.7017090000000 1.0
C      1  0.6420720000000  0.3890880000000  0.6235920000000 1.0
C      1  0.6784950000000  0.6134690000000  0.5147000000000 1.0
C      1  0.6618010000000  0.3915510000000  0.3973130000000 1.0
C      1  0.5830220000000  0.6007760000000  0.3085880000000 1.0
C      1  0.3739130000000  0.5199300000000  0.5763120000000 1.0
C      1  0.4399980000000  0.4806840000000  0.6404120000000 1.0
C      1  0.5334590000000  0.5166060000000  0.6483000000000 1.0
C      1  0.6091480000000  0.4786800000000  0.5960960000000 1.0
C      1  0.6422120000000  0.5196310000000  0.5128290000000 1.0
C      1  0.6264880000000  0.4800720000000  0.4233060000000 1.0
C      1  0.5601790000000  0.5192850000000  0.3592360000000 1.0
C      1  0.4667280000000  0.4833730000000  0.3512520000000 1.0
C      1  0.3909490000000  0.5212400000000  0.4038850000000 1.0
C      1  0.3577320000000  0.4801260000000  0.4870170000000 1.0
C      1  0.7071360000000  0.3235390000000  0.4653930000000 1.0
C      1  0.6267820000000  0.6807800000000  0.3581960000000 1.0
C      1  0.5201320000000  0.3231390000000  0.3117500000000 1.0
C      1  0.4193330000000  0.6730570000000  0.3210270000000 1.0
C      1  0.3303140000000  0.3248340000000  0.4026150000000 1.0
C      1  0.2925590000000  0.6763310000000  0.5347300000000 1.0
C      1  0.3730410000000  0.3189020000000  0.6422510000000 1.0
C      1  0.4800560000000  0.6767830000000  0.6880050000000 1.0
C      1  0.5807070000000  0.3267560000000  0.6790620000000 1.0
C      1  0.6697780000000  0.6757890000000  0.5976450000000 1.0
END
