TITL C-1525613-7943-4556 0.0262858809749551 3375 -8455.54439320311 0 0 60 (C1) n - 1
REM
REM in /home/nfs/bkarasulu/CARBON/AIRSS/Generating-Clusters/ReaxFF-fromJPCA2015/Units_Real/Try2-Higher-symm/Only-C60
REM
REM
REM
REM
REM
REM ./C.cell (863b2abdce7293c0672fb3ba77bf323a)
REM AIRSS Version 0.9.1 bugfix July 2018 build 013d7b7c2542+ Fri, 06 Jul 2018 19:26:36 +0100
REM compiler GCC version 9.2.1 20190827 (Red Hat 9.2.1-1)
REM options -cpp -mtune=generic -march=x86-64 -g -O0 -fpre-include=/usr/include/finclude/math-vector-fortran.h
REM seed -186790066 -1150368259 1185454332 703313471 993503868 -176567290 -1880116891 1855944823 -1455763670 -1467730875 -1554179394 -1166816456 977788036 714813185 1941434846 -1646910952 -1018623474 610136700 1215252567 1597328137 429973175 -588860559 814826250 -1718566070 -1683902780 -676962576 981455497 -240706865 -189219134 -204530838 2067848974 -81416196 453604675
REM
CELL 1.54180   15.00000   15.00000   15.00000   90.00000   90.00000   90.00000
LATT -1
SFAC C  
C      1  0.2725080000000  0.5280580000000  0.3678800000000 1.0
C      1  0.4066670000000  0.4688190000000  0.2655940000000 1.0
C      1  0.5557430000000  0.5258510000000  0.2445400000000 1.0
C      1  0.6966360000000  0.4759150000000  0.3190410000000 1.0
C      1  0.7607710000000  0.5258550000000  0.4718690000000 1.0
C      1  0.7166450000000  0.4724610000000  0.6317770000000 1.0
C      1  0.6044750000000  0.5237810000000  0.7371340000000 1.0
C      1  0.4435790000000  0.4756710000000  0.7595740000000 1.0
C      1  0.3032220000000  0.5328600000000  0.6758400000000 1.0
C      1  0.2362080000000  0.4717490000000  0.5281970000000 1.0
C      1  0.6101440000000  0.6474540000000  0.5906620000000 1.0
C      1  0.5437550000000  0.3486220000000  0.6347860000000 1.0
C      1  0.4508460000000  0.6496120000000  0.6330380000000 1.0
C      1  0.3853880000000  0.3545610000000  0.5845770000000 1.0
C      1  0.3520430000000  0.6495450000000  0.4978290000000 1.0
C      1  0.3896910000000  0.3472710000000  0.4172470000000 1.0
C      1  0.4581160000000  0.6518010000000  0.3615020000000 1.0
C      1  0.5460140000000  0.3465440000000  0.3641930000000 1.0
C      1  0.6150750000000  0.6517620000000  0.4229070000000 1.0
C      1  0.6398310000000  0.3455860000000  0.5025460000000 1.0
C      1  0.6771240000000  0.3869170000000  0.6504500000000 1.0
C      1  0.5604340000000  0.6082780000000  0.7357940000000 1.0
C      1  0.4124470000000  0.3931280000000  0.7169420000000 1.0
C      1  0.2947420000000  0.6159100000000  0.6234850000000 1.0
C      1  0.2651880000000  0.3920300000000  0.4866120000000 1.0
C      1  0.3224170000000  0.6108000000000  0.3472710000000 1.0
C      1  0.4477340000000  0.3831690000000  0.2729650000000 1.0
C      1  0.5859360000000  0.6128120000000  0.2751520000000 1.0
C      1  0.6964790000000  0.3949380000000  0.3675950000000 1.0
C      1  0.7357360000000  0.6077730000000  0.5162480000000 1.0
C      1  0.5434110000000  0.6665730000000  0.6600780000000 1.0
C      1  0.4498230000000  0.3289500000000  0.6540400000000 1.0
C      1  0.3654130000000  0.6745590000000  0.5916320000000 1.0
C      1  0.3395350000000  0.3319480000000  0.4996340000000 1.0
C      1  0.3715100000000  0.6726330000000  0.4033270000000 1.0
C      1  0.4533910000000  0.3205520000000  0.3474750000000 1.0
C      1  0.5549060000000  0.6696150000000  0.3475320000000 1.0
C      1  0.6346160000000  0.3294880000000  0.4054840000000 1.0
C      1  0.6604340000000  0.6684950000000  0.5089810000000 1.0
C      1  0.6297990000000  0.3210450000000  0.5964220000000 1.0
C      1  0.5285020000000  0.4302420000000  0.4143560000000 1.0
C      1  0.5643460000000  0.5755300000000  0.4542720000000 1.0
C      1  0.5848710000000  0.4246230000000  0.4961120000000 1.0
C      1  0.5624400000000  0.5735320000000  0.5501550000000 1.0
C      1  0.5310070000000  0.4311050000000  0.5794870000000 1.0
C      1  0.4697990000000  0.5740500000000  0.5758740000000 1.0
C      1  0.4385940000000  0.4271940000000  0.5469330000000 1.0
C      1  0.4140130000000  0.5740630000000  0.4971820000000 1.0
C      1  0.4369870000000  0.4251650000000  0.4506050000000 1.0
C      1  0.4736060000000  0.5765450000000  0.4215350000000 1.0
C      1  0.6294420000000  0.4717500000000  0.6627700000000 1.0
C      1  0.5196310000000  0.5298370000000  0.7727340000000 1.0
C      1  0.3780080000000  0.4809300000000  0.6960400000000 1.0
C      1  0.2508750000000  0.5317340000000  0.5990820000000 1.0
C      1  0.2441690000000  0.4699510000000  0.4362830000000 1.0
C      1  0.3439530000000  0.5218660000000  0.3098610000000 1.0
C      1  0.4956950000000  0.4675800000000  0.2885440000000 1.0
C      1  0.6450390000000  0.5359100000000  0.2677920000000 1.0
C      1  0.7454260000000  0.4696670000000  0.3975770000000 1.0
C      1  0.7551690000000  0.5253360000000  0.5649520000000 1.0
END
