TITL C-1525613-7943-6188 -0.0554243291830924 3375 -8421.36326910541 0 0 60 (Ci) n - 1
REM
REM in /home/nfs/bkarasulu/CARBON/AIRSS/Generating-Clusters/ReaxFF-fromJPCA2015/Units_Real/Try2-Higher-symm/Only-C60
REM
REM
REM
REM
REM
REM ./C.cell (863b2abdce7293c0672fb3ba77bf323a)
REM AIRSS Version 0.9.1 bugfix July 2018 build 013d7b7c2542+ Fri, 06 Jul 2018 19:26:36 +0100
REM compiler GCC version 9.2.1 20190827 (Red Hat 9.2.1-1)
REM options -cpp -mtune=generic -march=x86-64 -g -O0 -fpre-include=/usr/include/finclude/math-vector-fortran.h
REM seed -1366426454 -305724010 -739910290 -718434666 1427347985 -1874895280 1050437062 -618737395 -1145883656 1284352951 -1789015942 1920588617 -874941048 999258652 -1419602151 -418250539 1204567054 640796044 1095242222 587063771 2051306649 -546497436 -851312370 2021650862 -1192372395 -369587993 174443758 -1057395903 318215853 -935478981 -1029936014 -1167030531 800403367
REM
CELL 1.54180   15.00000   15.00000   15.00000   90.00000   90.00000   90.00000
LATT -1
SFAC C  
C      1  0.3130250000000  0.4932650000000  0.6277910000000 1.0
C      1  0.6889630000000  0.5666910000000  0.6071210000000 1.0
C      1  0.3098950000000  0.6100280000000  0.5413950000000 1.0
C      1  0.6872790000000  0.6160320000000  0.4764830000000 1.0
C      1  0.3108560000000  0.5764160000000  0.4076160000000 1.0
C      1  0.6869930000000  0.5067450000000  0.3722170000000 1.0
C      1  0.3110320000000  0.4332870000000  0.3928340000000 1.0
C      1  0.6901050000000  0.3899900000000  0.4586240000000 1.0
C      1  0.3127840000000  0.3839970000000  0.5234950000000 1.0
C      1  0.6891690000000  0.4235280000000  0.5924360000000 1.0
C      1  0.4526320000000  0.6509880000000  0.3402900000000 1.0
C      1  0.5446140000000  0.5304280000000  0.2830060000000 1.0
C      1  0.4519280000000  0.3959770000000  0.3054030000000 1.0
C      1  0.5448060000000  0.3054030000000  0.3992120000000 1.0
C      1  0.4554780000000  0.2828970000000  0.5348810000000 1.0
C      1  0.5473050000000  0.3490460000000  0.6596720000000 1.0
C      1  0.4553880000000  0.4695870000000  0.7169990000000 1.0
C      1  0.5480850000000  0.6040280000000  0.6945860000000 1.0
C      1  0.4551870000000  0.6946090000000  0.6007470000000 1.0
C      1  0.5444880000000  0.7171080000000  0.4651450000000 1.0
C      1  0.5487350000000  0.4347030000000  0.7198240000000 1.0
C      1  0.4528920000000  0.5769310000000  0.7204690000000 1.0
C      1  0.5490060000000  0.6889280000000  0.6326320000000 1.0
C      1  0.4503590000000  0.7288450000000  0.4949600000000 1.0
C      1  0.5483240000000  0.6832990000000  0.3588570000000 1.0
C      1  0.4512520000000  0.5653020000000  0.2801640000000 1.0
C      1  0.5471160000000  0.4230650000000  0.2795310000000 1.0
C      1  0.4509930000000  0.3110580000000  0.3673330000000 1.0
C      1  0.5496160000000  0.2711740000000  0.5050530000000 1.0
C      1  0.4516720000000  0.3167130000000  0.6411380000000 1.0
C      1  0.3939890000000  0.6909840000000  0.4286330000000 1.0
C      1  0.6046880000000  0.6143910000000  0.3272050000000 1.0
C      1  0.3936220000000  0.4932670000000  0.2966250000000 1.0
C      1  0.6015190000000  0.3683230000000  0.3310850000000 1.0
C      1  0.3945050000000  0.3032200000000  0.4418810000000 1.0
C      1  0.6060030000000  0.3090500000000  0.5713640000000 1.0
C      1  0.3953560000000  0.3855800000000  0.6727860000000 1.0
C      1  0.6063670000000  0.5067190000000  0.7033700000000 1.0
C      1  0.3985100000000  0.6317000000000  0.6689170000000 1.0
C      1  0.6055310000000  0.6967540000000  0.5581070000000 1.0
C      1  0.5221680000000  0.5604580000000  0.6081220000000 1.0
C      1  0.4728980000000  0.6042720000000  0.5523980000000 1.0
C      1  0.5214860000000  0.6197020000000  0.4779950000000 1.0
C      1  0.4818230000000  0.5824010000000  0.4095540000000 1.0
C      1  0.5270650000000  0.5099560000000  0.3836820000000 1.0
C      1  0.4777870000000  0.4395420000000  0.3918890000000 1.0
C      1  0.5270090000000  0.3956880000000  0.4476140000000 1.0
C      1  0.4785040000000  0.3803020000000  0.5220990000000 1.0
C      1  0.5181930000000  0.4175690000000  0.5905020000000 1.0
C      1  0.4729350000000  0.4900130000000  0.6163150000000 1.0
C      1  0.3199680000000  0.5090410000000  0.3526730000000 1.0
C      1  0.6842220000000  0.4125530000000  0.3681390000000 1.0
C      1  0.3217590000000  0.3624900000000  0.4435780000000 1.0
C      1  0.6825040000000  0.3548350000000  0.5438260000000 1.0
C      1  0.3135560000000  0.4003840000000  0.6156860000000 1.0
C      1  0.6800110000000  0.4909640000000  0.6472870000000 1.0
C      1  0.3157940000000  0.5874740000000  0.6318870000000 1.0
C      1  0.6782810000000  0.6375010000000  0.5563980000000 1.0
C      1  0.3175120000000  0.6451630000000  0.4561880000000 1.0
C      1  0.6864600000000  0.5996370000000  0.3842760000000 1.0
END
