TITL C-1525613-7943-3113 -0.0668094219611423 3375 -9555.40985793326 0 0 60 (C5) n - 1
REM
REM in /home/nfs/bkarasulu/CARBON/AIRSS/Generating-Clusters/ReaxFF-fromJPCA2015/Units_Real/Try2-Higher-symm/Only-C60
REM
REM
REM
REM
REM
REM ./C.cell (863b2abdce7293c0672fb3ba77bf323a)
REM AIRSS Version 0.9.1 bugfix July 2018 build 013d7b7c2542+ Fri, 06 Jul 2018 19:26:36 +0100
REM compiler GCC version 9.2.1 20190827 (Red Hat 9.2.1-1)
REM options -cpp -mtune=generic -march=x86-64 -g -O0 -fpre-include=/usr/include/finclude/math-vector-fortran.h
REM seed -2071471401 -2143651352 528048222 -979142016 -1284739356 1793072515 -425787947 -115914222 1396612994 1964395911 508492090 1357858949 1564910949 -327180478 1342665353 -2116109015 -632217932 -137334939 -405905291 149625741 1919675892 1273234062 1238595424 1732513113 -1459864947 1441667774 -652250365 -2041353675 1668947339 838858851 -409399796 1963474601 -944516069
REM
CELL 1.54180   15.00000   15.00000   15.00000   90.00000   90.00000   90.00000
LATT -1
SFAC C  
C      1  0.3238060000000  0.5402260000000  0.6619810000000 1.0
C      1  0.5980240000000  0.5419910000000  0.7167970000000 1.0
C      1  0.7369360000000  0.5407240000000  0.4731990000000 1.0
C      1  0.5483840000000  0.5421400000000  0.2673890000000 1.0
C      1  0.2925370000000  0.5402710000000  0.3814090000000 1.0
C      1  0.6758940000000  0.5419320000000  0.6598670000000 1.0
C      1  0.4018590000000  0.5405320000000  0.7181360000000 1.0
C      1  0.2624800000000  0.5400560000000  0.4724550000000 1.0
C      1  0.4521120000000  0.5416670000000  0.2673640000000 1.0
C      1  0.7071530000000  0.5413480000000  0.3820570000000 1.0
C      1  0.4096850000000  0.3805660000000  0.7035010000000 1.0
C      1  0.6656580000000  0.3806150000000  0.6488230000000 1.0
C      1  0.6927330000000  0.3805760000000  0.3888370000000 1.0
C      1  0.4534340000000  0.3805960000000  0.2821780000000 1.0
C      1  0.2790940000000  0.3806800000000  0.4767970000000 1.0
C      1  0.5905260000000  0.3808620000000  0.7030620000000 1.0
C      1  0.3349850000000  0.3805770000000  0.6484950000000 1.0
C      1  0.3067940000000  0.3802440000000  0.3883790000000 1.0
C      1  0.5465100000000  0.3808950000000  0.2824620000000 1.0
C      1  0.7216780000000  0.3803840000000  0.4767580000000 1.0
C      1  0.3733960000000  0.6860170000000  0.4071540000000 1.0
C      1  0.3738320000000  0.6861780000000  0.5927640000000 1.0
C      1  0.5504150000000  0.6824670000000  0.6492980000000 1.0
C      1  0.6558790000000  0.6856670000000  0.5002020000000 1.0
C      1  0.5472070000000  0.6835570000000  0.3497650000000 1.0
C      1  0.6268620000000  0.6856520000000  0.4080910000000 1.0
C      1  0.6257820000000  0.6824090000000  0.5938980000000 1.0
C      1  0.4521050000000  0.6861040000000  0.6495320000000 1.0
C      1  0.3431680000000  0.6864480000000  0.4989060000000 1.0
C      1  0.4532760000000  0.6824040000000  0.3498810000000 1.0
C      1  0.2672610000000  0.4604990000000  0.5252090000000 1.0
C      1  0.4518460000000  0.4604280000000  0.7297270000000 1.0
C      1  0.7040020000000  0.4609210000000  0.6160430000000 1.0
C      1  0.6740630000000  0.4608870000000  0.3427710000000 1.0
C      1  0.4035750000000  0.4609280000000  0.2860170000000 1.0
C      1  0.7334990000000  0.4605910000000  0.5246390000000 1.0
C      1  0.5476940000000  0.4610630000000  0.7295430000000 1.0
C      1  0.2967200000000  0.4605800000000  0.6161950000000 1.0
C      1  0.3256140000000  0.4602360000000  0.3420750000000 1.0
C      1  0.5962950000000  0.4611280000000  0.2862440000000 1.0
C      1  0.5924340000000  0.6213440000000  0.2933500000000 1.0
C      1  0.3307100000000  0.6212260000000  0.3464440000000 1.0
C      1  0.3013970000000  0.6230610000000  0.6162190000000 1.0
C      1  0.5476400000000  0.6215280000000  0.7214280000000 1.0
C      1  0.7267040000000  0.6214810000000  0.5242420000000 1.0
C      1  0.4087620000000  0.6208880000000  0.2932730000000 1.0
C      1  0.6692070000000  0.6213940000000  0.3471810000000 1.0
C      1  0.6952530000000  0.6212090000000  0.6130770000000 1.0
C      1  0.4532850000000  0.6216900000000  0.7241690000000 1.0
C      1  0.2709800000000  0.6230240000000  0.5225820000000 1.0
C      1  0.3721440000000  0.3113220000000  0.5923450000000 1.0
C      1  0.5481290000000  0.3113770000000  0.6503010000000 1.0
C      1  0.6582750000000  0.3109400000000  0.5005950000000 1.0
C      1  0.5493540000000  0.3114060000000  0.3502320000000 1.0
C      1  0.3722410000000  0.3109150000000  0.4064310000000 1.0
C      1  0.6284450000000  0.3111060000000  0.5922340000000 1.0
C      1  0.4517760000000  0.3106460000000  0.6506990000000 1.0
C      1  0.3424470000000  0.3117110000000  0.5005590000000 1.0
C      1  0.4505730000000  0.3111980000000  0.3499950000000 1.0
C      1  0.6274700000000  0.3114920000000  0.4067410000000 1.0
END
