TITL C-1525613-7943-3293 0.0429723004528914 3375 -8823.63222206875 0 0 60 (C1) n - 1
REM
REM in /home/nfs/bkarasulu/CARBON/AIRSS/Generating-Clusters/ReaxFF-fromJPCA2015/Units_Real/Try2-Higher-symm/Only-C60
REM
REM
REM
REM
REM
REM ./C.cell (863b2abdce7293c0672fb3ba77bf323a)
REM AIRSS Version 0.9.1 bugfix July 2018 build 013d7b7c2542+ Fri, 06 Jul 2018 19:26:36 +0100
REM compiler GCC version 9.2.1 20190827 (Red Hat 9.2.1-1)
REM options -cpp -mtune=generic -march=x86-64 -g -O0 -fpre-include=/usr/include/finclude/math-vector-fortran.h
REM seed -446354732 -829485143 2076600179 -1097893873 977355182 -458326810 1184377728 1514318993 -554763572 -1271146891 -2097331215 260675294 1176177640 888134676 82604284 -1244800139 -996406286 -1355280754 507919286 1569234586 -150136628 -826849845 -13637075 -731239281 -2003013452 -1038416091 -1291554983 -1825470953 -1179428525 -1225124790 -14045054 -211207887 1915950397
REM
CELL 1.54180   15.00000   15.00000   15.00000   90.00000   90.00000   90.00000
LATT -1
SFAC C  
C      1  0.5296990000000  0.5825330000000  0.7008490000000 1.0
C      1  0.4862360000000  0.5701130000000  0.2661080000000 1.0
C      1  0.4486920000000  0.5824840000000  0.7634790000000 1.0
C      1  0.4427480000000  0.5045450000000  0.3261360000000 1.0
C      1  0.4554880000000  0.4907980000000  0.7731820000000 1.0
C      1  0.4668280000000  0.4167150000000  0.3003780000000 1.0
C      1  0.5106500000000  0.4301630000000  0.7353090000000 1.0
C      1  0.5484700000000  0.4176360000000  0.2377650000000 1.0
C      1  0.5539020000000  0.4957180000000  0.6769550000000 1.0
C      1  0.5408390000000  0.5089700000000  0.2286990000000 1.0
C      1  0.7398110000000  0.5655270000000  0.6095160000000 1.0
C      1  0.5948890000000  0.6751500000000  0.4124620000000 1.0
C      1  0.4727120000000  0.7155830000000  0.6206630000000 1.0
C      1  0.3729420000000  0.6896050000000  0.3829770000000 1.0
C      1  0.3500650000000  0.5552780000000  0.5798270000000 1.0
C      1  0.2519400000000  0.4391260000000  0.3867310000000 1.0
C      1  0.4079980000000  0.3159460000000  0.5910600000000 1.0
C      1  0.5298760000000  0.2835030000000  0.3782660000000 1.0
C      1  0.6294830000000  0.3190160000000  0.6175360000000 1.0
C      1  0.6532480000000  0.4467520000000  0.4185500000000 1.0
C      1  0.6234440000000  0.4225960000000  0.5049200000000 1.0
C      1  0.7572560000000  0.5825460000000  0.5206400000000 1.0
C      1  0.5668180000000  0.6903370000000  0.5013360000000 1.0
C      1  0.4765060000000  0.7128110000000  0.5245950000000 1.0
C      1  0.4008120000000  0.6704920000000  0.4750340000000 1.0
C      1  0.3783410000000  0.5787520000000  0.4917030000000 1.0
C      1  0.2371640000000  0.4217530000000  0.4784760000000 1.0
C      1  0.4358560000000  0.2982890000000  0.5009040000000 1.0
C      1  0.5269250000000  0.2846820000000  0.4755930000000 1.0
C      1  0.6013090000000  0.3322110000000  0.5250680000000 1.0
C      1  0.6727200000000  0.6196140000000  0.6174240000000 1.0
C      1  0.5415840000000  0.7171350000000  0.3412830000000 1.0
C      1  0.3867190000000  0.7054340000000  0.6659980000000 1.0
C      1  0.3210470000000  0.6156510000000  0.3458600000000 1.0
C      1  0.3161300000000  0.4688600000000  0.6142160000000 1.0
C      1  0.3223760000000  0.3749410000000  0.3831830000000 1.0
C      1  0.4645560000000  0.2770570000000  0.6633800000000 1.0
C      1  0.6160510000000  0.2957570000000  0.3325530000000 1.0
C      1  0.6758300000000  0.3967960000000  0.6519550000000 1.0
C      1  0.6871960000000  0.5323030000000  0.3847590000000 1.0
C      1  0.3339110000000  0.3753960000000  0.6148820000000 1.0
C      1  0.4497280000000  0.3279790000000  0.3431810000000 1.0
C      1  0.5634270000000  0.2749450000000  0.6747380000000 1.0
C      1  0.6697510000000  0.3748340000000  0.3506210000000 1.0
C      1  0.7251130000000  0.4747010000000  0.6347120000000 1.0
C      1  0.6688540000000  0.6222230000000  0.3859900000000 1.0
C      1  0.5513740000000  0.6699220000000  0.6567620000000 1.0
C      1  0.4440610000000  0.7286220000000  0.3272630000000 1.0
C      1  0.3318980000000  0.6271100000000  0.6467910000000 1.0
C      1  0.2723900000000  0.5372710000000  0.3588880000000 1.0
C      1  0.6337360000000  0.4677790000000  0.6045320000000 1.0
C      1  0.7474140000000  0.5910580000000  0.4298850000000 1.0
C      1  0.6125950000000  0.6693660000000  0.5866630000000 1.0
C      1  0.4967210000000  0.6725690000000  0.2695600000000 1.0
C      1  0.3711260000000  0.6378810000000  0.7346060000000 1.0
C      1  0.3660680000000  0.5329380000000  0.3963540000000 1.0
C      1  0.2486460000000  0.4093910000000  0.5685930000000 1.0
C      1  0.3828970000000  0.3123900000000  0.4135130000000 1.0
C      1  0.5070460000000  0.3263160000000  0.7331560000000 1.0
C      1  0.6280870000000  0.3641340000000  0.2639790000000 1.0
END
