TITL C-1525613-7943-4054 0.0776470725537094 3375 -8679.02382192687 0 0 60 (C1) n - 1
REM
REM in /home/nfs/bkarasulu/CARBON/AIRSS/Generating-Clusters/ReaxFF-fromJPCA2015/Units_Real/Try2-Higher-symm/Only-C60
REM
REM
REM
REM
REM
REM ./C.cell (863b2abdce7293c0672fb3ba77bf323a)
REM AIRSS Version 0.9.1 bugfix July 2018 build 013d7b7c2542+ Fri, 06 Jul 2018 19:26:36 +0100
REM compiler GCC version 9.2.1 20190827 (Red Hat 9.2.1-1)
REM options -cpp -mtune=generic -march=x86-64 -g -O0 -fpre-include=/usr/include/finclude/math-vector-fortran.h
REM seed -265811263 -688802816 638263464 390279610 1202838304 573771907 -760254899 -379453767 1064395635 539079399 -1573413753 -2100288921 10501073 -677283212 -1153001201 -699176545 -246010462 -721417 -68412320 -1698214688 957114893 2107845388 682059716 -478166371 -2107703551 -1769947581 -599890516 -824604632 1626803180 -242834715 -1551594891 1901948182 885149320
REM
CELL 1.54180   15.00000   15.00000   15.00000   90.00000   90.00000   90.00000
LATT -1
SFAC C  
C      1  0.3595650000000  0.5551070000000  0.3182930000000 1.0
C      1  0.4413810000000  0.5919470000000  0.3124730000000 1.0
C      1  0.5112760000000  0.6473280000000  0.3211810000000 1.0
C      1  0.6084790000000  0.6210610000000  0.3212930000000 1.0
C      1  0.6561540000000  0.5374000000000  0.3288860000000 1.0
C      1  0.6341810000000  0.4463090000000  0.3404560000000 1.0
C      1  0.5814570000000  0.3754770000000  0.3044870000000 1.0
C      1  0.4896540000000  0.3526500000000  0.3317700000000 1.0
C      1  0.3950920000000  0.3758670000000  0.3227020000000 1.0
C      1  0.3398400000000  0.4563250000000  0.3218560000000 1.0
C      1  0.3623220000000  0.5475850000000  0.6686930000000 1.0
C      1  0.4132160000000  0.6256420000000  0.6996540000000 1.0
C      1  0.5010230000000  0.6457810000000  0.6659980000000 1.0
C      1  0.5919250000000  0.6259940000000  0.6751000000000 1.0
C      1  0.6499490000000  0.5476330000000  0.6846910000000 1.0
C      1  0.6388510000000  0.4519410000000  0.6702590000000 1.0
C      1  0.5867340000000  0.3726840000000  0.6961610000000 1.0
C      1  0.4990340000000  0.3544400000000  0.6632600000000 1.0
C      1  0.4079590000000  0.3725000000000  0.6763490000000 1.0
C      1  0.3508200000000  0.4518990000000  0.6831990000000 1.0
C      1  0.7204020000000  0.5951890000000  0.6338040000000 1.0
C      1  0.6738050000000  0.4062880000000  0.5938000000000 1.0
C      1  0.6212290000000  0.3208370000000  0.6136570000000 1.0
C      1  0.5279000000000  0.3073910000000  0.5902540000000 1.0
C      1  0.3371560000000  0.3241580000000  0.6284600000000 1.0
C      1  0.2805940000000  0.4051040000000  0.6321420000000 1.0
C      1  0.3263260000000  0.5959970000000  0.5955430000000 1.0
C      1  0.3776300000000  0.6833910000000  0.6231840000000 1.0
C      1  0.4711390000000  0.6989870000000  0.5982130000000 1.0
C      1  0.6616280000000  0.6739400000000  0.6261010000000 1.0
C      1  0.6703360000000  0.2447760000000  0.4547950000000 1.0
C      1  0.4811470000000  0.2177610000000  0.4517490000000 1.0
C      1  0.3305560000000  0.2713090000000  0.4522770000000 1.0
C      1  0.2221300000000  0.4408760000000  0.4548910000000 1.0
C      1  0.2444310000000  0.6034420000000  0.4377770000000 1.0
C      1  0.3357210000000  0.7555430000000  0.4845700000000 1.0
C      1  0.5151610000000  0.7748800000000  0.4401720000000 1.0
C      1  0.6701590000000  0.7253050000000  0.4470450000000 1.0
C      1  0.7768400000000  0.5603410000000  0.4580820000000 1.0
C      1  0.7607500000000  0.4006560000000  0.4494960000000 1.0
C      1  0.6577500000000  0.7308340000000  0.5436880000000 1.0
C      1  0.7726480000000  0.5640810000000  0.5556980000000 1.0
C      1  0.7633180000000  0.4127500000000  0.5476240000000 1.0
C      1  0.6707150000000  0.2471730000000  0.5409260000000 1.0
C      1  0.4881490000000  0.2242410000000  0.5499890000000 1.0
C      1  0.3379760000000  0.2634950000000  0.5494500000000 1.0
C      1  0.2325530000000  0.4374020000000  0.5517240000000 1.0
C      1  0.2479390000000  0.5839670000000  0.5351580000000 1.0
C      1  0.3212570000000  0.7655590000000  0.5772210000000 1.0
C      1  0.5153380000000  0.7657180000000  0.5387840000000 1.0
C      1  0.6687860000000  0.3963450000000  0.4089950000000 1.0
C      1  0.6193710000000  0.3171690000000  0.3807310000000 1.0
C      1  0.5215130000000  0.2938300000000  0.3994190000000 1.0
C      1  0.3229860000000  0.3275600000000  0.3721720000000 1.0
C      1  0.2687640000000  0.4110660000000  0.3721190000000 1.0
C      1  0.3196460000000  0.6270780000000  0.3778740000000 1.0
C      1  0.3716750000000  0.7031460000000  0.4055200000000 1.0
C      1  0.4631540000000  0.7154630000000  0.3794280000000 1.0
C      1  0.6807890000000  0.6684470000000  0.3672710000000 1.0
C      1  0.7317210000000  0.5829350000000  0.3734400000000 1.0
END
