TITL C-1525613-7943-960 0.678259941655911 3375 -8093.03360388436 0 0 60 (C1) n - 1
REM
REM in /home/nfs/bkarasulu/CARBON/AIRSS/Generating-Clusters/ReaxFF-fromJPCA2015/Units_Real/Try2-Higher-symm/Only-C60
REM
REM
REM
REM
REM
REM ./C.cell (863b2abdce7293c0672fb3ba77bf323a)
REM AIRSS Version 0.9.1 bugfix July 2018 build 013d7b7c2542+ Fri, 06 Jul 2018 19:26:36 +0100
REM compiler GCC version 9.2.1 20190827 (Red Hat 9.2.1-1)
REM options -cpp -mtune=generic -march=x86-64 -g -O0 -fpre-include=/usr/include/finclude/math-vector-fortran.h
REM seed 1683394688 750436870 -75536639 -1661495330 1853120350 1209669348 -775223091 189622663 491303796 694040618 1950667457 698524026 -711460475 -1891163326 -1436031632 -2042345592 -282987442 -854647216 1032600883 -1993512671 1859946921 1674990108 -1522596086 768328314 1530680936 1330516313 1351870079 -1886838424 1431329078 -443246163 393298808 92429078 423444363
REM
CELL 1.54180   15.00000   15.00000   15.00000   90.00000   90.00000   90.00000
LATT -1
SFAC C  
C      1  0.6262710000000  0.6288000000000  0.6717060000000 1.0
C      1  0.6504220000000  0.3350990000000  0.6499210000000 1.0
C      1  0.6308240000000  0.3110400000000  0.4284060000000 1.0
C      1  0.6301260000000  0.5075160000000  0.3093960000000 1.0
C      1  0.6367380000000  0.6915070000000  0.4476430000000 1.0
C      1  0.6323670000000  0.6101880000000  0.3354480000000 1.0
C      1  0.6383440000000  0.3790700000000  0.3484160000000 1.0
C      1  0.6292690000000  0.2913790000000  0.5626260000000 1.0
C      1  0.6485300000000  0.5423660000000  0.7206470000000 1.0
C      1  0.6347900000000  0.6887140000000  0.5510790000000 1.0
C      1  0.5674520000000  0.5359910000000  0.2375480000000 1.0
C      1  0.5669490000000  0.7615900000000  0.4468620000000 1.0
C      1  0.5573710000000  0.6425210000000  0.7420290000000 1.0
C      1  0.5639420000000  0.3090110000000  0.6888320000000 1.0
C      1  0.5610930000000  0.2578820000000  0.3839360000000 1.0
C      1  0.5622190000000  0.5446130000000  0.7690400000000 1.0
C      1  0.5667830000000  0.7603220000000  0.5467640000000 1.0
C      1  0.5665450000000  0.6322210000000  0.2665610000000 1.0
C      1  0.5692340000000  0.3219830000000  0.3067980000000 1.0
C      1  0.5558050000000  0.2431950000000  0.6121490000000 1.0
C      1  0.4928000000000  0.7451640000000  0.6106450000000 1.0
C      1  0.5007770000000  0.4693870000000  0.7582750000000 1.0
C      1  0.4877540000000  0.2258610000000  0.5450160000000 1.0
C      1  0.4966330000000  0.3747870000000  0.2641490000000 1.0
C      1  0.4953850000000  0.6893130000000  0.3038690000000 1.0
C      1  0.4951530000000  0.7476810000000  0.3833150000000 1.0
C      1  0.4956160000000  0.4674590000000  0.2340650000000 1.0
C      1  0.4898270000000  0.2336270000000  0.4456700000000 1.0
C      1  0.5015500000000  0.3748260000000  0.7259640000000 1.0
C      1  0.4892310000000  0.6969960000000  0.6972790000000 1.0
C      1  0.3198510000000  0.3375150000000  0.3196740000000 1.0
C      1  0.3388570000000  0.5999120000000  0.2865110000000 1.0
C      1  0.3352000000000  0.7331320000000  0.5246030000000 1.0
C      1  0.3228480000000  0.5300600000000  0.7387840000000 1.0
C      1  0.3412700000000  0.2949240000000  0.6125990000000 1.0
C      1  0.3234650000000  0.3361650000000  0.6750940000000 1.0
C      1  0.3411530000000  0.5999730000000  0.7121660000000 1.0
C      1  0.3178370000000  0.7394770000000  0.4494240000000 1.0
C      1  0.3199030000000  0.5303370000000  0.2592870000000 1.0
C      1  0.3358250000000  0.2965910000000  0.3832830000000 1.0
C      1  0.4009730000000  0.6638340000000  0.3209290000000 1.0
C      1  0.3985410000000  0.7185600000000  0.5926430000000 1.0
C      1  0.4042680000000  0.4776460000000  0.7308090000000 1.0
C      1  0.3939900000000  0.2556060000000  0.5439040000000 1.0
C      1  0.4026250000000  0.3840540000000  0.3001830000000 1.0
C      1  0.3948060000000  0.6714200000000  0.6790980000000 1.0
C      1  0.4001660000000  0.7150690000000  0.4048730000000 1.0
C      1  0.4014200000000  0.4787310000000  0.2684460000000 1.0
C      1  0.3956410000000  0.2636050000000  0.4481680000000 1.0
C      1  0.4051520000000  0.3833360000000  0.6989820000000 1.0
C      1  0.5729680000000  0.6157170000000  0.5448040000000 1.0
C      1  0.6027280000000  0.4960770000000  0.6469510000000 1.0
C      1  0.5712040000000  0.3686800000000  0.5489830000000 1.0
C      1  0.5879780000000  0.4341560000000  0.4117420000000 1.0
C      1  0.5521370000000  0.5790500000000  0.3867570000000 1.0
C      1  0.5705780000000  0.6191910000000  0.4599410000000 1.0
C      1  0.5554250000000  0.4952610000000  0.3673490000000 1.0
C      1  0.5615660000000  0.3701070000000  0.4646800000000 1.0
C      1  0.6226840000000  0.4176160000000  0.6082730000000 1.0
C      1  0.5691440000000  0.5740900000000  0.6170050000000 1.0
END
