TITL C-1525613-7943-2315 5.6864201588148e-05 3375 -9532.89192283468 0 0 60 (D5d) n - 1
REM
REM in /home/nfs/bkarasulu/CARBON/AIRSS/Generating-Clusters/ReaxFF-fromJPCA2015/Units_Real/Try2-Higher-symm/Only-C60
REM
REM
REM
REM
REM
REM ./C.cell (863b2abdce7293c0672fb3ba77bf323a)
REM AIRSS Version 0.9.1 bugfix July 2018 build 013d7b7c2542+ Fri, 06 Jul 2018 19:26:36 +0100
REM compiler GCC version 9.2.1 20190827 (Red Hat 9.2.1-1)
REM options -cpp -mtune=generic -march=x86-64 -g -O0 -fpre-include=/usr/include/finclude/math-vector-fortran.h
REM seed -375838828 490509369 1969277509 -1814689974 1549782612 -289234846 1922269265 1384811484 118094810 1574449056 -1999028528 2137610599 -724283341 830700574 -449706167 -1307366121 1801885636 1285739852 -882277607 -1540481898 231807292 102383918 252493247 1815311901 -1243489174 696532593 -763236072 -1574877962 317082945 -159292162 1623027332 1580671247 -1376630787
REM
CELL 1.54180   15.00000   15.00000   15.00000   90.00000   90.00000   90.00000
LATT -1
SFAC C  
C      1  0.7044380000000  0.6215860000000  0.5911730000000 1.0
C      1  0.4764800000000  0.6215990000000  0.7225560000000 1.0
C      1  0.2810420000000  0.6216360000000  0.5464010000000 1.0
C      1  0.3882270000000  0.6216430000000  0.3061230000000 1.0
C      1  0.6498810000000  0.6216020000000  0.3337900000000 1.0
C      1  0.7044420000000  0.6216000000000  0.4088610000000 1.0
C      1  0.4764940000000  0.6216290000000  0.2774590000000 1.0
C      1  0.2810430000000  0.6216440000000  0.4535980000000 1.0
C      1  0.3882160000000  0.6216160000000  0.6938830000000 1.0
C      1  0.6498730000000  0.6215790000000  0.6662410000000 1.0
C      1  0.5923780000000  0.6898980000000  0.6282550000000 1.0
C      1  0.4065790000000  0.6899350000000  0.6274620000000 1.0
C      1  0.3498980000000  0.6899530000000  0.4505360000000 1.0
C      1  0.5006920000000  0.6899330000000  0.3419970000000 1.0
C      1  0.6505570000000  0.6899230000000  0.4518150000000 1.0
C      1  0.5923830000000  0.6899150000000  0.3717810000000 1.0
C      1  0.4065840000000  0.6899540000000  0.3725540000000 1.0
C      1  0.3498970000000  0.6899440000000  0.5494780000000 1.0
C      1  0.5006840000000  0.6899130000000  0.6580300000000 1.0
C      1  0.6505560000000  0.6899160000000  0.5482240000000 1.0
C      1  0.4749070000000  0.4590570000000  0.7324090000000 1.0
C      1  0.2711500000000  0.4590910000000  0.5479630000000 1.0
C      1  0.3836580000000  0.4591020000000  0.2972160000000 1.0
C      1  0.6569280000000  0.4590610000000  0.3267120000000 1.0
C      1  0.7133390000000  0.4590400000000  0.5956850000000 1.0
C      1  0.4749210000000  0.4590880000000  0.2675830000000 1.0
C      1  0.2711510000000  0.4590980000000  0.4520080000000 1.0
C      1  0.3836480000000  0.4590730000000  0.7027640000000 1.0
C      1  0.6569190000000  0.4590360000000  0.6733000000000 1.0
C      1  0.7133430000000  0.4590530000000  0.4043300000000 1.0
C      1  0.6501270000000  0.3100420000000  0.5494660000000 1.0
C      1  0.4993080000000  0.3100780000000  0.6579740000000 1.0
C      1  0.3494200000000  0.3100690000000  0.5481820000000 1.0
C      1  0.4076120000000  0.3101020000000  0.3717550000000 1.0
C      1  0.5934210000000  0.3100680000000  0.3725550000000 1.0
C      1  0.6501240000000  0.3100530000000  0.4505250000000 1.0
C      1  0.4993120000000  0.3100970000000  0.3419990000000 1.0
C      1  0.3494170000000  0.3100750000000  0.4517740000000 1.0
C      1  0.4076140000000  0.3100870000000  0.6282020000000 1.0
C      1  0.5934220000000  0.3100470000000  0.6274340000000 1.0
C      1  0.2866650000000  0.5409480000000  0.5956690000000 1.0
C      1  0.3430830000000  0.5409650000000  0.3266970000000 1.0
C      1  0.6163530000000  0.5409250000000  0.2972350000000 1.0
C      1  0.7288490000000  0.5409040000000  0.5479910000000 1.0
C      1  0.5250790000000  0.5409090000000  0.7324230000000 1.0
C      1  0.2866690000000  0.5409620000000  0.4043150000000 1.0
C      1  0.3430730000000  0.5409400000000  0.6732920000000 1.0
C      1  0.6163410000000  0.5408970000000  0.7027830000000 1.0
C      1  0.7288510000000  0.5409100000000  0.4520360000000 1.0
C      1  0.5250940000000  0.5409400000000  0.2675860000000 1.0
C      1  0.3501220000000  0.3784200000000  0.3337620000000 1.0
C      1  0.6117820000000  0.3783830000000  0.3061300000000 1.0
C      1  0.7189760000000  0.3783580000000  0.5464030000000 1.0
C      1  0.5235040000000  0.3783710000000  0.7225220000000 1.0
C      1  0.2955460000000  0.3783990000000  0.5911400000000 1.0
C      1  0.3501180000000  0.3783980000000  0.6662030000000 1.0
C      1  0.6117740000000  0.3783550000000  0.6938690000000 1.0
C      1  0.7189750000000  0.3783660000000  0.4535990000000 1.0
C      1  0.5235160000000  0.3784010000000  0.2774640000000 1.0
C      1  0.2955470000000  0.3784130000000  0.4088230000000 1.0
END
