TITL C-1525613-7943-4079 -0.202220144332525 3375 -8878.32251205205 0 0 60 (C2) n - 1
REM
REM in /home/nfs/bkarasulu/CARBON/AIRSS/Generating-Clusters/ReaxFF-fromJPCA2015/Units_Real/Try2-Higher-symm/Only-C60
REM
REM
REM
REM
REM
REM ./C.cell (863b2abdce7293c0672fb3ba77bf323a)
REM AIRSS Version 0.9.1 bugfix July 2018 build 013d7b7c2542+ Fri, 06 Jul 2018 19:26:36 +0100
REM compiler GCC version 9.2.1 20190827 (Red Hat 9.2.1-1)
REM options -cpp -mtune=generic -march=x86-64 -g -O0 -fpre-include=/usr/include/finclude/math-vector-fortran.h
REM seed 1111426122 -109388283 1573802804 2128216637 -915577921 -1388313997 -355852545 1423092045 1372945596 1694181246 -281706806 -913788178 -1846035473 194234598 -969807868 -745399543 2129850220 2106331232 -2003057289 780378072 1746868009 141216436 277877511 -1830445515 -168110104 603594189 -787313259 1132702673 1145115415 320620624 1576794528 1264136854 1632502269
REM
CELL 1.54180   15.00000   15.00000   15.00000   90.00000   90.00000   90.00000
LATT -1
SFAC C  
C      1  0.5130860000000  0.6528790000000  0.3535660000000 1.0
C      1  0.6465660000000  0.6441100000000  0.4807250000000 1.0
C      1  0.6016960000000  0.6424440000000  0.6135040000000 1.0
C      1  0.4304220000000  0.6474210000000  0.6340420000000 1.0
C      1  0.3596390000000  0.6547100000000  0.4742170000000 1.0
C      1  0.4869110000000  0.3471200000000  0.3535660000000 1.0
C      1  0.3534320000000  0.3558920000000  0.4807240000000 1.0
C      1  0.3983020000000  0.3575520000000  0.6135120000000 1.0
C      1  0.5695770000000  0.3525800000000  0.6340430000000 1.0
C      1  0.6403640000000  0.3452830000000  0.4742140000000 1.0
C      1  0.5439940000000  0.4726340000000  0.7673740000000 1.0
C      1  0.2636680000000  0.4577770000000  0.5942410000000 1.0
C      1  0.3382580000000  0.4609300000000  0.3029330000000 1.0
C      1  0.6146700000000  0.4518000000000  0.2562690000000 1.0
C      1  0.7672570000000  0.4650910000000  0.5342670000000 1.0
C      1  0.4560060000000  0.5273670000000  0.7673740000000 1.0
C      1  0.7363310000000  0.5422260000000  0.5942400000000 1.0
C      1  0.6617420000000  0.5390700000000  0.3029330000000 1.0
C      1  0.3853300000000  0.5482020000000  0.2562680000000 1.0
C      1  0.2327440000000  0.5349090000000  0.5342670000000 1.0
C      1  0.5587800000000  0.7237550000000  0.5780300000000 1.0
C      1  0.4617240000000  0.7260560000000  0.5815740000000 1.0
C      1  0.4298650000000  0.7275340000000  0.4892830000000 1.0
C      1  0.5060950000000  0.7259260000000  0.4308850000000 1.0
C      1  0.5861620000000  0.7239510000000  0.4837270000000 1.0
C      1  0.4412220000000  0.2762400000000  0.5780320000000 1.0
C      1  0.5382780000000  0.2739430000000  0.5815750000000 1.0
C      1  0.5701360000000  0.2724630000000  0.4892830000000 1.0
C      1  0.4939060000000  0.2740740000000  0.4308830000000 1.0
C      1  0.4138360000000  0.2760480000000  0.4837250000000 1.0
C      1  0.4209490000000  0.4286180000000  0.4810640000000 1.0
C      1  0.4986400000000  0.4242630000000  0.4231040000000 1.0
C      1  0.5769120000000  0.4212470000000  0.4804890000000 1.0
C      1  0.5502530000000  0.4320310000000  0.5754090000000 1.0
C      1  0.4499440000000  0.4361540000000  0.5763840000000 1.0
C      1  0.5790440000000  0.5714040000000  0.4810750000000 1.0
C      1  0.5013740000000  0.5757380000000  0.4231080000000 1.0
C      1  0.4230880000000  0.5787380000000  0.4804860000000 1.0
C      1  0.4497540000000  0.5679740000000  0.5754110000000 1.0
C      1  0.5500600000000  0.5638490000000  0.5763770000000 1.0
C      1  0.4265100000000  0.6205380000000  0.2997370000000 1.0
C      1  0.6069060000000  0.6106120000000  0.3295270000000 1.0
C      1  0.6878530000000  0.6258710000000  0.5687600000000 1.0
C      1  0.4498770000000  0.6198260000000  0.7276050000000 1.0
C      1  0.2782460000000  0.6229320000000  0.5183300000000 1.0
C      1  0.5734870000000  0.3794660000000  0.2997440000000 1.0
C      1  0.3930860000000  0.3893840000000  0.3295220000000 1.0
C      1  0.3121400000000  0.3741260000000  0.5687570000000 1.0
C      1  0.5501230000000  0.3801740000000  0.7276060000000 1.0
C      1  0.7217540000000  0.3770700000000  0.5183300000000 1.0
C      1  0.3803840000000  0.4981750000000  0.7230670000000 1.0
C      1  0.2544920000000  0.4916450000000  0.4572450000000 1.0
C      1  0.4661780000000  0.5186170000000  0.2153890000000 1.0
C      1  0.7092310000000  0.5315060000000  0.3824540000000 1.0
C      1  0.6809320000000  0.5251200000000  0.6667940000000 1.0
C      1  0.6196170000000  0.5018250000000  0.7230660000000 1.0
C      1  0.7455080000000  0.5083550000000  0.4572450000000 1.0
C      1  0.5338230000000  0.4813840000000  0.2153890000000 1.0
C      1  0.2907680000000  0.4684920000000  0.3824540000000 1.0
C      1  0.3190670000000  0.4748830000000  0.6667950000000 1.0
END
