TITL C-1525613-7943-1073 0.0445717349830108 3375 -9135.22345470657 0 0 60 (C1) n - 1
REM
REM in /home/nfs/bkarasulu/CARBON/AIRSS/Generating-Clusters/ReaxFF-fromJPCA2015/Units_Real/Try2-Higher-symm/Only-C60
REM
REM
REM
REM
REM
REM ./C.cell (863b2abdce7293c0672fb3ba77bf323a)
REM AIRSS Version 0.9.1 bugfix July 2018 build 013d7b7c2542+ Fri, 06 Jul 2018 19:26:36 +0100
REM compiler GCC version 9.2.1 20190827 (Red Hat 9.2.1-1)
REM options -cpp -mtune=generic -march=x86-64 -g -O0 -fpre-include=/usr/include/finclude/math-vector-fortran.h
REM seed -1054308927 1035934871 31761645 -742517540 -556882410 996723260 1844675923 241329218 -1768655916 1082955515 -450925951 1562722592 1712780603 -649017329 -1285600684 -137866051 934049376 2039530463 -155127026 -1598628664 -1992501075 398636074 111523800 -1039093385 -1175014796 -1744838509 -1802614731 830374386 -1228840865 -2135361035 1353315223 -692158568 -883758740
REM
CELL 1.54180   15.00000   15.00000   15.00000   90.00000   90.00000   90.00000
LATT -1
SFAC C  
C      1  0.2994260000000  0.4144210000000  0.6565580000000 1.0
C      1  0.3008530000000  0.4137890000000  0.3594180000000 1.0
C      1  0.5739390000000  0.4107580000000  0.2587750000000 1.0
C      1  0.7558660000000  0.4126130000000  0.4842030000000 1.0
C      1  0.5901900000000  0.4143680000000  0.7414900000000 1.0
C      1  0.7007330000000  0.5854340000000  0.6563880000000 1.0
C      1  0.6993780000000  0.5863670000000  0.3591410000000 1.0
C      1  0.4259880000000  0.5894190000000  0.2586570000000 1.0
C      1  0.2445610000000  0.5868450000000  0.4846940000000 1.0
C      1  0.4090130000000  0.5861410000000  0.7416750000000 1.0
C      1  0.5498330000000  0.3641260000000  0.5726840000000 1.0
C      1  0.4513030000000  0.3643590000000  0.5720910000000 1.0
C      1  0.4211230000000  0.3652830000000  0.4791350000000 1.0
C      1  0.5008800000000  0.3667890000000  0.4217390000000 1.0
C      1  0.5800610000000  0.3629970000000  0.4799570000000 1.0
C      1  0.4509020000000  0.6368530000000  0.5727090000000 1.0
C      1  0.5493780000000  0.6346890000000  0.5725000000000 1.0
C      1  0.5783230000000  0.6345270000000  0.4793210000000 1.0
C      1  0.4987450000000  0.6330340000000  0.4216120000000 1.0
C      1  0.4200190000000  0.6368370000000  0.4798280000000 1.0
C      1  0.2197590000000  0.5501010000000  0.3975710000000 1.0
C      1  0.4915050000000  0.6113820000000  0.1830300000000 1.0
C      1  0.7806560000000  0.5495690000000  0.3991300000000 1.0
C      1  0.6819810000000  0.5497910000000  0.7455720000000 1.0
C      1  0.3176470000000  0.5513640000000  0.7465150000000 1.0
C      1  0.7805480000000  0.4494680000000  0.3969900000000 1.0
C      1  0.5087130000000  0.3890880000000  0.1830210000000 1.0
C      1  0.2190390000000  0.4502800000000  0.3988000000000 1.0
C      1  0.3183870000000  0.4507320000000  0.7454440000000 1.0
C      1  0.6814230000000  0.4496570000000  0.7461630000000 1.0
C      1  0.2454460000000  0.4140260000000  0.4857360000000 1.0
C      1  0.4362040000000  0.4003080000000  0.2535860000000 1.0
C      1  0.6981420000000  0.4135250000000  0.3590090000000 1.0
C      1  0.7008260000000  0.4117570000000  0.6579670000000 1.0
C      1  0.4086240000000  0.4128820000000  0.7415640000000 1.0
C      1  0.7536930000000  0.5856130000000  0.4858790000000 1.0
C      1  0.5637080000000  0.5998510000000  0.2533510000000 1.0
C      1  0.3024190000000  0.5862710000000  0.3593570000000 1.0
C      1  0.2990930000000  0.5882500000000  0.6577570000000 1.0
C      1  0.5914500000000  0.5867450000000  0.7415790000000 1.0
C      1  0.4964480000000  0.6210000000000  0.3248180000000 1.0
C      1  0.6699330000000  0.6219690000000  0.4460610000000 1.0
C      1  0.6081010000000  0.6206980000000  0.6499900000000 1.0
C      1  0.3925510000000  0.6208690000000  0.6501850000000 1.0
C      1  0.3284580000000  0.6245910000000  0.4464140000000 1.0
C      1  0.5031830000000  0.3792160000000  0.3250370000000 1.0
C      1  0.3294050000000  0.3775700000000  0.4464740000000 1.0
C      1  0.3922830000000  0.3803530000000  0.6494500000000 1.0
C      1  0.6077530000000  0.3782930000000  0.6508700000000 1.0
C      1  0.6714270000000  0.3756730000000  0.4457660000000 1.0
C      1  0.7588700000000  0.4988500000000  0.5325150000000 1.0
C      1  0.5446260000000  0.5008580000000  0.7562240000000 1.0
C      1  0.2726930000000  0.5015490000000  0.6180440000000 1.0
C      1  0.3423570000000  0.4994390000000  0.3273530000000 1.0
C      1  0.6023780000000  0.5067200000000  0.2533650000000 1.0
C      1  0.2411880000000  0.5007070000000  0.5328960000000 1.0
C      1  0.4542670000000  0.4993930000000  0.7567830000000 1.0
C      1  0.7272590000000  0.4982330000000  0.6180100000000 1.0
C      1  0.6594360000000  0.5003100000000  0.3254750000000 1.0
C      1  0.3976050000000  0.4934020000000  0.2536770000000 1.0
END
