TITL C-1525613-7943-3289 -0.256560047881038 3375 -8472.3820220775 0 0 60 (C1) n - 1
REM
REM in /home/nfs/bkarasulu/CARBON/AIRSS/Generating-Clusters/ReaxFF-fromJPCA2015/Units_Real/Try2-Higher-symm/Only-C60
REM
REM
REM
REM
REM
REM ./C.cell (863b2abdce7293c0672fb3ba77bf323a)
REM AIRSS Version 0.9.1 bugfix July 2018 build 013d7b7c2542+ Fri, 06 Jul 2018 19:26:36 +0100
REM compiler GCC version 9.2.1 20190827 (Red Hat 9.2.1-1)
REM options -cpp -mtune=generic -march=x86-64 -g -O0 -fpre-include=/usr/include/finclude/math-vector-fortran.h
REM seed -375736439 1769592541 694915545 -1942739344 1679927147 -195609063 -177460800 -1081811886 -1889104255 -863421361 1737636763 436880365 1344119028 -1532670974 -677114191 -2143517469 885791052 -163558386 1457878630 -1125296513 -328047324 84898925 1868848560 899304730 -33577860 270601725 -869987780 -507254363 1167784059 815954032 -528308831 -1801510653 -1338133797
REM
CELL 1.54180   15.00000   15.00000   15.00000   90.00000   90.00000   90.00000
LATT -1
SFAC C  
C      1  0.4429800000000  0.5462060000000  0.5438980000000 1.0
C      1  0.4535360000000  0.5672130000000  0.4442740000000 1.0
C      1  0.5369680000000  0.5765710000000  0.5480460000000 1.0
C      1  0.5542050000000  0.5549710000000  0.4505990000000 1.0
C      1  0.5881510000000  0.5051830000000  0.5796070000000 1.0
C      1  0.5647480000000  0.4567470000000  0.4475060000000 1.0
C      1  0.5378910000000  0.4257200000000  0.5582920000000 1.0
C      1  0.4776620000000  0.4178300000000  0.4287800000000 1.0
C      1  0.4416040000000  0.4527010000000  0.5664300000000 1.0
C      1  0.4156280000000  0.4842760000000  0.4207560000000 1.0
C      1  0.4250730000000  0.2949730000000  0.5595110000000 1.0
C      1  0.3156750000000  0.3855470000000  0.4509140000000 1.0
C      1  0.2855240000000  0.5215760000000  0.5674440000000 1.0
C      1  0.3207300000000  0.6284880000000  0.4324600000000 1.0
C      1  0.4401440000000  0.7017810000000  0.5582870000000 1.0
C      1  0.5822730000000  0.7045950000000  0.4355230000000 1.0
C      1  0.6791910000000  0.6270890000000  0.5608300000000 1.0
C      1  0.7180390000000  0.4919760000000  0.4422850000000 1.0
C      1  0.6788890000000  0.3669780000000  0.5630690000000 1.0
C      1  0.5651720000000  0.2904400000000  0.4400460000000 1.0
C      1  0.5083410000000  0.5835520000000  0.2969750000000 1.0
C      1  0.5604750000000  0.5567520000000  0.7004720000000 1.0
C      1  0.5818080000000  0.5143570000000  0.2966410000000 1.0
C      1  0.5757680000000  0.4582310000000  0.7021250000000 1.0
C      1  0.5390360000000  0.4233360000000  0.2982360000000 1.0
C      1  0.4877960000000  0.4145420000000  0.7013870000000 1.0
C      1  0.4396910000000  0.4389120000000  0.2917760000000 1.0
C      1  0.4180600000000  0.4844170000000  0.7064670000000 1.0
C      1  0.4209680000000  0.5384930000000  0.2999720000000 1.0
C      1  0.4621640000000  0.5724210000000  0.6989130000000 1.0
C      1  0.7067130000000  0.5834420000000  0.4740570000000 1.0
C      1  0.7227740000000  0.4479010000000  0.5309100000000 1.0
C      1  0.6472460000000  0.3280650000000  0.4746190000000 1.0
C      1  0.5146130000000  0.2726250000000  0.5253670000000 1.0
C      1  0.3780390000000  0.3149020000000  0.4681680000000 1.0
C      1  0.2918700000000  0.4209240000000  0.5373890000000 1.0
C      1  0.2800780000000  0.5502540000000  0.4729270000000 1.0
C      1  0.3551380000000  0.6687300000000  0.5225630000000 1.0
C      1  0.4907040000000  0.7201160000000  0.4722780000000 1.0
C      1  0.6222880000000  0.6991240000000  0.5306190000000 1.0
C      1  0.3380560000000  0.4662510000000  0.6575360000000 1.0
C      1  0.3443760000000  0.5706830000000  0.3516790000000 1.0
C      1  0.4157720000000  0.6381540000000  0.6440730000000 1.0
C      1  0.5173190000000  0.6655870000000  0.3469530000000 1.0
C      1  0.6122550000000  0.6240290000000  0.6486740000000 1.0
C      1  0.6540850000000  0.5418900000000  0.3515230000000 1.0
C      1  0.6549360000000  0.4185760000000  0.6514010000000 1.0
C      1  0.5821360000000  0.3554750000000  0.3525290000000 1.0
C      1  0.4731490000000  0.3320540000000  0.6466560000000 1.0
C      1  0.3895460000000  0.3702040000000  0.3374770000000 1.0
C      1  0.4420470000000  0.6721660000000  0.4035080000000 1.0
C      1  0.5569870000000  0.6862700000000  0.6017750000000 1.0
C      1  0.6480610000000  0.6226370000000  0.4029750000000 1.0
C      1  0.6825230000000  0.5008720000000  0.6065940000000 1.0
C      1  0.6500640000000  0.4004490000000  0.4050780000000 1.0
C      1  0.5557840000000  0.3266360000000  0.5981020000000 1.0
C      1  0.4442650000000  0.3189090000000  0.3959270000000 1.0
C      1  0.3586800000000  0.4030010000000  0.5985820000000 1.0
C      1  0.3167050000000  0.4856380000000  0.4011660000000 1.0
C      1  0.3356040000000  0.6085620000000  0.5973720000000 1.0
END
