TITL C-1525613-7943-3662 0.0162654418943786 3375 -8756.87486562212 0 0 60 (C1) n - 1
REM
REM in /home/nfs/bkarasulu/CARBON/AIRSS/Generating-Clusters/ReaxFF-fromJPCA2015/Units_Real/Try2-Higher-symm/Only-C60
REM
REM
REM
REM
REM
REM ./C.cell (863b2abdce7293c0672fb3ba77bf323a)
REM AIRSS Version 0.9.1 bugfix July 2018 build 013d7b7c2542+ Fri, 06 Jul 2018 19:26:36 +0100
REM compiler GCC version 9.2.1 20190827 (Red Hat 9.2.1-1)
REM options -cpp -mtune=generic -march=x86-64 -g -O0 -fpre-include=/usr/include/finclude/math-vector-fortran.h
REM seed 802456110 -231633210 1175634171 -333460983 -1832731682 3335766 517218278 -1343154390 -1610273282 1455404567 368708084 -3405240 -168345066 21277957 1187712421 -1860133811 -1567055656 1192955395 -1096351086 1717624935 -1793779266 -1332989993 -1401505010 -871745651 243088944 -1526340057 1744594758 1126508900 -1714227263 205390056 1327207990 -1187199133 1227880210
REM
CELL 1.54180   15.00000   15.00000   15.00000   90.00000   90.00000   90.00000
LATT -1
SFAC C  
C      1  0.5770320000000  0.4787710000000  0.3841190000000 1.0
C      1  0.4862330000000  0.4977800000000  0.3692380000000 1.0
C      1  0.4341340000000  0.5130270000000  0.4276260000000 1.0
C      1  0.3829660000000  0.5275730000000  0.4866320000000 1.0
C      1  0.3827220000000  0.4684800000000  0.5550160000000 1.0
C      1  0.4210360000000  0.5240980000000  0.6120110000000 1.0
C      1  0.5064360000000  0.4970990000000  0.6301090000000 1.0
C      1  0.5595070000000  0.4967680000000  0.5686130000000 1.0
C      1  0.6288790000000  0.4783650000000  0.5306460000000 1.0
C      1  0.6183600000000  0.5266830000000  0.4526710000000 1.0
C      1  0.4656250000000  0.3340100000000  0.5792050000000 1.0
C      1  0.5147040000000  0.6640110000000  0.5831580000000 1.0
C      1  0.5606750000000  0.3345560000000  0.5586180000000 1.0
C      1  0.5807660000000  0.6652190000000  0.5102300000000 1.0
C      1  0.5732600000000  0.3345940000000  0.4592740000000 1.0
C      1  0.5331020000000  0.6643010000000  0.4220970000000 1.0
C      1  0.4840820000000  0.3340220000000  0.4176650000000 1.0
C      1  0.4381820000000  0.6671110000000  0.4416660000000 1.0
C      1  0.4179440000000  0.3317480000000  0.4912420000000 1.0
C      1  0.4253940000000  0.6668660000000  0.5415130000000 1.0
C      1  0.6225090000000  0.5845400000000  0.6816950000000 1.0
C      1  0.7064540000000  0.4174530000000  0.5754400000000 1.0
C      1  0.7048850000000  0.5793930000000  0.4372560000000 1.0
C      1  0.6320670000000  0.4192190000000  0.3242340000000 1.0
C      1  0.5050560000000  0.5892550000000  0.2716840000000 1.0
C      1  0.3733910000000  0.4110900000000  0.3183450000000 1.0
C      1  0.2918760000000  0.5893210000000  0.4154800000000 1.0
C      1  0.2964560000000  0.4192460000000  0.5626780000000 1.0
C      1  0.3654030000000  0.5828730000000  0.6763640000000 1.0
C      1  0.4920710000000  0.4099160000000  0.7307280000000 1.0
C      1  0.6265350000000  0.3691730000000  0.6218530000000 1.0
C      1  0.6697760000000  0.6314130000000  0.5204900000000 1.0
C      1  0.6513520000000  0.3677970000000  0.4141180000000 1.0
C      1  0.5684100000000  0.6291640000000  0.3387930000000 1.0
C      1  0.4633630000000  0.3685930000000  0.3296950000000 1.0
C      1  0.3721570000000  0.6356970000000  0.3785140000000 1.0
C      1  0.3291000000000  0.3648910000000  0.4803030000000 1.0
C      1  0.3470280000000  0.6329880000000  0.5850930000000 1.0
C      1  0.4301580000000  0.3675580000000  0.6631150000000 1.0
C      1  0.5329840000000  0.6273530000000  0.6710770000000 1.0
C      1  0.3390300000000  0.4049460000000  0.6636360000000 1.0
C      1  0.4604730000000  0.5890800000000  0.7246150000000 1.0
C      1  0.5937380000000  0.4058460000000  0.7064040000000 1.0
C      1  0.6940880000000  0.5951520000000  0.6087500000000 1.0
C      1  0.7241880000000  0.4058510000000  0.4670130000000 1.0
C      1  0.6598810000000  0.5914760000000  0.3375940000000 1.0
C      1  0.5353740000000  0.4106120000000  0.2762800000000 1.0
C      1  0.4050600000000  0.5932940000000  0.2959510000000 1.0
C      1  0.3051420000000  0.4039210000000  0.3942550000000 1.0
C      1  0.2749760000000  0.5980440000000  0.5261300000000 1.0
C      1  0.7605400000000  0.4893920000000  0.4434550000000 1.0
C      1  0.6807610000000  0.5107110000000  0.2950420000000 1.0
C      1  0.5207990000000  0.4987220000000  0.2414580000000 1.0
C      1  0.3789390000000  0.5019780000000  0.2876460000000 1.0
C      1  0.2872770000000  0.4969430000000  0.3920150000000 1.0
C      1  0.2480300000000  0.5122780000000  0.5509760000000 1.0
C      1  0.3225970000000  0.4887150000000  0.7010850000000 1.0
C      1  0.4741390000000  0.5009130000000  0.7565850000000 1.0
C      1  0.6251090000000  0.4924620000000  0.6974270000000 1.0
C      1  0.7377910000000  0.5076490000000  0.6153780000000 1.0
END
