TITL C-1525613-7943-336 -0.00467559651797508 3375 -9641.88793916025 0 0 60 (D5h) n - 1
REM
REM in /home/nfs/bkarasulu/CARBON/AIRSS/Generating-Clusters/ReaxFF-fromJPCA2015/Units_Real/Try2-Higher-symm/Only-C60
REM
REM
REM
REM
REM
REM ./C.cell (863b2abdce7293c0672fb3ba77bf323a)
REM AIRSS Version 0.9.1 bugfix July 2018 build 013d7b7c2542+ Fri, 06 Jul 2018 19:26:36 +0100
REM compiler GCC version 9.2.1 20190827 (Red Hat 9.2.1-1)
REM options -cpp -mtune=generic -march=x86-64 -g -O0 -fpre-include=/usr/include/finclude/math-vector-fortran.h
REM seed -1239749390 -399277205 1796457474 -792273293 1014007221 -455399022 730709174 451908778 -758274546 2101811446 -71652953 -353300591 -1609375255 587063869 -1031164103 -1141063874 1538864721 -1759248247 -1427739157 -439952715 2065892339 -1058198995 13062885 1498878360 -1577670552 -2085420600 479153359 429985554 -1818413848 362485694 4453354 -951532289 -1394893051
REM
CELL 1.54180   15.00000   15.00000   15.00000   90.00000   90.00000   90.00000
LATT -1
SFAC C  
C      1  0.6121810000000  0.4395850000000  0.3015520000000 1.0
C      1  0.6135150000000  0.6700290000000  0.3803920000000 1.0
C      1  0.6136600000000  0.6670660000000  0.6248620000000 1.0
C      1  0.6135790000000  0.4324240000000  0.6969130000000 1.0
C      1  0.6135680000000  0.2913720000000  0.4960760000000 1.0
C      1  0.3878100000000  0.4396100000000  0.3015630000000 1.0
C      1  0.3865180000000  0.6700610000000  0.3803580000000 1.0
C      1  0.3863530000000  0.6670740000000  0.6248550000000 1.0
C      1  0.3864120000000  0.4324440000000  0.6969250000000 1.0
C      1  0.3864110000000  0.2914110000000  0.4960730000000 1.0
C      1  0.6134550000000  0.3154530000000  0.4026280000000 1.0
C      1  0.6104760000000  0.5352710000000  0.2968560000000 1.0
C      1  0.6137440000000  0.7064910000000  0.4693140000000 1.0
C      1  0.6136160000000  0.5927640000000  0.6865110000000 1.0
C      1  0.6135720000000  0.3507950000000  0.6453190000000 1.0
C      1  0.3865300000000  0.3154780000000  0.4026470000000 1.0
C      1  0.3895340000000  0.5352660000000  0.2968640000000 1.0
C      1  0.3862830000000  0.7065170000000  0.4693160000000 1.0
C      1  0.3864040000000  0.5927780000000  0.6864950000000 1.0
C      1  0.3864180000000  0.3508060000000  0.6453240000000 1.0
C      1  0.5494390000000  0.2770000000000  0.6413900000000 1.0
C      1  0.5494270000000  0.2962070000000  0.3313010000000 1.0
C      1  0.5467360000000  0.5952590000000  0.2588140000000 1.0
C      1  0.5494270000000  0.7638620000000  0.5156170000000 1.0
C      1  0.5494560000000  0.5662420000000  0.7554260000000 1.0
C      1  0.4505380000000  0.2770110000000  0.6413850000000 1.0
C      1  0.4505440000000  0.2962080000000  0.3313160000000 1.0
C      1  0.4533010000000  0.5952500000000  0.2587960000000 1.0
C      1  0.4506000000000  0.7638590000000  0.5156030000000 1.0
C      1  0.4505570000000  0.5662510000000  0.7554200000000 1.0
C      1  0.6575530000000  0.6566200000000  0.5394290000000 1.0
C      1  0.6574890000000  0.5105630000000  0.6606920000000 1.0
C      1  0.6574150000000  0.3500360000000  0.5591680000000 1.0
C      1  0.6566920000000  0.3975940000000  0.3758670000000 1.0
C      1  0.6560520000000  0.5851750000000  0.3648940000000 1.0
C      1  0.3424600000000  0.6566640000000  0.5394120000000 1.0
C      1  0.3425150000000  0.5105870000000  0.6606920000000 1.0
C      1  0.3425750000000  0.3500810000000  0.5591700000000 1.0
C      1  0.3432930000000  0.3976190000000  0.3758840000000 1.0
C      1  0.3439480000000  0.5851870000000  0.3648770000000 1.0
C      1  0.2923410000000  0.4254160000000  0.5292000000000 1.0
C      1  0.2931480000000  0.4492130000000  0.4379080000000 1.0
C      1  0.2937330000000  0.5426590000000  0.4320240000000 1.0
C      1  0.2925030000000  0.5779430000000  0.5191620000000 1.0
C      1  0.2921280000000  0.5053170000000  0.5798620000000 1.0
C      1  0.7076590000000  0.4253780000000  0.5291990000000 1.0
C      1  0.7068410000000  0.4491810000000  0.4378910000000 1.0
C      1  0.7062520000000  0.5426280000000  0.4320350000000 1.0
C      1  0.7074810000000  0.5779020000000  0.5191640000000 1.0
C      1  0.7078650000000  0.5052820000000  0.5798610000000 1.0
C      1  0.5492780000000  0.6792950000000  0.3074460000000 1.0
C      1  0.5494620000000  0.7396330000000  0.6113380000000 1.0
C      1  0.5494460000000  0.4676470000000  0.7618320000000 1.0
C      1  0.5494290000000  0.2404680000000  0.5496010000000 1.0
C      1  0.5493370000000  0.3724970000000  0.2686300000000 1.0
C      1  0.4507360000000  0.6792880000000  0.3074510000000 1.0
C      1  0.4505690000000  0.7396450000000  0.6113340000000 1.0
C      1  0.4505500000000  0.4676570000000  0.7618300000000 1.0
C      1  0.4505430000000  0.2404710000000  0.5496040000000 1.0
C      1  0.4506390000000  0.3725120000000  0.2686330000000 1.0
END
