TITL C-1525613-7943-2931 0.326131457163313 3375 -8056.57149263653 0 0 60 (D5) n - 1
REM
REM in /home/nfs/bkarasulu/CARBON/AIRSS/Generating-Clusters/ReaxFF-fromJPCA2015/Units_Real/Try2-Higher-symm/Only-C60
REM
REM
REM
REM
REM
REM ./C.cell (863b2abdce7293c0672fb3ba77bf323a)
REM AIRSS Version 0.9.1 bugfix July 2018 build 013d7b7c2542+ Fri, 06 Jul 2018 19:26:36 +0100
REM compiler GCC version 9.2.1 20190827 (Red Hat 9.2.1-1)
REM options -cpp -mtune=generic -march=x86-64 -g -O0 -fpre-include=/usr/include/finclude/math-vector-fortran.h
REM seed -1013840910 287254180 -409102069 632730485 987980298 417402115 -1930846177 -1506652973 1013127711 -1918909674 154698481 -1268828456 538011410 1324001495 -1505368833 1822021259 1211484337 366938222 -474566264 1224751879 562750897 -1072521566 -695417802 -1886153556 1401967631 -586215848 -1393644087 -1524244150 -532168568 1233682273 -1870053087 -932632098 -2006026710
REM
CELL 1.54180   15.00000   15.00000   15.00000   90.00000   90.00000   90.00000
LATT -1
SFAC C  
C      1  0.3609730000000  0.5940110000000  0.5427530000000 1.0
C      1  0.4974070000000  0.5945190000000  0.6452510000000 1.0
C      1  0.6378530000000  0.5951950000000  0.5467690000000 1.0
C      1  0.5871100000000  0.5952580000000  0.3835980000000 1.0
C      1  0.4159290000000  0.5950970000000  0.3800970000000 1.0
C      1  0.3608140000000  0.4059840000000  0.4573050000000 1.0
C      1  0.4976060000000  0.4053380000000  0.3547390000000 1.0
C      1  0.6378450000000  0.4048270000000  0.4532580000000 1.0
C      1  0.5871420000000  0.4047330000000  0.6163790000000 1.0
C      1  0.4159100000000  0.4049520000000  0.6199050000000 1.0
C      1  0.5754880000000  0.4477070000000  0.3966230000000 1.0
C      1  0.4245290000000  0.4485140000000  0.3964680000000 1.0
C      1  0.3776730000000  0.4452300000000  0.5408970000000 1.0
C      1  0.4998550000000  0.4470640000000  0.6280260000000 1.0
C      1  0.6216200000000  0.4472820000000  0.5396640000000 1.0
C      1  0.5755350000000  0.5522600000000  0.6033170000000 1.0
C      1  0.4246260000000  0.5515560000000  0.6032870000000 1.0
C      1  0.3776490000000  0.5547260000000  0.4590470000000 1.0
C      1  0.4998710000000  0.5529360000000  0.3718830000000 1.0
C      1  0.6215660000000  0.5526410000000  0.4603590000000 1.0
C      1  0.3317780000000  0.6737210000000  0.4951080000000 1.0
C      1  0.4430820000000  0.6744080000000  0.6590450000000 1.0
C      1  0.6335510000000  0.6740060000000  0.6030690000000 1.0
C      1  0.6395090000000  0.6743530000000  0.4049740000000 1.0
C      1  0.4531120000000  0.6745900000000  0.3378420000000 1.0
C      1  0.3316900000000  0.3261960000000  0.5049030000000 1.0
C      1  0.4432960000000  0.3255870000000  0.3410070000000 1.0
C      1  0.6335380000000  0.3259630000000  0.3969340000000 1.0
C      1  0.6394730000000  0.3256890000000  0.5950460000000 1.0
C      1  0.4531850000000  0.3254530000000  0.6622300000000 1.0
C      1  0.2728240000000  0.3727250000000  0.5731020000000 1.0
C      1  0.5003110000000  0.3730880000000  0.7376080000000 1.0
C      1  0.7258250000000  0.3732280000000  0.5733620000000 1.0
C      1  0.6395690000000  0.3734180000000  0.3078130000000 1.0
C      1  0.3607020000000  0.3726630000000  0.3080010000000 1.0
C      1  0.2728230000000  0.6272430000000  0.4269030000000 1.0
C      1  0.5003060000000  0.6268880000000  0.2624170000000 1.0
C      1  0.7258620000000  0.6267050000000  0.4265880000000 1.0
C      1  0.6396060000000  0.6265590000000  0.6921980000000 1.0
C      1  0.3605490000000  0.6275700000000  0.6922290000000 1.0
C      1  0.2979140000000  0.4678180000000  0.5938720000000 1.0
C      1  0.5262080000000  0.4670640000000  0.7213680000000 1.0
C      1  0.7188590000000  0.4673310000000  0.5435910000000 1.0
C      1  0.6090610000000  0.4673020000000  0.3052320000000 1.0
C      1  0.3485210000000  0.4669050000000  0.3356790000000 1.0
C      1  0.2979330000000  0.5322300000000  0.4061400000000 1.0
C      1  0.5262320000000  0.5327950000000  0.2786120000000 1.0
C      1  0.7188340000000  0.5327460000000  0.4564050000000 1.0
C      1  0.6090410000000  0.5327380000000  0.6947620000000 1.0
C      1  0.3486970000000  0.5331970000000  0.6643370000000 1.0
C      1  0.4806620000000  0.7244190000000  0.4193800000000 1.0
C      1  0.4174960000000  0.7245590000000  0.4937030000000 1.0
C      1  0.4687150000000  0.7243900000000  0.5763390000000 1.0
C      1  0.5631300000000  0.7241370000000  0.5535880000000 1.0
C      1  0.5705310000000  0.7242390000000  0.4564200000000 1.0
C      1  0.4806810000000  0.2755860000000  0.5806410000000 1.0
C      1  0.4175410000000  0.2753980000000  0.5063230000000 1.0
C      1  0.4687360000000  0.2756430000000  0.4236140000000 1.0
C      1  0.5631190000000  0.2758650000000  0.4464210000000 1.0
C      1  0.5705020000000  0.2757580000000  0.5435670000000 1.0
END
