TITL C-1525613-7943-6759 -0.0498149973823389 3375 -9029.76742594367 0 0 60 (C1) n - 1
REM
REM in /home/nfs/bkarasulu/CARBON/AIRSS/Generating-Clusters/ReaxFF-fromJPCA2015/Units_Real/Try2-Higher-symm/Only-C60
REM
REM
REM
REM
REM
REM ./C.cell (863b2abdce7293c0672fb3ba77bf323a)
REM AIRSS Version 0.9.1 bugfix July 2018 build 013d7b7c2542+ Fri, 06 Jul 2018 19:26:36 +0100
REM compiler GCC version 9.2.1 20190827 (Red Hat 9.2.1-1)
REM options -cpp -mtune=generic -march=x86-64 -g -O0 -fpre-include=/usr/include/finclude/math-vector-fortran.h
REM seed -1845782957 -543979525 1632306801 -463833325 -1077165860 -1541877242 2109574967 1556514247 -559936669 -1502164253 -2053126091 1265968155 913727112 -195700805 631116217 1371181282 84891126 1141270858 346479228 -1508045013 1010608901 -1456322868 1290840929 -326728586 1550117689 -882238566 -853777152 1767701949 -756022455 -1339808430 -673783646 114986484 1896789690
REM
CELL 1.54180   15.00000   15.00000   15.00000   90.00000   90.00000   90.00000
LATT -1
SFAC C  
C      1  0.3288260000000  0.3904380000000  0.6620090000000 1.0
C      1  0.2664740000000  0.3895510000000  0.5259020000000 1.0
C      1  0.2966530000000  0.3897210000000  0.3800840000000 1.0
C      1  0.3975920000000  0.3783030000000  0.2826370000000 1.0
C      1  0.5532790000000  0.3744200000000  0.2640970000000 1.0
C      1  0.6713330000000  0.3905550000000  0.3382790000000 1.0
C      1  0.7335210000000  0.3893790000000  0.4739160000000 1.0
C      1  0.7033140000000  0.3893030000000  0.6201860000000 1.0
C      1  0.6021110000000  0.3790070000000  0.7172080000000 1.0
C      1  0.4469000000000  0.3740600000000  0.7360460000000 1.0
C      1  0.4252670000000  0.5260790000000  0.6571500000000 1.0
C      1  0.3365270000000  0.5255780000000  0.5757540000000 1.0
C      1  0.3225090000000  0.5266020000000  0.4637810000000 1.0
C      1  0.3884490000000  0.5261860000000  0.3635210000000 1.0
C      1  0.4800150000000  0.4931370000000  0.3357370000000 1.0
C      1  0.5740410000000  0.5258920000000  0.3421630000000 1.0
C      1  0.6642360000000  0.5259920000000  0.4254570000000 1.0
C      1  0.6779000000000  0.5263080000000  0.5359580000000 1.0
C      1  0.6110820000000  0.5257950000000  0.6369880000000 1.0
C      1  0.5193980000000  0.4930420000000  0.6640310000000 1.0
C      1  0.5240530000000  0.4345350000000  0.7428830000000 1.0
C      1  0.3872120000000  0.4482340000000  0.7149610000000 1.0
C      1  0.2794530000000  0.4489560000000  0.6016110000000 1.0
C      1  0.2622790000000  0.4492780000000  0.4499220000000 1.0
C      1  0.3399540000000  0.4485700000000  0.3161960000000 1.0
C      1  0.4754810000000  0.4345220000000  0.2567480000000 1.0
C      1  0.6129590000000  0.4485970000000  0.2853980000000 1.0
C      1  0.7206400000000  0.4488000000000  0.3985730000000 1.0
C      1  0.7378970000000  0.4487320000000  0.5502650000000 1.0
C      1  0.6603500000000  0.4487030000000  0.6837040000000 1.0
C      1  0.3846910000000  0.3283700000000  0.6055060000000 1.0
C      1  0.3438940000000  0.3278200000000  0.5171200000000 1.0
C      1  0.3647510000000  0.3281970000000  0.4222910000000 1.0
C      1  0.4348800000000  0.3214430000000  0.3565000000000 1.0
C      1  0.5323420000000  0.3202460000000  0.3462370000000 1.0
C      1  0.6153170000000  0.3284240000000  0.3945710000000 1.0
C      1  0.6561110000000  0.3278370000000  0.4828960000000 1.0
C      1  0.6352850000000  0.3281230000000  0.5776530000000 1.0
C      1  0.5651480000000  0.3217020000000  0.6435470000000 1.0
C      1  0.4676670000000  0.3201340000000  0.6538560000000 1.0
C      1  0.6055970000000  0.6927270000000  0.6103330000000 1.0
C      1  0.5200610000000  0.7247890000000  0.6522050000000 1.0
C      1  0.4273370000000  0.6915520000000  0.6312430000000 1.0
C      1  0.3528240000000  0.6950470000000  0.5688010000000 1.0
C      1  0.3393130000000  0.6962280000000  0.4698700000000 1.0
C      1  0.3944200000000  0.6928880000000  0.3896450000000 1.0
C      1  0.4799030000000  0.7248000000000  0.3476950000000 1.0
C      1  0.5724340000000  0.6915230000000  0.3687180000000 1.0
C      1  0.6470770000000  0.6953580000000  0.4311470000000 1.0
C      1  0.6604360000000  0.6960580000000  0.5300290000000 1.0
C      1  0.5285050000000  0.6528570000000  0.7196220000000 1.0
C      1  0.4396850000000  0.6196740000000  0.6960980000000 1.0
C      1  0.2943790000000  0.6151270000000  0.5748390000000 1.0
C      1  0.2818630000000  0.6159560000000  0.4774940000000 1.0
C      1  0.3907130000000  0.6204640000000  0.3242920000000 1.0
C      1  0.4714040000000  0.6529650000000  0.2800570000000 1.0
C      1  0.5601310000000  0.6194860000000  0.3039480000000 1.0
C      1  0.7060590000000  0.6159210000000  0.4247650000000 1.0
C      1  0.7189110000000  0.6158380000000  0.5221500000000 1.0
C      1  0.6091530000000  0.6201740000000  0.6757070000000 1.0
END
