TITL C-1525613-7943-3267 -0.000294150844823331 3375 -9054.42366350663 0 0 60 (D5d) n - 1
REM
REM in /home/nfs/bkarasulu/CARBON/AIRSS/Generating-Clusters/ReaxFF-fromJPCA2015/Units_Real/Try2-Higher-symm/Only-C60
REM
REM
REM
REM
REM
REM ./C.cell (863b2abdce7293c0672fb3ba77bf323a)
REM AIRSS Version 0.9.1 bugfix July 2018 build 013d7b7c2542+ Fri, 06 Jul 2018 19:26:36 +0100
REM compiler GCC version 9.2.1 20190827 (Red Hat 9.2.1-1)
REM options -cpp -mtune=generic -march=x86-64 -g -O0 -fpre-include=/usr/include/finclude/math-vector-fortran.h
REM seed 1918007213 945754617 2127837375 1742239818 1273937627 -1740641809 1659687785 -257121607 1983593021 -1255330161 372847053 -999269 655514348 777455067 1847200455 953780691 -452909051 1089578266 2068959109 -1384094798 -450098189 1082917258 1592601348 1371983318 -1069656957 1085559285 -236133150 369715633 468285309 445919361 1613252075 1722618470 -1736580191
REM
CELL 1.54180   15.00000   15.00000   15.00000   90.00000   90.00000   90.00000
LATT -1
SFAC C  
C      1  0.3225790000000  0.4932370000000  0.6022960000000 1.0
C      1  0.3509070000000  0.5998730000000  0.3969100000000 1.0
C      1  0.4385870000000  0.6667540000000  0.6022860000000 1.0
C      1  0.5485380000000  0.6709450000000  0.3977020000000 1.0
C      1  0.6410540000000  0.6109380000000  0.6030820000000 1.0
C      1  0.6774210000000  0.5067630000000  0.3977040000000 1.0
C      1  0.6490930000000  0.4001270000000  0.6030900000000 1.0
C      1  0.5614130000000  0.3332460000000  0.3977140000000 1.0
C      1  0.4514620000000  0.3290550000000  0.6022980000000 1.0
C      1  0.3589460000000  0.3890620000000  0.3969180000000 1.0
C      1  0.4406340000000  0.6615380000000  0.7097110000000 1.0
C      1  0.5468810000000  0.6655950000000  0.2902760000000 1.0
C      1  0.6352750000000  0.6063020000000  0.7098180000000 1.0
C      1  0.6722030000000  0.5065730000000  0.2900880000000 1.0
C      1  0.6429870000000  0.4043190000000  0.7098270000000 1.0
C      1  0.5593660000000  0.3384620000000  0.2902890000000 1.0
C      1  0.4531190000000  0.3344050000000  0.7097240000000 1.0
C      1  0.3647250000000  0.3936980000000  0.2901820000000 1.0
C      1  0.3277970000000  0.4934270000000  0.7099120000000 1.0
C      1  0.3570130000000  0.5956810000000  0.2901730000000 1.0
C      1  0.5242520000000  0.5854560000000  0.2478320000000 1.0
C      1  0.5696890000000  0.5547690000000  0.7524050000000 1.0
C      1  0.5889290000000  0.5033950000000  0.2478720000000 1.0
C      1  0.5736620000000  0.4507050000000  0.7524100000000 1.0
C      1  0.5306970000000  0.4166410000000  0.2478400000000 1.0
C      1  0.4757480000000  0.4145440000000  0.7521680000000 1.0
C      1  0.4303110000000  0.4452310000000  0.2475950000000 1.0
C      1  0.4110710000000  0.4966050000000  0.7521280000000 1.0
C      1  0.4263380000000  0.5492950000000  0.2475900000000 1.0
C      1  0.4693030000000  0.5833590000000  0.7521600000000 1.0
C      1  0.6476860000000  0.3431350000000  0.4564130000000 1.0
C      1  0.5272640000000  0.2863820000000  0.5435620000000 1.0
C      1  0.3963790000000  0.3106890000000  0.4566010000000 1.0
C      1  0.3051720000000  0.4080800000000  0.5436080000000 1.0
C      1  0.2877800000000  0.5400270000000  0.4566430000000 1.0
C      1  0.3523140000000  0.6568650000000  0.5435870000000 1.0
C      1  0.4727360000000  0.7136180000000  0.4564380000000 1.0
C      1  0.6036210000000  0.6893110000000  0.5433990000000 1.0
C      1  0.6948280000000  0.5919200000000  0.4563920000000 1.0
C      1  0.7122200000000  0.4599730000000  0.5433570000000 1.0
C      1  0.3822660000000  0.6808710000000  0.4565880000000 1.0
C      1  0.5109200000000  0.7150740000000  0.5435490000000 1.0
C      1  0.6353140000000  0.6676530000000  0.4564010000000 1.0
C      1  0.7085570000000  0.5560700000000  0.5433550000000 1.0
C      1  0.7012600000000  0.4231800000000  0.4563960000000 1.0
C      1  0.6177340000000  0.3191290000000  0.5434120000000 1.0
C      1  0.4890800000000  0.2849260000000  0.4564510000000 1.0
C      1  0.3646860000000  0.3323470000000  0.5435990000000 1.0
C      1  0.2914430000000  0.4439300000000  0.4566450000000 1.0
C      1  0.2987400000000  0.5768200000000  0.5436040000000 1.0
C      1  0.4388300000000  0.4516080000000  0.4117030000000 1.0
C      1  0.4219280000000  0.4970240000000  0.5884770000000 1.0
C      1  0.4353230000000  0.5435940000000  0.4116960000000 1.0
C      1  0.4726670000000  0.5731450000000  0.5883830000000 1.0
C      1  0.5216840000000  0.5750140000000  0.4116070000000 1.0
C      1  0.5611700000000  0.5483920000000  0.5882970000000 1.0
C      1  0.5780720000000  0.5029760000000  0.4115230000000 1.0
C      1  0.5646770000000  0.4564060000000  0.5883040000000 1.0
C      1  0.5273330000000  0.4268550000000  0.4116170000000 1.0
C      1  0.4783160000000  0.4249860000000  0.5883930000000 1.0
END
