TITL C-1525613-7943-2528 0.0905239827207789 3375 -8430.37537434905 0 0 60 (C1) n - 1
REM
REM in /home/nfs/bkarasulu/CARBON/AIRSS/Generating-Clusters/ReaxFF-fromJPCA2015/Units_Real/Try2-Higher-symm/Only-C60
REM
REM
REM
REM
REM
REM ./C.cell (863b2abdce7293c0672fb3ba77bf323a)
REM AIRSS Version 0.9.1 bugfix July 2018 build 013d7b7c2542+ Fri, 06 Jul 2018 19:26:36 +0100
REM compiler GCC version 9.2.1 20190827 (Red Hat 9.2.1-1)
REM options -cpp -mtune=generic -march=x86-64 -g -O0 -fpre-include=/usr/include/finclude/math-vector-fortran.h
REM seed -84082786 1464996295 1749976252 982488949 641042433 -354690646 1885187795 -1507390335 -1211645340 -1054623655 1137977149 -274357904 1881985435 -81884470 1360030272 -1062348695 2071026827 -1868683337 -1395391897 357396237 984900829 1070588208 582470822 -2070325681 -2048516784 -2142863403 -1456118697 -1935858529 -1314183849 765232525 -1829297956 174550212 1560295268
REM
CELL 1.54180   15.00000   15.00000   15.00000   90.00000   90.00000   90.00000
LATT -1
SFAC C  
C      1  0.7255720000000  0.5495520000000  0.5212280000000 1.0
C      1  0.5492400000000  0.5501840000000  0.7263090000000 1.0
C      1  0.3010150000000  0.5517020000000  0.6186860000000 1.0
C      1  0.3243640000000  0.5518540000000  0.3474690000000 1.0
C      1  0.5915870000000  0.5512720000000  0.2849030000000 1.0
C      1  0.7264590000000  0.4483600000000  0.5216170000000 1.0
C      1  0.5500200000000  0.4482590000000  0.7279990000000 1.0
C      1  0.3027080000000  0.4503760000000  0.6177240000000 1.0
C      1  0.3262610000000  0.4505490000000  0.3484950000000 1.0
C      1  0.5916560000000  0.4497270000000  0.2868300000000 1.0
C      1  0.4673880000000  0.7545340000000  0.5782830000000 1.0
C      1  0.4140140000000  0.7536070000000  0.4935380000000 1.0
C      1  0.4777340000000  0.7536120000000  0.4162670000000 1.0
C      1  0.5701770000000  0.7547600000000  0.4532870000000 1.0
C      1  0.5637900000000  0.7553280000000  0.5530690000000 1.0
C      1  0.4669790000000  0.2454440000000  0.5776970000000 1.0
C      1  0.4143860000000  0.2481600000000  0.4932050000000 1.0
C      1  0.4778230000000  0.2484630000000  0.4167040000000 1.0
C      1  0.5698690000000  0.2457780000000  0.4530270000000 1.0
C      1  0.5636180000000  0.2435870000000  0.5527810000000 1.0
C      1  0.5264250000000  0.4440280000000  0.5811110000000 1.0
C      1  0.4331920000000  0.4428370000000  0.5456370000000 1.0
C      1  0.4400250000000  0.4434860000000  0.4504420000000 1.0
C      1  0.5344150000000  0.4466580000000  0.4267550000000 1.0
C      1  0.5827740000000  0.4343220000000  0.5041530000000 1.0
C      1  0.5262900000000  0.5576340000000  0.5786790000000 1.0
C      1  0.4326960000000  0.5551140000000  0.5479110000000 1.0
C      1  0.4370760000000  0.5523060000000  0.4485260000000 1.0
C      1  0.5364830000000  0.5503440000000  0.4257880000000 1.0
C      1  0.5804150000000  0.5655290000000  0.5059320000000 1.0
C      1  0.3859360000000  0.3724810000000  0.4041020000000 1.0
C      1  0.5569510000000  0.3713970000000  0.3601690000000 1.0
C      1  0.6480080000000  0.3656970000000  0.5101210000000 1.0
C      1  0.5386870000000  0.3639310000000  0.6510330000000 1.0
C      1  0.3745630000000  0.3710840000000  0.5801930000000 1.0
C      1  0.3830730000000  0.6310760000000  0.4019660000000 1.0
C      1  0.5568740000000  0.6306360000000  0.3572650000000 1.0
C      1  0.6461180000000  0.6316290000000  0.5098480000000 1.0
C      1  0.5367550000000  0.6320860000000  0.6473390000000 1.0
C      1  0.3718130000000  0.6314920000000  0.5808420000000 1.0
C      1  0.7892380000000  0.5449290000000  0.5890130000000 1.0
C      1  0.5010630000000  0.5451650000000  0.8056060000000 1.0
C      1  0.2110770000000  0.5446910000000  0.5943510000000 1.0
C      1  0.3180010000000  0.5450390000000  0.2544650000000 1.0
C      1  0.6790570000000  0.5448350000000  0.2525840000000 1.0
C      1  0.7898310000000  0.4546340000000  0.5894950000000 1.0
C      1  0.5014870000000  0.4550940000000  0.8068950000000 1.0
C      1  0.2127510000000  0.4547640000000  0.5935780000000 1.0
C      1  0.3193830000000  0.4551210000000  0.2555570000000 1.0
C      1  0.6789030000000  0.4550120000000  0.2540820000000 1.0
C      1  0.4478410000000  0.6781320000000  0.6295920000000 1.0
C      1  0.3602000000000  0.6765870000000  0.4900030000000 1.0
C      1  0.4659800000000  0.6759540000000  0.3639630000000 1.0
C      1  0.6157110000000  0.6786320000000  0.4224970000000 1.0
C      1  0.6052370000000  0.6798190000000  0.5906060000000 1.0
C      1  0.4499260000000  0.3215830000000  0.6302560000000 1.0
C      1  0.3613110000000  0.3254900000000  0.4908330000000 1.0
C      1  0.4667870000000  0.3258960000000  0.3644350000000 1.0
C      1  0.6171230000000  0.3215010000000  0.4238280000000 1.0
C      1  0.6058630000000  0.3182460000000  0.5914340000000 1.0
END
