TITL C-1525613-7943-3287 0.120594611489493 3375 -8509.80447484427 0 0 60 (C1) n - 1
REM
REM in /home/nfs/bkarasulu/CARBON/AIRSS/Generating-Clusters/ReaxFF-fromJPCA2015/Units_Real/Try2-Higher-symm/Only-C60
REM
REM
REM
REM
REM
REM ./C.cell (863b2abdce7293c0672fb3ba77bf323a)
REM AIRSS Version 0.9.1 bugfix July 2018 build 013d7b7c2542+ Fri, 06 Jul 2018 19:26:36 +0100
REM compiler GCC version 9.2.1 20190827 (Red Hat 9.2.1-1)
REM options -cpp -mtune=generic -march=x86-64 -g -O0 -fpre-include=/usr/include/finclude/math-vector-fortran.h
REM seed 266581489 2034644550 -1154755385 938273920 1566873264 836135863 267157465 -1166489954 1955424296 -126623525 -1104039132 -1260320787 -1158317100 1776948736 1232936033 -1641113352 1360429296 578920285 -1554392382 1249952878 1096889669 2062726670 -2018819913 -1010162083 674799853 -444532116 1964122259 -1399986995 166174800 216470976 -845929532 -1202862217 -1691714509
REM
CELL 1.54180   15.00000   15.00000   15.00000   90.00000   90.00000   90.00000
LATT -1
SFAC C  
C      1  0.7303360000000  0.6264830000000  0.5519400000000 1.0
C      1  0.4473280000000  0.7555660000000  0.5518580000000 1.0
C      1  0.2403540000000  0.5274500000000  0.5516010000000 1.0
C      1  0.3946810000000  0.2620430000000  0.5527660000000 1.0
C      1  0.6954980000000  0.3230650000000  0.5507360000000 1.0
C      1  0.7304490000000  0.6280610000000  0.4468060000000 1.0
C      1  0.4475860000000  0.7545260000000  0.4466060000000 1.0
C      1  0.2414990000000  0.5271270000000  0.4479390000000 1.0
C      1  0.3941170000000  0.2616210000000  0.4479160000000 1.0
C      1  0.6975600000000  0.3233870000000  0.4460530000000 1.0
C      1  0.2893270000000  0.4443550000000  0.5515710000000 1.0
C      1  0.4913000000000  0.2804610000000  0.5496490000000 1.0
C      1  0.7042110000000  0.4203510000000  0.5484450000000 1.0
C      1  0.6420660000000  0.6689290000000  0.5489410000000 1.0
C      1  0.3801640000000  0.6846150000000  0.5482420000000 1.0
C      1  0.2890690000000  0.4436900000000  0.4496110000000 1.0
C      1  0.4906380000000  0.2809400000000  0.4499270000000 1.0
C      1  0.7056990000000  0.4214480000000  0.4490970000000 1.0
C      1  0.6416670000000  0.6683880000000  0.4497050000000 1.0
C      1  0.3789470000000  0.6856650000000  0.4508470000000 1.0
C      1  0.4153440000000  0.5347680000000  0.4534200000000 1.0
C      1  0.4427580000000  0.4398530000000  0.4515980000000 1.0
C      1  0.5429950000000  0.4331230000000  0.4457950000000 1.0
C      1  0.5760890000000  0.5268870000000  0.4552310000000 1.0
C      1  0.5003810000000  0.5939060000000  0.4540790000000 1.0
C      1  0.4199650000000  0.5298380000000  0.5517530000000 1.0
C      1  0.4460580000000  0.4348070000000  0.5486720000000 1.0
C      1  0.5485630000000  0.4291140000000  0.5466900000000 1.0
C      1  0.5813980000000  0.5244970000000  0.5519870000000 1.0
C      1  0.5023890000000  0.5845810000000  0.5548590000000 1.0
C      1  0.5190090000000  0.7205280000000  0.6009340000000 1.0
C      1  0.2771770000000  0.5915490000000  0.6198910000000 1.0
C      1  0.3569260000000  0.3329790000000  0.5998660000000 1.0
C      1  0.6166450000000  0.3084480000000  0.5994820000000 1.0
C      1  0.7156520000000  0.5479600000000  0.6005550000000 1.0
C      1  0.5185920000000  0.7177930000000  0.3957600000000 1.0
C      1  0.2798680000000  0.5903970000000  0.3793890000000 1.0
C      1  0.3570800000000  0.3328730000000  0.4008990000000 1.0
C      1  0.6173430000000  0.3114770000000  0.4004390000000 1.0
C      1  0.7142900000000  0.5496620000000  0.3978850000000 1.0
C      1  0.5329020000000  0.3242720000000  0.6338930000000 1.0
C      1  0.6747170000000  0.4730460000000  0.6343570000000 1.0
C      1  0.5808480000000  0.6610230000000  0.6326840000000 1.0
C      1  0.3697660000000  0.6205060000000  0.6308720000000 1.0
C      1  0.3441490000000  0.4163250000000  0.6353160000000 1.0
C      1  0.5335870000000  0.3224160000000  0.3663980000000 1.0
C      1  0.6751610000000  0.4742910000000  0.3658310000000 1.0
C      1  0.5812190000000  0.6561560000000  0.3640850000000 1.0
C      1  0.3709530000000  0.6219320000000  0.3669620000000 1.0
C      1  0.3438750000000  0.4161250000000  0.3651960000000 1.0
C      1  0.5844980000000  0.4855950000000  0.3156470000000 1.0
C      1  0.5394460000000  0.5708750000000  0.3165250000000 1.0
C      1  0.4441020000000  0.5571540000000  0.3179360000000 1.0
C      1  0.4292800000000  0.4631710000000  0.3177860000000 1.0
C      1  0.5150020000000  0.4172140000000  0.3137920000000 1.0
C      1  0.5800210000000  0.4855940000000  0.6845480000000 1.0
C      1  0.5371900000000  0.5731980000000  0.6846260000000 1.0
C      1  0.4412950000000  0.5573600000000  0.6831300000000 1.0
C      1  0.4279720000000  0.4627320000000  0.6859310000000 1.0
C      1  0.5129990000000  0.4178050000000  0.6850440000000 1.0
END
