TITL C-1525613-7943-3350 0.083620989877258 3375 -8715.24583295566 0 0 60 (C1) n - 1
REM
REM in /home/nfs/bkarasulu/CARBON/AIRSS/Generating-Clusters/ReaxFF-fromJPCA2015/Units_Real/Try2-Higher-symm/Only-C60
REM
REM
REM
REM
REM
REM ./C.cell (863b2abdce7293c0672fb3ba77bf323a)
REM AIRSS Version 0.9.1 bugfix July 2018 build 013d7b7c2542+ Fri, 06 Jul 2018 19:26:36 +0100
REM compiler GCC version 9.2.1 20190827 (Red Hat 9.2.1-1)
REM options -cpp -mtune=generic -march=x86-64 -g -O0 -fpre-include=/usr/include/finclude/math-vector-fortran.h
REM seed 715300572 989030221 1048918890 -1503385521 -1006394001 -1510093840 1827841537 -571388440 1540145935 -1541681246 -609102478 1757421540 -432693799 -16699370 -1425058907 659156766 -232626260 1847552317 -56591191 1186425914 1577752730 1599450323 173623556 -1668238973 623780264 -446731365 1852472482 -853736698 1509204639 -2058432315 -1082641184 -517631156 1098586097
REM
CELL 1.54180   15.00000   15.00000   15.00000   90.00000   90.00000   90.00000
LATT -1
SFAC C  
C      1  0.3071530000000  0.3710320000000  0.4119820000000 1.0
C      1  0.5495390000000  0.2789780000000  0.4242820000000 1.0
C      1  0.6911250000000  0.4721630000000  0.4304060000000 1.0
C      1  0.5963630000000  0.7383960000000  0.4282100000000 1.0
C      1  0.3754140000000  0.6319270000000  0.4425820000000 1.0
C      1  0.6934990000000  0.3702230000000  0.5895900000000 1.0
C      1  0.4516430000000  0.2787910000000  0.5774000000000 1.0
C      1  0.3086460000000  0.4728160000000  0.5683930000000 1.0
C      1  0.4031410000000  0.7386320000000  0.5680100000000 1.0
C      1  0.6223810000000  0.6297190000000  0.5564510000000 1.0
C      1  0.5124560000000  0.3079900000000  0.7242760000000 1.0
C      1  0.7649520000000  0.4657260000000  0.6581240000000 1.0
C      1  0.5529340000000  0.5991590000000  0.6713380000000 1.0
C      1  0.3260970000000  0.6641780000000  0.6713780000000 1.0
C      1  0.4067180000000  0.4781370000000  0.7320320000000 1.0
C      1  0.4876250000000  0.3082720000000  0.2772290000000 1.0
C      1  0.2354910000000  0.4652690000000  0.3418840000000 1.0
C      1  0.4373140000000  0.5996360000000  0.3281700000000 1.0
C      1  0.6865980000000  0.6688630000000  0.3285970000000 1.0
C      1  0.5838080000000  0.4841180000000  0.2679540000000 1.0
C      1  0.6081030000000  0.3510980000000  0.6374740000000 1.0
C      1  0.5777550000000  0.5491890000000  0.5255130000000 1.0
C      1  0.4728200000000  0.7011170000000  0.6276070000000 1.0
C      1  0.3975010000000  0.5117920000000  0.5588910000000 1.0
C      1  0.3969120000000  0.3405850000000  0.6246440000000 1.0
C      1  0.3931050000000  0.3518540000000  0.3651120000000 1.0
C      1  0.4209790000000  0.5521610000000  0.4735440000000 1.0
C      1  0.5264800000000  0.7016560000000  0.3686600000000 1.0
C      1  0.6025000000000  0.5120310000000  0.4391560000000 1.0
C      1  0.6031590000000  0.3408840000000  0.3762800000000 1.0
C      1  0.5521900000000  0.4250120000000  0.6625230000000 1.0
C      1  0.5661440000000  0.5169170000000  0.6249320000000 1.0
C      1  0.4228360000000  0.6374950000000  0.6852220000000 1.0
C      1  0.4136790000000  0.5374640000000  0.6601410000000 1.0
C      1  0.4589560000000  0.3878130000000  0.6948580000000 1.0
C      1  0.4483000000000  0.4254040000000  0.3384510000000 1.0
C      1  0.4319160000000  0.5187960000000  0.3742000000000 1.0
C      1  0.5887540000000  0.6436520000000  0.3193070000000 1.0
C      1  0.5846890000000  0.5430520000000  0.3394420000000 1.0
C      1  0.5406390000000  0.3891440000000  0.3063850000000 1.0
C      1  0.2626140000000  0.4641240000000  0.4214700000000 1.0
C      1  0.4515450000000  0.2788770000000  0.4078190000000 1.0
C      1  0.6793600000000  0.3729020000000  0.4238780000000 1.0
C      1  0.6844480000000  0.6901270000000  0.4263810000000 1.0
C      1  0.4349480000000  0.7065620000000  0.4081670000000 1.0
C      1  0.7373490000000  0.4635590000000  0.5787600000000 1.0
C      1  0.5496870000000  0.2784480000000  0.5942550000000 1.0
C      1  0.3207100000000  0.3738010000000  0.5769990000000 1.0
C      1  0.3173510000000  0.6891160000000  0.5751950000000 1.0
C      1  0.5635650000000  0.7056060000000  0.5869790000000 1.0
C      1  0.7025910000000  0.6237700000000  0.4994760000000 1.0
C      1  0.4514660000000  0.7623430000000  0.4872300000000 1.0
C      1  0.2666070000000  0.5320020000000  0.5057660000000 1.0
C      1  0.4051610000000  0.2678290000000  0.4911300000000 1.0
C      1  0.6780260000000  0.3218580000000  0.5078470000000 1.0
C      1  0.2956430000000  0.6251270000000  0.5007420000000 1.0
C      1  0.5475150000000  0.7622410000000  0.5089670000000 1.0
C      1  0.7323150000000  0.5307400000000  0.4940080000000 1.0
C      1  0.5959590000000  0.2675230000000  0.5107410000000 1.0
C      1  0.3228290000000  0.3223040000000  0.4935600000000 1.0
END
