TITL C-1525613-7943-5146 -0.052294597738368 3375 -8909.12068655948 0 0 60 (C2) n - 1
REM
REM in /home/nfs/bkarasulu/CARBON/AIRSS/Generating-Clusters/ReaxFF-fromJPCA2015/Units_Real/Try2-Higher-symm/Only-C60
REM
REM
REM
REM
REM
REM ./C.cell (863b2abdce7293c0672fb3ba77bf323a)
REM AIRSS Version 0.9.1 bugfix July 2018 build 013d7b7c2542+ Fri, 06 Jul 2018 19:26:36 +0100
REM compiler GCC version 9.2.1 20190827 (Red Hat 9.2.1-1)
REM options -cpp -mtune=generic -march=x86-64 -g -O0 -fpre-include=/usr/include/finclude/math-vector-fortran.h
REM seed 1523730532 -710046080 1502827349 -2341174 -17913151 -1674815384 1222152760 23640629 842268743 -776694083 -535849912 1755650952 1875943016 1073453125 -2051214093 523592077 -528535564 -153317856 -1512022761 -600398385 -2065367791 -622282290 1649102068 -1242579202 -2123686206 1697449825 1498808146 -970728936 446085206 -108308489 -159683418 -22298021 -392541554
REM
CELL 1.54180   15.00000   15.00000   15.00000   90.00000   90.00000   90.00000
LATT -1
SFAC C  
C      1  0.4450630000000  0.3200260000000  0.5162580000000 1.0
C      1  0.4288460000000  0.4669080000000  0.6729310000000 1.0
C      1  0.4251530000000  0.6506060000000  0.5852580000000 1.0
C      1  0.4350740000000  0.6274030000000  0.3811460000000 1.0
C      1  0.4283080000000  0.4279760000000  0.3393480000000 1.0
C      1  0.5549400000000  0.3200370000000  0.4837440000000 1.0
C      1  0.5711440000000  0.4669050000000  0.3270490000000 1.0
C      1  0.5749380000000  0.6506150000000  0.4147510000000 1.0
C      1  0.5649330000000  0.6273980000000  0.6188710000000 1.0
C      1  0.5716770000000  0.4279840000000  0.6606400000000 1.0
C      1  0.7190530000000  0.5780310000000  0.5874740000000 1.0
C      1  0.7175260000000  0.6099010000000  0.4540800000000 1.0
C      1  0.7206010000000  0.4910940000000  0.3842190000000 1.0
C      1  0.7212280000000  0.3865650000000  0.4723460000000 1.0
C      1  0.7204750000000  0.4415410000000  0.5976700000000 1.0
C      1  0.2809420000000  0.5780290000000  0.4125350000000 1.0
C      1  0.2824540000000  0.6098920000000  0.5459160000000 1.0
C      1  0.2793910000000  0.4910920000000  0.6157760000000 1.0
C      1  0.2787750000000  0.3865620000000  0.5276530000000 1.0
C      1  0.2795380000000  0.4415370000000  0.4023240000000 1.0
C      1  0.7019660000000  0.5832570000000  0.3639570000000 1.0
C      1  0.7020870000000  0.3979280000000  0.3796650000000 1.0
C      1  0.6996710000000  0.3545370000000  0.5604730000000 1.0
C      1  0.7022290000000  0.5140670000000  0.6567810000000 1.0
C      1  0.6964670000000  0.6555130000000  0.5363480000000 1.0
C      1  0.2980460000000  0.5832570000000  0.6360380000000 1.0
C      1  0.2979110000000  0.3979280000000  0.6203370000000 1.0
C      1  0.3003290000000  0.3545320000000  0.4395230000000 1.0
C      1  0.2977730000000  0.5140690000000  0.3432230000000 1.0
C      1  0.3035140000000  0.6555220000000  0.4636620000000 1.0
C      1  0.5715020000000  0.4648330000000  0.5709560000000 1.0
C      1  0.5690800000000  0.5566260000000  0.5535700000000 1.0
C      1  0.5741950000000  0.5674230000000  0.4617850000000 1.0
C      1  0.5733470000000  0.4819020000000  0.4229090000000 1.0
C      1  0.5721680000000  0.4189930000000  0.4904530000000 1.0
C      1  0.4284950000000  0.4648310000000  0.4290490000000 1.0
C      1  0.4308980000000  0.5566500000000  0.4464650000000 1.0
C      1  0.4258340000000  0.5674210000000  0.5382340000000 1.0
C      1  0.4266410000000  0.4819350000000  0.5771010000000 1.0
C      1  0.4278280000000  0.4190000000000  0.5095690000000 1.0
C      1  0.6042780000000  0.6955580000000  0.5609080000000 1.0
C      1  0.6098330000000  0.6179810000000  0.3302050000000 1.0
C      1  0.6091300000000  0.3771560000000  0.3347230000000 1.0
C      1  0.6091190000000  0.3090760000000  0.5679170000000 1.0
C      1  0.6109490000000  0.5035190000000  0.7065820000000 1.0
C      1  0.3956980000000  0.6955410000000  0.4390860000000 1.0
C      1  0.3901640000000  0.6179800000000  0.6697620000000 1.0
C      1  0.3908730000000  0.3771630000000  0.6652780000000 1.0
C      1  0.3908780000000  0.3090680000000  0.4320850000000 1.0
C      1  0.3890500000000  0.5035200000000  0.2933990000000 1.0
C      1  0.5473330000000  0.3207920000000  0.3794150000000 1.0
C      1  0.5489980000000  0.3321630000000  0.6393730000000 1.0
C      1  0.5485620000000  0.5767450000000  0.7031580000000 1.0
C      1  0.5476880000000  0.7157860000000  0.4862980000000 1.0
C      1  0.5485400000000  0.5560800000000  0.2887890000000 1.0
C      1  0.4526680000000  0.3207980000000  0.6205850000000 1.0
C      1  0.4510100000000  0.3321450000000  0.3606230000000 1.0
C      1  0.4514230000000  0.5767670000000  0.2968280000000 1.0
C      1  0.4523210000000  0.7157640000000  0.5137120000000 1.0
C      1  0.4514430000000  0.5560740000000  0.7111880000000 1.0
END
