TITL C-1525613-7943-3951 -0.944903356193025 3375 -8862.44315077461 0 0 60 (C2) n - 1
REM
REM in /home/nfs/bkarasulu/CARBON/AIRSS/Generating-Clusters/ReaxFF-fromJPCA2015/Units_Real/Try2-Higher-symm/Only-C60
REM
REM
REM
REM
REM
REM ./C.cell (863b2abdce7293c0672fb3ba77bf323a)
REM AIRSS Version 0.9.1 bugfix July 2018 build 013d7b7c2542+ Fri, 06 Jul 2018 19:26:36 +0100
REM compiler GCC version 9.2.1 20190827 (Red Hat 9.2.1-1)
REM options -cpp -mtune=generic -march=x86-64 -g -O0 -fpre-include=/usr/include/finclude/math-vector-fortran.h
REM seed 635658634 -39702847 2016509095 2017621458 -90204503 -47584329 -1318052901 927917940 -2042832623 -286301008 577498507 1237137373 -574544472 -816617250 -1784917130 1798425458 -1624686663 -698116179 1994687351 -779932654 -1279556224 865230111 -306595091 253983802 -356181486 -2059651340 -768439674 -1273695858 -1800588383 -1807374892 155475893 1790802964 -1955151407
REM
CELL 1.54180   15.00000   15.00000   15.00000   90.00000   90.00000   90.00000
LATT -1
SFAC C  
C      1  0.4996700000000  0.6606240000000  0.6322730000000 1.0
C      1  0.4049850000000  0.6291370000000  0.6324910000000 1.0
C      1  0.3467970000000  0.5498730000000  0.6325600000000 1.0
C      1  0.3465700000000  0.4500680000000  0.6305930000000 1.0
C      1  0.4049640000000  0.3690270000000  0.6306800000000 1.0
C      1  0.5004480000000  0.3383990000000  0.6312440000000 1.0
C      1  0.5955120000000  0.3696460000000  0.6307360000000 1.0
C      1  0.6536050000000  0.4498810000000  0.6321720000000 1.0
C      1  0.6528690000000  0.5502090000000  0.6309460000000 1.0
C      1  0.5936980000000  0.6293750000000  0.6319010000000 1.0
C      1  0.5664830000000  0.6236270000000  0.4947050000000 1.0
C      1  0.4820460000000  0.6194890000000  0.4963790000000 1.0
C      1  0.4064850000000  0.5955330000000  0.4962140000000 1.0
C      1  0.3603130000000  0.5228080000000  0.4948120000000 1.0
C      1  0.3958220000000  0.4503970000000  0.4933570000000 1.0
C      1  0.4350550000000  0.3777880000000  0.4913540000000 1.0
C      1  0.5181360000000  0.3840020000000  0.4937230000000 1.0
C      1  0.5950110000000  0.4025300000000  0.4963340000000 1.0
C      1  0.6404390000000  0.4785640000000  0.4933810000000 1.0
C      1  0.6042890000000  0.5494420000000  0.4940080000000 1.0
C      1  0.3210800000000  0.3467120000000  0.4261430000000 1.0
C      1  0.4396730000000  0.2647450000000  0.4219550000000 1.0
C      1  0.5856670000000  0.2788780000000  0.4247320000000 1.0
C      1  0.7023580000000  0.3712090000000  0.4224090000000 1.0
C      1  0.7447030000000  0.5207460000000  0.4182200000000 1.0
C      1  0.6790020000000  0.6529310000000  0.4255440000000 1.0
C      1  0.5596990000000  0.7347630000000  0.4218700000000 1.0
C      1  0.4149650000000  0.7216620000000  0.4240260000000 1.0
C      1  0.2966700000000  0.6291270000000  0.4219500000000 1.0
C      1  0.2544560000000  0.4786690000000  0.4176500000000 1.0
C      1  0.5722480000000  0.7542040000000  0.5203060000000 1.0
C      1  0.4119720000000  0.7476570000000  0.5170690000000 1.0
C      1  0.2807040000000  0.6475200000000  0.5211470000000 1.0
C      1  0.2349620000000  0.4899940000000  0.5209760000000 1.0
C      1  0.2923820000000  0.3373150000000  0.5187800000000 1.0
C      1  0.4262850000000  0.2482400000000  0.5196410000000 1.0
C      1  0.5885120000000  0.2525130000000  0.5180020000000 1.0
C      1  0.7175770000000  0.3525120000000  0.5180070000000 1.0
C      1  0.7656200000000  0.5097730000000  0.5217200000000 1.0
C      1  0.7083420000000  0.6616400000000  0.5170150000000 1.0
C      1  0.3558010000000  0.4007930000000  0.3599740000000 1.0
C      1  0.4394120000000  0.3352520000000  0.3580430000000 1.0
C      1  0.5494790000000  0.3302970000000  0.3578610000000 1.0
C      1  0.6358230000000  0.3879330000000  0.3572540000000 1.0
C      1  0.6744680000000  0.4919090000000  0.3600830000000 1.0
C      1  0.6432990000000  0.5991570000000  0.3600620000000 1.0
C      1  0.5614390000000  0.6641820000000  0.3565140000000 1.0
C      1  0.4500200000000  0.6691600000000  0.3573110000000 1.0
C      1  0.3655680000000  0.6120350000000  0.3558890000000 1.0
C      1  0.3256930000000  0.5061490000000  0.3594940000000 1.0
C      1  0.7344460000000  0.4320150000000  0.5762720000000 1.0
C      1  0.7263880000000  0.5825380000000  0.5726780000000 1.0
C      1  0.6371460000000  0.7004490000000  0.5740670000000 1.0
C      1  0.4926980000000  0.7401830000000  0.5730180000000 1.0
C      1  0.3521790000000  0.6915370000000  0.5725770000000 1.0
C      1  0.2643630000000  0.5688540000000  0.5764530000000 1.0
C      1  0.2733010000000  0.4178760000000  0.5732190000000 1.0
C      1  0.3625910000000  0.3014710000000  0.5746340000000 1.0
C      1  0.5077040000000  0.2601520000000  0.5736470000000 1.0
C      1  0.6481030000000  0.3068310000000  0.5739270000000 1.0
END
