TITL C-1525613-7943-6200 0.600024986272788 3375 -8915.87537669697 0 0 60 (C1) n - 1
REM
REM in /home/nfs/bkarasulu/CARBON/AIRSS/Generating-Clusters/ReaxFF-fromJPCA2015/Units_Real/Try2-Higher-symm/Only-C60
REM
REM
REM
REM
REM
REM ./C.cell (863b2abdce7293c0672fb3ba77bf323a)
REM AIRSS Version 0.9.1 bugfix July 2018 build 013d7b7c2542+ Fri, 06 Jul 2018 19:26:36 +0100
REM compiler GCC version 9.2.1 20190827 (Red Hat 9.2.1-1)
REM options -cpp -mtune=generic -march=x86-64 -g -O0 -fpre-include=/usr/include/finclude/math-vector-fortran.h
REM seed 1584556229 1326817885 -942535241 -287117284 1658557627 1951402450 -1981280949 1306517421 467602838 410535469 -1615914555 -251342129 -1019252688 1694453904 1895077791 189313561 1387709030 716021226 239940758 -1666562716 1573661390 1581013574 -899863303 -1815059185 1229707189 -1071566757 2095981901 -1172113303 -39748208 1840582318 -2121735718 957198298 -115628335
REM
CELL 1.54180   15.00000   15.00000   15.00000   90.00000   90.00000   90.00000
LATT -1
SFAC C  
C      1  0.3897300000000  0.3066110000000  0.6255600000000 1.0
C      1  0.6501540000000  0.3346780000000  0.6248950000000 1.0
C      1  0.7009550000000  0.5930140000000  0.6254510000000 1.0
C      1  0.4773420000000  0.7231650000000  0.6256010000000 1.0
C      1  0.2876970000000  0.5479150000000  0.6239660000000 1.0
C      1  0.3865130000000  0.6931380000000  0.6252290000000 1.0
C      1  0.6440020000000  0.6643870000000  0.6234860000000 1.0
C      1  0.7036710000000  0.4082000000000  0.6264280000000 1.0
C      1  0.4758840000000  0.2781030000000  0.6257070000000 1.0
C      1  0.2849170000000  0.4569350000000  0.6243100000000 1.0
C      1  0.7118640000000  0.4058990000000  0.3750440000000 1.0
C      1  0.6521930000000  0.6743690000000  0.3762770000000 1.0
C      1  0.3813440000000  0.7054780000000  0.3669010000000 1.0
C      1  0.2712630000000  0.4534650000000  0.3750100000000 1.0
C      1  0.4743920000000  0.2691350000000  0.3737760000000 1.0
C      1  0.7113840000000  0.5964470000000  0.3763960000000 1.0
C      1  0.6548780000000  0.3263080000000  0.3730720000000 1.0
C      1  0.3809520000000  0.2985030000000  0.3721890000000 1.0
C      1  0.2738480000000  0.5513600000000  0.3752160000000 1.0
C      1  0.4743880000000  0.7354680000000  0.3672340000000 1.0
C      1  0.4994840000000  0.3426730000000  0.3117430000000 1.0
C      1  0.6501240000000  0.4526820000000  0.3126900000000 1.0
C      1  0.5917430000000  0.6296740000000  0.3114580000000 1.0
C      1  0.4053490000000  0.6291580000000  0.3076080000000 1.0
C      1  0.3476550000000  0.4511040000000  0.3111560000000 1.0
C      1  0.4995900000000  0.6599830000000  0.3074190000000 1.0
C      1  0.6508660000000  0.5497780000000  0.3124930000000 1.0
C      1  0.5921540000000  0.3718470000000  0.3104810000000 1.0
C      1  0.4043710000000  0.3722050000000  0.3094350000000 1.0
C      1  0.3484150000000  0.5506510000000  0.3098790000000 1.0
C      1  0.5222370000000  0.7508190000000  0.4512570000000 1.0
C      1  0.2772120000000  0.6101180000000  0.4543260000000 1.0
C      1  0.3260720000000  0.3155370000000  0.4514450000000 1.0
C      1  0.6221340000000  0.2772810000000  0.4510730000000 1.0
C      1  0.7495290000000  0.5494010000000  0.4532200000000 1.0
C      1  0.5292740000000  0.2473170000000  0.4518720000000 1.0
C      1  0.2689220000000  0.3944290000000  0.4529110000000 1.0
C      1  0.3342440000000  0.6892030000000  0.4512020000000 1.0
C      1  0.6152130000000  0.7213830000000  0.4545350000000 1.0
C      1  0.7492390000000  0.4520310000000  0.4528850000000 1.0
C      1  0.5916670000000  0.6279210000000  0.6971950000000 1.0
C      1  0.4059540000000  0.6288670000000  0.6976520000000 1.0
C      1  0.3501650000000  0.4506360000000  0.6953710000000 1.0
C      1  0.5004090000000  0.3408300000000  0.6957320000000 1.0
C      1  0.6508710000000  0.4511110000000  0.6945720000000 1.0
C      1  0.5930780000000  0.3715330000000  0.6949190000000 1.0
C      1  0.4069580000000  0.3713030000000  0.6955020000000 1.0
C      1  0.3499770000000  0.5490030000000  0.6987420000000 1.0
C      1  0.4996480000000  0.6596000000000  0.6978040000000 1.0
C      1  0.6503810000000  0.5488300000000  0.6948830000000 1.0
C      1  0.5983260000000  0.6818890000000  0.5420700000000 1.0
C      1  0.3763720000000  0.6583920000000  0.5346280000000 1.0
C      1  0.2974770000000  0.4105000000000  0.5446980000000 1.0
C      1  0.5236580000000  0.2765050000000  0.5452500000000 1.0
C      1  0.7242070000000  0.4541270000000  0.5475860000000 1.0
C      1  0.6108000000000  0.3063590000000  0.5441280000000 1.0
C      1  0.3532050000000  0.3362530000000  0.5437470000000 1.0
C      1  0.3144770000000  0.5880850000000  0.5418870000000 1.0
C      1  0.5069080000000  0.7016000000000  0.5350530000000 1.0
C      1  0.7242640000000  0.5468030000000  0.5477460000000 1.0
END
