TITL C-1525613-7943-941 0.00117523639538094 3375 -8674.27866715989 0 0 60 (C5) n - 1
REM
REM in /home/nfs/bkarasulu/CARBON/AIRSS/Generating-Clusters/ReaxFF-fromJPCA2015/Units_Real/Try2-Higher-symm/Only-C60
REM
REM
REM
REM
REM
REM ./C.cell (863b2abdce7293c0672fb3ba77bf323a)
REM AIRSS Version 0.9.1 bugfix July 2018 build 013d7b7c2542+ Fri, 06 Jul 2018 19:26:36 +0100
REM compiler GCC version 9.2.1 20190827 (Red Hat 9.2.1-1)
REM options -cpp -mtune=generic -march=x86-64 -g -O0 -fpre-include=/usr/include/finclude/math-vector-fortran.h
REM seed -1276997910 1058701382 -941188055 2004223363 761251394 1507436281 -1776202172 650733238 1140442946 2091988883 -998619945 -891444480 -1584705904 1473570931 -345987933 -1040939116 1289509103 642372616 -1800481899 -558327938 -55261311 -107882706 -177757536 376556727 -1289477561 -825386360 -1272323472 -1514411256 -1580966457 1832051304 1414604073 921929313 655024819
REM
CELL 1.54180   15.00000   15.00000   15.00000   90.00000   90.00000   90.00000
LATT -1
SFAC C  
C      1  0.3285950000000  0.4508240000000  0.3475580000000 1.0
C      1  0.3293120000000  0.3402800000000  0.4994740000000 1.0
C      1  0.3292810000000  0.4502100000000  0.6517440000000 1.0
C      1  0.3288290000000  0.6292460000000  0.5941680000000 1.0
C      1  0.3285610000000  0.6296450000000  0.4059690000000 1.0
C      1  0.3290450000000  0.5488990000000  0.3477120000000 1.0
C      1  0.3294310000000  0.6596560000000  0.4993510000000 1.0
C      1  0.3293160000000  0.5497970000000  0.6516980000000 1.0
C      1  0.3288090000000  0.3707260000000  0.5942690000000 1.0
C      1  0.3285980000000  0.3702980000000  0.4060980000000 1.0
C      1  0.3900600000000  0.6751290000000  0.3427120000000 1.0
C      1  0.3899200000000  0.4046160000000  0.2846750000000 1.0
C      1  0.3910400000000  0.2665480000000  0.5238800000000 1.0
C      1  0.3909190000000  0.4506470000000  0.7295420000000 1.0
C      1  0.3902890000000  0.7035210000000  0.6179300000000 1.0
C      1  0.3899080000000  0.3247260000000  0.3427470000000 1.0
C      1  0.3908300000000  0.5948870000000  0.2851690000000 1.0
C      1  0.3910910000000  0.7334370000000  0.5238240000000 1.0
C      1  0.3909400000000  0.5493880000000  0.7295060000000 1.0
C      1  0.3902890000000  0.2964500000000  0.6179940000000 1.0
C      1  0.6029320000000  0.6863150000000  0.6129750000000 1.0
C      1  0.6028350000000  0.6649870000000  0.3577450000000 1.0
C      1  0.6025560000000  0.4154540000000  0.2997370000000 1.0
C      1  0.6025110000000  0.2839360000000  0.5190120000000 1.0
C      1  0.6027890000000  0.4507080000000  0.7118550000000 1.0
C      1  0.6028960000000  0.3136800000000  0.6129410000000 1.0
C      1  0.6025610000000  0.3356540000000  0.3576930000000 1.0
C      1  0.6023830000000  0.5848500000000  0.3004210000000 1.0
C      1  0.6025270000000  0.7160610000000  0.5190470000000 1.0
C      1  0.6027740000000  0.5492620000000  0.7118010000000 1.0
C      1  0.5220390000000  0.5496910000000  0.6509530000000 1.0
C      1  0.5223300000000  0.6588140000000  0.4995190000000 1.0
C      1  0.5221380000000  0.5487110000000  0.3489380000000 1.0
C      1  0.5217360000000  0.3710520000000  0.4070270000000 1.0
C      1  0.5216990000000  0.3717700000000  0.5940710000000 1.0
C      1  0.5220290000000  0.4503110000000  0.6509610000000 1.0
C      1  0.5223190000000  0.3412240000000  0.4995310000000 1.0
C      1  0.5217430000000  0.4514470000000  0.3486860000000 1.0
C      1  0.5215720000000  0.6292000000000  0.4071000000000 1.0
C      1  0.5217510000000  0.6282480000000  0.5941090000000 1.0
C      1  0.4743060000000  0.3200770000000  0.6632500000000 1.0
C      1  0.4750520000000  0.5994200000000  0.7204500000000 1.0
C      1  0.4753620000000  0.7397240000000  0.4736350000000 1.0
C      1  0.4751080000000  0.5489830000000  0.2639190000000 1.0
C      1  0.4741780000000  0.2894660000000  0.3792450000000 1.0
C      1  0.4743070000000  0.6799530000000  0.6632350000000 1.0
C      1  0.4750150000000  0.4005820000000  0.7204990000000 1.0
C      1  0.4752750000000  0.2603480000000  0.4735960000000 1.0
C      1  0.4741790000000  0.4502650000000  0.2624910000000 1.0
C      1  0.4741340000000  0.7108410000000  0.3791920000000 1.0
C      1  0.6811670000000  0.6593010000000  0.5005970000000 1.0
C      1  0.6811060000000  0.5497760000000  0.3486620000000 1.0
C      1  0.6811870000000  0.3712600000000  0.4058660000000 1.0
C      1  0.6811830000000  0.3705180000000  0.5934010000000 1.0
C      1  0.6812340000000  0.5487170000000  0.6518240000000 1.0
C      1  0.6812050000000  0.3407000000000  0.5006150000000 1.0
C      1  0.6812140000000  0.4502290000000  0.3484630000000 1.0
C      1  0.6811560000000  0.6288040000000  0.4057230000000 1.0
C      1  0.6812060000000  0.6294580000000  0.5933340000000 1.0
C      1  0.6812410000000  0.4512740000000  0.6518630000000 1.0
END
