TITL C-1525613-7943-3276 -0.0801549147995275 3375 -8912.44120380427 0 0 60 (D5h) n - 1
REM
REM in /home/nfs/bkarasulu/CARBON/AIRSS/Generating-Clusters/ReaxFF-fromJPCA2015/Units_Real/Try2-Higher-symm/Only-C60
REM
REM
REM
REM
REM
REM ./C.cell (863b2abdce7293c0672fb3ba77bf323a)
REM AIRSS Version 0.9.1 bugfix July 2018 build 013d7b7c2542+ Fri, 06 Jul 2018 19:26:36 +0100
REM compiler GCC version 9.2.1 20190827 (Red Hat 9.2.1-1)
REM options -cpp -mtune=generic -march=x86-64 -g -O0 -fpre-include=/usr/include/finclude/math-vector-fortran.h
REM seed 363173859 -578982532 -1474509866 1969912356 -1857045267 608639879 -206597588 -458256497 -1971027542 -108641837 -1430814249 -1350909393 296744579 2141045590 -98542948 -57629293 -924185963 1404080254 1508714895 -2029647233 -772713184 -1427203796 2065332396 194466933 -1921844212 -1241502690 -23708047 1924386115 -1711104577 -1367102868 -1437833271 -530125718 2040595911
REM
CELL 1.54180   15.00000   15.00000   15.00000   90.00000   90.00000   90.00000
LATT -1
SFAC C  
C      1  0.6704890000000  0.4338210000000  0.6265000000000 1.0
C      1  0.6706850000000  0.5996780000000  0.6019630000000 1.0
C      1  0.6707200000000  0.6278740000000  0.4366630000000 1.0
C      1  0.6705690000000  0.4793060000000  0.3587990000000 1.0
C      1  0.6706000000000  0.3592120000000  0.4759330000000 1.0
C      1  0.3294610000000  0.4338740000000  0.6264610000000 1.0
C      1  0.3293370000000  0.5997670000000  0.6020760000000 1.0
C      1  0.3293410000000  0.6279440000000  0.4366880000000 1.0
C      1  0.3293540000000  0.4793440000000  0.3588590000000 1.0
C      1  0.3293940000000  0.3591930000000  0.4759790000000 1.0
C      1  0.6000650000000  0.7052100000000  0.5402750000000 1.0
C      1  0.6001160000000  0.6016840000000  0.3172920000000 1.0
C      1  0.6000740000000  0.3577350000000  0.3468740000000 1.0
C      1  0.6001140000000  0.3104450000000  0.5879340000000 1.0
C      1  0.6002330000000  0.5250850000000  0.7077640000000 1.0
C      1  0.3998970000000  0.7052290000000  0.5403180000000 1.0
C      1  0.3999020000000  0.6016720000000  0.3172730000000 1.0
C      1  0.3999350000000  0.3577940000000  0.3469560000000 1.0
C      1  0.3998340000000  0.3104070000000  0.5879900000000 1.0
C      1  0.3997980000000  0.5250630000000  0.7078130000000 1.0
C      1  0.5932580000000  0.4623370000000  0.5712560000000 1.0
C      1  0.5933870000000  0.5559230000000  0.5576570000000 1.0
C      1  0.5934490000000  0.5722030000000  0.4644900000000 1.0
C      1  0.5934580000000  0.4885380000000  0.4205730000000 1.0
C      1  0.5934470000000  0.4206940000000  0.4864120000000 1.0
C      1  0.4067060000000  0.4623960000000  0.5711660000000 1.0
C      1  0.4065500000000  0.5559420000000  0.5576450000000 1.0
C      1  0.4065650000000  0.5721430000000  0.4644360000000 1.0
C      1  0.4065930000000  0.4884730000000  0.4205030000000 1.0
C      1  0.4066280000000  0.4206670000000  0.4863510000000 1.0
C      1  0.4520440000000  0.2781090000000  0.5085160000000 1.0
C      1  0.4520460000000  0.4394980000000  0.7135620000000 1.0
C      1  0.4520320000000  0.6846600000000  0.6236770000000 1.0
C      1  0.4520120000000  0.6745670000000  0.3626790000000 1.0
C      1  0.4520670000000  0.4233290000000  0.2915240000000 1.0
C      1  0.5479690000000  0.2781110000000  0.5084850000000 1.0
C      1  0.5479860000000  0.4395050000000  0.7135030000000 1.0
C      1  0.5479390000000  0.6846590000000  0.6236480000000 1.0
C      1  0.5480090000000  0.6745790000000  0.3626760000000 1.0
C      1  0.5479810000000  0.4233540000000  0.2915220000000 1.0
C      1  0.3134370000000  0.3853940000000  0.3822590000000 1.0
C      1  0.3134390000000  0.3528110000000  0.5725890000000 1.0
C      1  0.3133890000000  0.5235930000000  0.6627540000000 1.0
C      1  0.3134340000000  0.6619360000000  0.5278710000000 1.0
C      1  0.3134040000000  0.5766300000000  0.3545910000000 1.0
C      1  0.6865690000000  0.3853840000000  0.3822210000000 1.0
C      1  0.6865600000000  0.3528420000000  0.5725560000000 1.0
C      1  0.6866080000000  0.5235500000000  0.6626220000000 1.0
C      1  0.6865340000000  0.6619560000000  0.5278390000000 1.0
C      1  0.6865690000000  0.5765730000000  0.3545270000000 1.0
C      1  0.4519810000000  0.3490530000000  0.6642540000000 1.0
C      1  0.4520230000000  0.6094410000000  0.6940420000000 1.0
C      1  0.4520230000000  0.7186210000000  0.4557700000000 1.0
C      1  0.4520320000000  0.5254720000000  0.2783880000000 1.0
C      1  0.4520090000000  0.2970500000000  0.4073010000000 1.0
C      1  0.5480050000000  0.3490490000000  0.6642550000000 1.0
C      1  0.5479810000000  0.6094120000000  0.6939840000000 1.0
C      1  0.5479580000000  0.7186520000000  0.4557840000000 1.0
C      1  0.5480190000000  0.5254980000000  0.2783920000000 1.0
C      1  0.5479830000000  0.2970570000000  0.4073100000000 1.0
END
