TITL C-1525613-7943-449 0.0570183248045421 3375 -8399.51618144466 0 0 60 (C5) n - 1
REM
REM in /home/nfs/bkarasulu/CARBON/AIRSS/Generating-Clusters/ReaxFF-fromJPCA2015/Units_Real/Try2-Higher-symm/Only-C60
REM
REM
REM
REM
REM
REM ./C.cell (863b2abdce7293c0672fb3ba77bf323a)
REM AIRSS Version 0.9.1 bugfix July 2018 build 013d7b7c2542+ Fri, 06 Jul 2018 19:26:36 +0100
REM compiler GCC version 9.2.1 20190827 (Red Hat 9.2.1-1)
REM options -cpp -mtune=generic -march=x86-64 -g -O0 -fpre-include=/usr/include/finclude/math-vector-fortran.h
REM seed 1721436909 720129778 -1192152942 -1902109519 -1603821852 -2036434577 1670600822 502250631 1547578126 -569166738 -1400548789 1328389555 1710669719 -177902265 -2018935782 -1565356533 -1483618298 1464200528 -551311761 -953914525 -491714015 -2020477993 15196192 -1927157054 911841720 -1547828477 1690505733 -451357281 -1517998755 -533288463 508482019 1555444735 641490227
REM
CELL 1.54180   15.00000   15.00000   15.00000   90.00000   90.00000   90.00000
LATT -1
SFAC C  
C      1  0.6219510000000  0.2757990000000  0.5915120000000 1.0
C      1  0.6218400000000  0.3440650000000  0.3148430000000 1.0
C      1  0.6217880000000  0.6280000000000  0.2945440000000 1.0
C      1  0.6217790000000  0.7349090000000  0.5576140000000 1.0
C      1  0.6219880000000  0.5175730000000  0.7413360000000 1.0
C      1  0.3780500000000  0.2757930000000  0.5915000000000 1.0
C      1  0.3781610000000  0.3440690000000  0.3148380000000 1.0
C      1  0.3782130000000  0.6280010000000  0.2945440000000 1.0
C      1  0.3782200000000  0.7349090000000  0.5576150000000 1.0
C      1  0.3780110000000  0.5175710000000  0.7413350000000 1.0
C      1  0.3776490000000  0.6893070000000  0.6517180000000 1.0
C      1  0.3775430000000  0.4142690000000  0.7269150000000 1.0
C      1  0.3775110000000  0.2576170000000  0.4880920000000 1.0
C      1  0.3776850000000  0.4364560000000  0.2659570000000 1.0
C      1  0.3776850000000  0.7029060000000  0.3665550000000 1.0
C      1  0.6223520000000  0.6893080000000  0.6517180000000 1.0
C      1  0.6224580000000  0.4142590000000  0.7269090000000 1.0
C      1  0.6224890000000  0.2576180000000  0.4880850000000 1.0
C      1  0.6223150000000  0.4364570000000  0.2659570000000 1.0
C      1  0.6223150000000  0.7029060000000  0.3665520000000 1.0
C      1  0.5463270000000  0.6457330000000  0.4677330000000 1.0
C      1  0.5461740000000  0.5757530000000  0.6291030000000 1.0
C      1  0.5461500000000  0.4004080000000  0.6121420000000 1.0
C      1  0.5462040000000  0.3629560000000  0.4400570000000 1.0
C      1  0.5461780000000  0.5143850000000  0.3515230000000 1.0
C      1  0.4536680000000  0.6457360000000  0.4677280000000 1.0
C      1  0.4538250000000  0.5757540000000  0.6291040000000 1.0
C      1  0.4538770000000  0.4004330000000  0.6121240000000 1.0
C      1  0.4538090000000  0.3629650000000  0.4400660000000 1.0
C      1  0.4538230000000  0.5143850000000  0.3515220000000 1.0
C      1  0.6090880000000  0.5056450000000  0.4228360000000 1.0
C      1  0.6093040000000  0.5752000000000  0.4819370000000 1.0
C      1  0.6088660000000  0.5404090000000  0.5663570000000 1.0
C      1  0.6087140000000  0.4494600000000  0.5593460000000 1.0
C      1  0.6090140000000  0.4280150000000  0.4706830000000 1.0
C      1  0.3909120000000  0.5056450000000  0.4228350000000 1.0
C      1  0.3906970000000  0.5752020000000  0.4819370000000 1.0
C      1  0.3911320000000  0.5404050000000  0.5663580000000 1.0
C      1  0.3912810000000  0.4494660000000  0.5593390000000 1.0
C      1  0.3909820000000  0.4280170000000  0.4706900000000 1.0
C      1  0.4468090000000  0.6937810000000  0.3014650000000 1.0
C      1  0.4465170000000  0.7481360000000  0.6224830000000 1.0
C      1  0.4465260000000  0.4601260000000  0.7737610000000 1.0
C      1  0.4462990000000  0.2275960000000  0.5464210000000 1.0
C      1  0.4465060000000  0.3715330000000  0.2548090000000 1.0
C      1  0.5531920000000  0.6937810000000  0.3014650000000 1.0
C      1  0.5534840000000  0.7481370000000  0.6224820000000 1.0
C      1  0.5534720000000  0.4601290000000  0.7737630000000 1.0
C      1  0.5536990000000  0.2275940000000  0.5464200000000 1.0
C      1  0.5534920000000  0.3715340000000  0.2548080000000 1.0
C      1  0.6014450000000  0.2950450000000  0.3987620000000 1.0
C      1  0.6011870000000  0.5329830000000  0.2742070000000 1.0
C      1  0.6012800000000  0.7250650000000  0.4610910000000 1.0
C      1  0.6015220000000  0.6065370000000  0.7023140000000 1.0
C      1  0.6015880000000  0.3403360000000  0.6639010000000 1.0
C      1  0.3985460000000  0.2950320000000  0.3987530000000 1.0
C      1  0.3988130000000  0.5329820000000  0.2742070000000 1.0
C      1  0.3987230000000  0.7250620000000  0.4610940000000 1.0
C      1  0.3984790000000  0.6065360000000  0.7023120000000 1.0
C      1  0.3983950000000  0.3403090000000  0.6639220000000 1.0
END
