TITL C-1525613-7943-645 -0.198152836092194 3375 -8987.14588909814 0 0 60 (Ci) n - 1
REM
REM in /home/nfs/bkarasulu/CARBON/AIRSS/Generating-Clusters/ReaxFF-fromJPCA2015/Units_Real/Try2-Higher-symm/Only-C60
REM
REM
REM
REM
REM
REM ./C.cell (863b2abdce7293c0672fb3ba77bf323a)
REM AIRSS Version 0.9.1 bugfix July 2018 build 013d7b7c2542+ Fri, 06 Jul 2018 19:26:36 +0100
REM compiler GCC version 9.2.1 20190827 (Red Hat 9.2.1-1)
REM options -cpp -mtune=generic -march=x86-64 -g -O0 -fpre-include=/usr/include/finclude/math-vector-fortran.h
REM seed -267512775 323925256 -1623138224 1269703136 -1358222559 959773670 -724148377 -181969458 2088609565 -1994024878 -1606913210 2049672161 -719676743 -1703600693 -2073416833 -2017514691 -459651958 -1432067404 -39049424 -43064034 -556284994 1633058236 -1886273988 -1598567182 -1535657527 -897575452 250425755 -703318144 808002046 1744207530 -19067091 -716283197 1852120785
REM
CELL 1.54180   15.00000   15.00000   15.00000   90.00000   90.00000   90.00000
LATT -1
SFAC C  
C      1  0.6017790000000  0.6843220000000  0.5912250000000 1.0
C      1  0.3979080000000  0.5966000000000  0.6834810000000 1.0
C      1  0.6015780000000  0.4709140000000  0.7041760000000 1.0
C      1  0.3982460000000  0.3562360000000  0.6483090000000 1.0
C      1  0.6022810000000  0.2974910000000  0.5351990000000 1.0
C      1  0.3982210000000  0.3156780000000  0.4087750000000 1.0
C      1  0.6020920000000  0.4034000000000  0.3165190000000 1.0
C      1  0.3984220000000  0.5290860000000  0.2958240000000 1.0
C      1  0.6017540000000  0.6437640000000  0.3516910000000 1.0
C      1  0.3977190000000  0.7025090000000  0.4648010000000 1.0
C      1  0.5440090000000  0.6968390000000  0.4140220000000 1.0
C      1  0.4558760000000  0.7097950000000  0.5465760000000 1.0
C      1  0.5436480000000  0.6422320000000  0.6618720000000 1.0
C      1  0.4556220000000  0.5210830000000  0.7150530000000 1.0
C      1  0.5439720000000  0.3911120000000  0.6860960000000 1.0
C      1  0.4559910000000  0.3031610000000  0.5859780000000 1.0
C      1  0.5441240000000  0.2902050000000  0.4534240000000 1.0
C      1  0.4563520000000  0.3577680000000  0.3381280000000 1.0
C      1  0.5443780000000  0.4789170000000  0.2849470000000 1.0
C      1  0.4560280000000  0.6088880000000  0.3139040000000 1.0
C      1  0.6897550000000  0.4202590000000  0.3556740000000 1.0
C      1  0.3104120000000  0.5208980000000  0.3372910000000 1.0
C      1  0.6894580000000  0.6120170000000  0.3802230000000 1.0
C      1  0.3095140000000  0.6612750000000  0.4688760000000 1.0
C      1  0.6903930000000  0.6492940000000  0.5704470000000 1.0
C      1  0.3102450000000  0.5797410000000  0.6443260000000 1.0
C      1  0.6895880000000  0.4791020000000  0.6627090000000 1.0
C      1  0.3105420000000  0.3879830000000  0.6197770000000 1.0
C      1  0.6904860000000  0.3387250000000  0.5311240000000 1.0
C      1  0.3096070000000  0.3507060000000  0.4295530000000 1.0
C      1  0.5971290000000  0.4457490000000  0.5583000000000 1.0
C      1  0.4038180000000  0.4224920000000  0.5158330000000 1.0
C      1  0.5973810000000  0.4281780000000  0.4672610000000 1.0
C      1  0.4035630000000  0.4618660000000  0.4312240000000 1.0
C      1  0.5969280000000  0.5088030000000  0.4212160000000 1.0
C      1  0.4028710000000  0.5542510000000  0.4417000000000 1.0
C      1  0.5961820000000  0.5775080000000  0.4841670000000 1.0
C      1  0.4026190000000  0.5718220000000  0.5327390000000 1.0
C      1  0.5964370000000  0.5381340000000  0.5687760000000 1.0
C      1  0.4030720000000  0.4911970000000  0.5787840000000 1.0
C      1  0.5447800000000  0.3185100000000  0.6147580000000 1.0
C      1  0.4557040000000  0.2853170000000  0.4858190000000 1.0
C      1  0.5444900000000  0.3342300000000  0.3618730000000 1.0
C      1  0.4554470000000  0.4469400000000  0.2901650000000 1.0
C      1  0.5444720000000  0.5792260000000  0.2994730000000 1.0
C      1  0.4552200000000  0.6814900000000  0.3852420000000 1.0
C      1  0.5442960000000  0.7146830000000  0.5141810000000 1.0
C      1  0.4555100000000  0.6657700000000  0.6381270000000 1.0
C      1  0.5445530000000  0.5530600000000  0.7098350000000 1.0
C      1  0.4555280000000  0.4207740000000  0.7005270000000 1.0
C      1  0.6730220000000  0.4021540000000  0.6046620000000 1.0
C      1  0.3265680000000  0.3603830000000  0.5270410000000 1.0
C      1  0.6747760000000  0.3724410000000  0.4406350000000 1.0
C      1  0.3252570000000  0.4323060000000  0.3778790000000 1.0
C      1  0.6738880000000  0.5170230000000  0.3590760000000 1.0
C      1  0.3269780000000  0.5978460000000  0.3953380000000 1.0
C      1  0.6734320000000  0.6396170000000  0.4729590000000 1.0
C      1  0.3252240000000  0.6275590000000  0.5593650000000 1.0
C      1  0.6747430000000  0.5676940000000  0.6221210000000 1.0
C      1  0.3261120000000  0.4829770000000  0.6409240000000 1.0
END
