TITL C-1525613-7943-1867 0.000600407724146941 3375 -9253.69018938913 0 0 60 (C1) n - 1
REM
REM in /home/nfs/bkarasulu/CARBON/AIRSS/Generating-Clusters/ReaxFF-fromJPCA2015/Units_Real/Try2-Higher-symm/Only-C60
REM
REM
REM
REM
REM
REM ./C.cell (863b2abdce7293c0672fb3ba77bf323a)
REM AIRSS Version 0.9.1 bugfix July 2018 build 013d7b7c2542+ Fri, 06 Jul 2018 19:26:36 +0100
REM compiler GCC version 9.2.1 20190827 (Red Hat 9.2.1-1)
REM options -cpp -mtune=generic -march=x86-64 -g -O0 -fpre-include=/usr/include/finclude/math-vector-fortran.h
REM seed -10219286 -1475101594 -723282299 612119879 -1451577320 1668740217 -818917507 62731067 -1955488251 185079176 1717697488 -36495857 2071800363 -1037674911 -2021399624 1363675626 1872382683 -711994838 123471216 664312447 -1035572360 839541410 1543957886 -1634415939 379937737 -232873669 1012711046 147253752 299985174 -927600967 -254757288 1210158273 -1639471094
REM
CELL 1.54180   15.00000   15.00000   15.00000   90.00000   90.00000   90.00000
LATT -1
SFAC C  
C      1  0.6267820000000  0.6141760000000  0.3048080000000 1.0
C      1  0.6286350000000  0.7273100000000  0.5486940000000 1.0
C      1  0.6372460000000  0.5240780000000  0.7312780000000 1.0
C      1  0.6219270000000  0.2925310000000  0.5916400000000 1.0
C      1  0.6216900000000  0.3514820000000  0.3295090000000 1.0
C      1  0.6277330000000  0.6155480000000  0.6953040000000 1.0
C      1  0.6282910000000  0.7264210000000  0.4501560000000 1.0
C      1  0.6387080000000  0.5235890000000  0.2675910000000 1.0
C      1  0.6220130000000  0.2926870000000  0.4080000000000 1.0
C      1  0.6213330000000  0.3513170000000  0.6701600000000 1.0
C      1  0.4557380000000  0.3569770000000  0.6702070000000 1.0
C      1  0.4565470000000  0.2975270000000  0.4036240000000 1.0
C      1  0.4904840000000  0.5416840000000  0.2175970000000 1.0
C      1  0.4672210000000  0.7510590000000  0.4510310000000 1.0
C      1  0.4643800000000  0.6171570000000  0.7184060000000 1.0
C      1  0.4568470000000  0.3601100000000  0.3307820000000 1.0
C      1  0.4562310000000  0.2954450000000  0.5957980000000 1.0
C      1  0.4876430000000  0.5419920000000  0.7790670000000 1.0
C      1  0.4671100000000  0.7514160000000  0.5488260000000 1.0
C      1  0.4633770000000  0.6115930000000  0.2825440000000 1.0
C      1  0.3695850000000  0.4000160000000  0.6871170000000 1.0
C      1  0.3776620000000  0.2814110000000  0.4526530000000 1.0
C      1  0.3416630000000  0.4911920000000  0.2887730000000 1.0
C      1  0.3859870000000  0.6966210000000  0.4514860000000 1.0
C      1  0.3806920000000  0.5748000000000  0.6848340000000 1.0
C      1  0.3716770000000  0.4061220000000  0.3164310000000 1.0
C      1  0.3773870000000  0.2800450000000  0.5458380000000 1.0
C      1  0.3408730000000  0.4899770000000  0.7188160000000 1.0
C      1  0.3859310000000  0.6966770000000  0.5488930000000 1.0
C      1  0.3782500000000  0.5732220000000  0.3166060000000 1.0
C      1  0.6913210000000  0.3493830000000  0.5484590000000 1.0
C      1  0.6904730000000  0.4096410000000  0.3724030000000 1.0
C      1  0.6934990000000  0.5943090000000  0.3751720000000 1.0
C      1  0.6974670000000  0.6557640000000  0.5495930000000 1.0
C      1  0.7003290000000  0.5010840000000  0.6588140000000 1.0
C      1  0.6915410000000  0.3494020000000  0.4512120000000 1.0
C      1  0.6899200000000  0.4097420000000  0.6271650000000 1.0
C      1  0.6943620000000  0.5950940000000  0.6250970000000 1.0
C      1  0.6977810000000  0.6555020000000  0.4501300000000 1.0
C      1  0.7014850000000  0.5008680000000  0.3404890000000 1.0
C      1  0.3129240000000  0.5782280000000  0.6134820000000 1.0
C      1  0.2979750000000  0.3999770000000  0.6203290000000 1.0
C      1  0.2981970000000  0.3357640000000  0.4497320000000 1.0
C      1  0.2728470000000  0.4935620000000  0.3554240000000 1.0
C      1  0.2999050000000  0.6509110000000  0.4507310000000 1.0
C      1  0.3113040000000  0.5806130000000  0.3842590000000 1.0
C      1  0.3001590000000  0.4021040000000  0.3802920000000 1.0
C      1  0.2974120000000  0.3348950000000  0.5486750000000 1.0
C      1  0.2727740000000  0.4929320000000  0.6456840000000 1.0
C      1  0.2998490000000  0.6501160000000  0.5487580000000 1.0
C      1  0.5427620000000  0.6599320000000  0.6741210000000 1.0
C      1  0.5391330000000  0.3875810000000  0.7082750000000 1.0
C      1  0.5367570000000  0.2737210000000  0.4513780000000 1.0
C      1  0.5576250000000  0.4722300000000  0.2420960000000 1.0
C      1  0.5444270000000  0.7195830000000  0.3993070000000 1.0
C      1  0.5406630000000  0.6561420000000  0.3266010000000 1.0
C      1  0.5396430000000  0.3884700000000  0.2917740000000 1.0
C      1  0.5367280000000  0.2732880000000  0.5479990000000 1.0
C      1  0.5558150000000  0.4728350000000  0.7556140000000 1.0
C      1  0.5452830000000  0.7221470000000  0.6004630000000 1.0
END
