TITL C-1525613-7943-196 0.0135951386031163 3375 -8812.67756262103 0 0 60 (C2) n - 1
REM
REM in /home/nfs/bkarasulu/CARBON/AIRSS/Generating-Clusters/ReaxFF-fromJPCA2015/Units_Real/Try2-Higher-symm/Only-C60
REM
REM
REM
REM
REM
REM ./C.cell (863b2abdce7293c0672fb3ba77bf323a)
REM AIRSS Version 0.9.1 bugfix July 2018 build 013d7b7c2542+ Fri, 06 Jul 2018 19:26:36 +0100
REM compiler GCC version 9.2.1 20190827 (Red Hat 9.2.1-1)
REM options -cpp -mtune=generic -march=x86-64 -g -O0 -fpre-include=/usr/include/finclude/math-vector-fortran.h
REM seed -418381884 1920169217 -133036284 -691099554 2013995170 1426064691 -282330638 138436515 -1615490537 2078137753 -268523666 696878467 -1029480367 -90215241 785079638 -992824813 423144964 -942707831 946540642 878814304 -225001700 1880586705 533394755 1764667322 660065137 -1543950605 -908946033 2011860363 1875283401 415076331 -856819034 273951233 -769978837
REM
CELL 1.54180   15.00000   15.00000   15.00000   90.00000   90.00000   90.00000
LATT -1
SFAC C  
C      1  0.5306080000000  0.3706940000000  0.3689520000000 1.0
C      1  0.5323620000000  0.3158730000000  0.4720650000000 1.0
C      1  0.5312270000000  0.3357010000000  0.5710620000000 1.0
C      1  0.5312260000000  0.4281890000000  0.6646620000000 1.0
C      1  0.5310460000000  0.5272620000000  0.6850570000000 1.0
C      1  0.5306080000000  0.6293060000000  0.6310480000000 1.0
C      1  0.5323620000000  0.6841280000000  0.5279350000000 1.0
C      1  0.5312270000000  0.6642980000000  0.4289380000000 1.0
C      1  0.5312260000000  0.5718110000000  0.3353380000000 1.0
C      1  0.5310460000000  0.4727380000000  0.3149430000000 1.0
C      1  0.6214280000000  0.3396560000000  0.3387350000000 1.0
C      1  0.6287080000000  0.2759090000000  0.4632480000000 1.0
C      1  0.6233320000000  0.3029080000000  0.5988170000000 1.0
C      1  0.6223490000000  0.4003050000000  0.6985270000000 1.0
C      1  0.6272400000000  0.5360840000000  0.7255200000000 1.0
C      1  0.6214270000000  0.6603450000000  0.6612650000000 1.0
C      1  0.6287080000000  0.7240910000000  0.5367520000000 1.0
C      1  0.6233320000000  0.6970930000000  0.4011830000000 1.0
C      1  0.6223500000000  0.5996950000000  0.3014730000000 1.0
C      1  0.6272400000000  0.4639160000000  0.2744800000000 1.0
C      1  0.4520250000000  0.2565960000000  0.4610660000000 1.0
C      1  0.4528100000000  0.2871640000000  0.6036920000000 1.0
C      1  0.4532560000000  0.3933160000000  0.7127220000000 1.0
C      1  0.4490650000000  0.5378110000000  0.7430350000000 1.0
C      1  0.4519010000000  0.6704040000000  0.6705850000000 1.0
C      1  0.4520250000000  0.7434040000000  0.5389350000000 1.0
C      1  0.4528110000000  0.7128360000000  0.3963070000000 1.0
C      1  0.4532560000000  0.6066850000000  0.2872780000000 1.0
C      1  0.4490650000000  0.4621890000000  0.2569650000000 1.0
C      1  0.4519010000000  0.3295960000000  0.3294160000000 1.0
C      1  0.6741130000000  0.6903970000000  0.5988120000000 1.0
C      1  0.6765000000000  0.7092880000000  0.4686560000000 1.0
C      1  0.6727140000000  0.6464430000000  0.3530510000000 1.0
C      1  0.6753270000000  0.5318620000000  0.2886810000000 1.0
C      1  0.6735130000000  0.4016880000000  0.3069910000000 1.0
C      1  0.6741130000000  0.3096030000000  0.4011880000000 1.0
C      1  0.6765010000000  0.2907120000000  0.5313440000000 1.0
C      1  0.6727130000000  0.3535570000000  0.6469490000000 1.0
C      1  0.6753280000000  0.4681380000000  0.7113190000000 1.0
C      1  0.6735120000000  0.5983120000000  0.6930080000000 1.0
C      1  0.3282810000000  0.3897380000000  0.6096750000000 1.0
C      1  0.3259060000000  0.4753820000000  0.6558630000000 1.0
C      1  0.3273550000000  0.5713430000000  0.6410820000000 1.0
C      1  0.3281200000000  0.6394060000000  0.5719300000000 1.0
C      1  0.3263290000000  0.6544000000000  0.4769070000000 1.0
C      1  0.3282810000000  0.6102620000000  0.3903250000000 1.0
C      1  0.3259060000000  0.5246180000000  0.3441370000000 1.0
C      1  0.3273550000000  0.4286570000000  0.3589190000000 1.0
C      1  0.3281200000000  0.3605940000000  0.4280700000000 1.0
C      1  0.3263300000000  0.3456000000000  0.5230930000000 1.0
C      1  0.3885760000000  0.2670910000000  0.5327190000000 1.0
C      1  0.3938740000000  0.3367460000000  0.6616120000000 1.0
C      1  0.3892460000000  0.4637880000000  0.7313520000000 1.0
C      1  0.3907940000000  0.6060430000000  0.7093740000000 1.0
C      1  0.3907680000000  0.7106540000000  0.6055730000000 1.0
C      1  0.3885760000000  0.7329080000000  0.4672810000000 1.0
C      1  0.3938740000000  0.6632540000000  0.3383880000000 1.0
C      1  0.3892460000000  0.5362130000000  0.2686480000000 1.0
C      1  0.3907940000000  0.3939570000000  0.2906260000000 1.0
C      1  0.3907670000000  0.2893450000000  0.3944260000000 1.0
END
