TITL C-1525613-7943-6827 -0.0661914330510209 3375 -8746.99671809743 0 0 60 (C1) n - 1
REM
REM in /home/nfs/bkarasulu/CARBON/AIRSS/Generating-Clusters/ReaxFF-fromJPCA2015/Units_Real/Try2-Higher-symm/Only-C60
REM
REM
REM
REM
REM
REM ./C.cell (863b2abdce7293c0672fb3ba77bf323a)
REM AIRSS Version 0.9.1 bugfix July 2018 build 013d7b7c2542+ Fri, 06 Jul 2018 19:26:36 +0100
REM compiler GCC version 9.2.1 20190827 (Red Hat 9.2.1-1)
REM options -cpp -mtune=generic -march=x86-64 -g -O0 -fpre-include=/usr/include/finclude/math-vector-fortran.h
REM seed -1770489562 203845494 2084200694 489733630 2138487524 -1927214005 -892955886 -1218533499 527485487 -147554834 659590925 855104433 -1246952352 -925726262 553388462 -90185780 2085295462 120364656 -1243113534 -1014390592 1996854301 503602171 -2054736968 1409055142 -563902149 1322948463 1834706798 1121844564 -1317559165 -855795199 -2002317253 492853501 -2012705847
REM
CELL 1.54180   15.00000   15.00000   15.00000   90.00000   90.00000   90.00000
LATT -1
SFAC C  
C      1  0.4770960000000  0.7246180000000  0.6487330000000 1.0
C      1  0.3520320000000  0.7255580000000  0.5243010000000 1.0
C      1  0.4301870000000  0.7243590000000  0.3664810000000 1.0
C      1  0.6047550000000  0.7230040000000  0.3929170000000 1.0
C      1  0.6329880000000  0.7224700000000  0.5676430000000 1.0
C      1  0.5229250000000  0.2762200000000  0.6483820000000 1.0
C      1  0.6484940000000  0.2749080000000  0.5243580000000 1.0
C      1  0.5697180000000  0.2759450000000  0.3666250000000 1.0
C      1  0.3951100000000  0.2772210000000  0.3926020000000 1.0
C      1  0.3667870000000  0.2772200000000  0.5669830000000 1.0
C      1  0.4762700000000  0.6246110000000  0.6673000000000 1.0
C      1  0.3345710000000  0.6255510000000  0.5304830000000 1.0
C      1  0.4188190000000  0.6242360000000  0.3510920000000 1.0
C      1  0.6165010000000  0.6228220000000  0.3759570000000 1.0
C      1  0.6526990000000  0.6225980000000  0.5738900000000 1.0
C      1  0.5237870000000  0.3754110000000  0.6675720000000 1.0
C      1  0.6656990000000  0.3746370000000  0.5299120000000 1.0
C      1  0.5808980000000  0.3757090000000  0.3513290000000 1.0
C      1  0.3835980000000  0.3771410000000  0.3760570000000 1.0
C      1  0.3472220000000  0.3768710000000  0.5737940000000 1.0
C      1  0.4800150000000  0.2350070000000  0.3666070000000 1.0
C      1  0.6207650000000  0.2329250000000  0.4390420000000 1.0
C      1  0.5950970000000  0.2330340000000  0.5958250000000 1.0
C      1  0.4385130000000  0.2343220000000  0.6203910000000 1.0
C      1  0.3684400000000  0.2357380000000  0.4782850000000 1.0
C      1  0.5199580000000  0.7651650000000  0.3669130000000 1.0
C      1  0.3792360000000  0.7672180000000  0.4388490000000 1.0
C      1  0.4050350000000  0.7673300000000  0.5958050000000 1.0
C      1  0.5613930000000  0.7657210000000  0.6203960000000 1.0
C      1  0.6313170000000  0.7637270000000  0.4789220000000 1.0
C      1  0.4878970000000  0.1520430000000  0.4175720000000 1.0
C      1  0.5750560000000  0.1502800000000  0.4627270000000 1.0
C      1  0.5596270000000  0.1498870000000  0.5592860000000 1.0
C      1  0.4629520000000  0.1514830000000  0.5747100000000 1.0
C      1  0.4182440000000  0.1525550000000  0.4872120000000 1.0
C      1  0.5122620000000  0.8477650000000  0.4173590000000 1.0
C      1  0.4249880000000  0.8498090000000  0.4619870000000 1.0
C      1  0.4401360000000  0.8504000000000  0.5590620000000 1.0
C      1  0.5371240000000  0.8483320000000  0.5747840000000 1.0
C      1  0.5815130000000  0.8469220000000  0.4869490000000 1.0
C      1  0.5825940000000  0.4478920000000  0.5235310000000 1.0
C      1  0.5029150000000  0.4489440000000  0.5871910000000 1.0
C      1  0.4179170000000  0.4500310000000  0.5301810000000 1.0
C      1  0.4455530000000  0.4499840000000  0.4319840000000 1.0
C      1  0.5472450000000  0.4484880000000  0.4279680000000 1.0
C      1  0.4173020000000  0.5520150000000  0.5234600000000 1.0
C      1  0.4972680000000  0.5510530000000  0.5868680000000 1.0
C      1  0.5819140000000  0.5498670000000  0.5298450000000 1.0
C      1  0.5543340000000  0.5499610000000  0.4317330000000 1.0
C      1  0.4526860000000  0.5516120000000  0.4278900000000 1.0
C      1  0.7426300000000  0.3721920000000  0.4954450000000 1.0
C      1  0.5833190000000  0.3729550000000  0.7274020000000 1.0
C      1  0.3112680000000  0.3753530000000  0.6502290000000 1.0
C      1  0.3008560000000  0.3744450000000  0.3596080000000 1.0
C      1  0.5727460000000  0.3742940000000  0.2677200000000 1.0
C      1  0.2578270000000  0.6278320000000  0.4955640000000 1.0
C      1  0.4169550000000  0.6268220000000  0.7273290000000 1.0
C      1  0.6885350000000  0.6239580000000  0.6504320000000 1.0
C      1  0.6991910000000  0.6258220000000  0.3591740000000 1.0
C      1  0.4272230000000  0.6257040000000  0.2673500000000 1.0
END
