TITL C-1525613-7943-4296 8.58751043087473e-05 3375 -9629.60508513308 0 0 60 (D5d) n - 1
REM
REM in /home/nfs/bkarasulu/CARBON/AIRSS/Generating-Clusters/ReaxFF-fromJPCA2015/Units_Real/Try2-Higher-symm/Only-C60
REM
REM
REM
REM
REM
REM ./C.cell (863b2abdce7293c0672fb3ba77bf323a)
REM AIRSS Version 0.9.1 bugfix July 2018 build 013d7b7c2542+ Fri, 06 Jul 2018 19:26:36 +0100
REM compiler GCC version 9.2.1 20190827 (Red Hat 9.2.1-1)
REM options -cpp -mtune=generic -march=x86-64 -g -O0 -fpre-include=/usr/include/finclude/math-vector-fortran.h
REM seed 2003307969 -1022077620 -496729479 -1125907133 841040416 1229961074 194446336 185460135 -26157816 -188272820 -747420695 -1155091217 308546642 610376457 -142493387 443647147 1612953254 1951466257 1661102771 -357484643 1895012458 -1808926769 -1133145523 1226069994 414667463 302736544 1024504495 -2145323011 834736283 -281103492 -2091495400 902173026 402586310
REM
CELL 1.54180   15.00000   15.00000   15.00000   90.00000   90.00000   90.00000
LATT -1
SFAC C  
C      1  0.3766770000000  0.2983660000000  0.5635210000000 1.0
C      1  0.6244110000000  0.2989780000000  0.4314040000000 1.0
C      1  0.3766890000000  0.3773400000000  0.3278070000000 1.0
C      1  0.6245090000000  0.5030590000000  0.2876740000000 1.0
C      1  0.3768320000000  0.6259210000000  0.3300790000000 1.0
C      1  0.6246450000000  0.7028210000000  0.4373520000000 1.0
C      1  0.3769080000000  0.7005740000000  0.5671940000000 1.0
C      1  0.6246320000000  0.6221970000000  0.6735900000000 1.0
C      1  0.3768120000000  0.4981370000000  0.7114670000000 1.0
C      1  0.6244870000000  0.3726070000000  0.6699120000000 1.0
C      1  0.6997590000000  0.5336980000000  0.4252440000000 1.0
C      1  0.3002840000000  0.5706220000000  0.4581150000000 1.0
C      1  0.6997990000000  0.5814140000000  0.5090370000000 1.0
C      1  0.3002930000000  0.5617550000000  0.5541330000000 1.0
C      1  0.6997720000000  0.5164660000000  0.5803110000000 1.0
C      1  0.3002410000000  0.4676970000000  0.5753710000000 1.0
C      1  0.6997160000000  0.4286120000000  0.5405670000000 1.0
C      1  0.3002000000000  0.4184320000000  0.4924790000000 1.0
C      1  0.6997080000000  0.4392620000000  0.4447310000000 1.0
C      1  0.3002270000000  0.4820440000000  0.4200110000000 1.0
C      1  0.3753420000000  0.3139480000000  0.3978060000000 1.0
C      1  0.6231380000000  0.4108790000000  0.3081910000000 1.0
C      1  0.3754560000000  0.5397600000000  0.2914180000000 1.0
C      1  0.6232850000000  0.6548210000000  0.3560220000000 1.0
C      1  0.3755790000000  0.7107180000000  0.4733030000000 1.0
C      1  0.6233370000000  0.6847150000000  0.6028090000000 1.0
C      1  0.3755430000000  0.5905650000000  0.6920970000000 1.0
C      1  0.6232230000000  0.4592420000000  0.7074990000000 1.0
C      1  0.3753960000000  0.3453510000000  0.6454390000000 1.0
C      1  0.6231000000000  0.2900040000000  0.5254120000000 1.0
C      1  0.5377280000000  0.7189570000000  0.6300500000000 1.0
C      1  0.4625640000000  0.6011450000000  0.7353480000000 1.0
C      1  0.5375890000000  0.4439570000000  0.7484500000000 1.0
C      1  0.4623900000000  0.3074470000000  0.6689030000000 1.0
C      1  0.5374470000000  0.2463730000000  0.5234910000000 1.0
C      1  0.4623340000000  0.2798780000000  0.3690470000000 1.0
C      1  0.5374980000000  0.3992670000000  0.2660670000000 1.0
C      1  0.4624740000000  0.5565420000000  0.2501650000000 1.0
C      1  0.5376720000000  0.6913340000000  0.3319250000000 1.0
C      1  0.4626170000000  0.7550980000000  0.4765540000000 1.0
C      1  0.4622990000000  0.3464280000000  0.2968410000000 1.0
C      1  0.5374870000000  0.4949280000000  0.2438930000000 1.0
C      1  0.4624680000000  0.6457760000000  0.2911510000000 1.0
C      1  0.5376500000000  0.7419860000000  0.4160510000000 1.0
C      1  0.4625620000000  0.7436950000000  0.5740870000000 1.0
C      1  0.5376390000000  0.6545990000000  0.7042160000000 1.0
C      1  0.4624500000000  0.5048640000000  0.7546490000000 1.0
C      1  0.5374690000000  0.3535350000000  0.7101540000000 1.0
C      1  0.4622870000000  0.2593350000000  0.5833000000000 1.0
C      1  0.5373760000000  0.2548530000000  0.4256610000000 1.0
C      1  0.6565080000000  0.6653560000000  0.5180340000000 1.0
C      1  0.3436780000000  0.6249400000000  0.6100520000000 1.0
C      1  0.6564540000000  0.5338690000000  0.6629070000000 1.0
C      1  0.3435730000000  0.4340190000000  0.6527640000000 1.0
C      1  0.6563400000000  0.3554580000000  0.5826220000000 1.0
C      1  0.3434920000000  0.3343980000000  0.4843850000000 1.0
C      1  0.6563230000000  0.3766820000000  0.3881350000000 1.0
C      1  0.3435450000000  0.4637530000000  0.3376070000000 1.0
C      1  0.6564270000000  0.5682060000000  0.3482180000000 1.0
C      1  0.3436600000000  0.6433190000000  0.4152770000000 1.0
END
