TITL C-1525613-7943-1468 0.00863388551494326 3375 -8258.5349974809 0 0 60 (Ci) n - 1
REM
REM in /home/nfs/bkarasulu/CARBON/AIRSS/Generating-Clusters/ReaxFF-fromJPCA2015/Units_Real/Try2-Higher-symm/Only-C60
REM
REM
REM
REM
REM
REM ./C.cell (863b2abdce7293c0672fb3ba77bf323a)
REM AIRSS Version 0.9.1 bugfix July 2018 build 013d7b7c2542+ Fri, 06 Jul 2018 19:26:36 +0100
REM compiler GCC version 9.2.1 20190827 (Red Hat 9.2.1-1)
REM options -cpp -mtune=generic -march=x86-64 -g -O0 -fpre-include=/usr/include/finclude/math-vector-fortran.h
REM seed -1866364193 -1910315689 41022739 -1854513840 745811434 1515823833 2039635881 -169256324 -1198886689 -819166177 298045251 -1141536673 -105628298 433055437 -204951932 2061341559 1585515971 -1835223970 861933506 291864222 1698079064 -1076069654 1484873962 552420747 -754945468 1076439208 966158921 1186709968 -51611537 435316113 -433736096 1828866243 -880347816
REM
CELL 1.54180   15.00000   15.00000   15.00000   90.00000   90.00000   90.00000
LATT -1
SFAC C  
C      1  0.4822020000000  0.7249640000000  0.2756210000000 1.0
C      1  0.6250850000000  0.2634620000000  0.2872020000000 1.0
C      1  0.7115590000000  0.7222780000000  0.4204620000000 1.0
C      1  0.7420530000000  0.2803260000000  0.5349800000000 1.0
C      1  0.6528740000000  0.7247040000000  0.6825950000000 1.0
C      1  0.5177570000000  0.2747700000000  0.7245930000000 1.0
C      1  0.3745330000000  0.7370470000000  0.7120920000000 1.0
C      1  0.2880310000000  0.2778420000000  0.5795450000000 1.0
C      1  0.2577680000000  0.7196770000000  0.4651890000000 1.0
C      1  0.3465110000000  0.2749520000000  0.3174640000000 1.0
C      1  0.6795840000000  0.4710010000000  0.7196390000000 1.0
C      1  0.5232670000000  0.5369270000000  0.7258750000000 1.0
C      1  0.3778620000000  0.4892970000000  0.6726510000000 1.0
C      1  0.2320480000000  0.5297170000000  0.5963590000000 1.0
C      1  0.2862130000000  0.4827960000000  0.4427710000000 1.0
C      1  0.3220100000000  0.5299480000000  0.2809230000000 1.0
C      1  0.4761670000000  0.4642970000000  0.2744040000000 1.0
C      1  0.6221180000000  0.5105640000000  0.3274040000000 1.0
C      1  0.7679480000000  0.4700650000000  0.4035110000000 1.0
C      1  0.7142500000000  0.5170930000000  0.5572660000000 1.0
C      1  0.5584460000000  0.6578720000000  0.4612240000000 1.0
C      1  0.5795550000000  0.3381970000000  0.4952010000000 1.0
C      1  0.5562950000000  0.6637120000000  0.5562460000000 1.0
C      1  0.5275180000000  0.3445240000000  0.5738440000000 1.0
C      1  0.4685520000000  0.6699610000000  0.5851180000000 1.0
C      1  0.4413840000000  0.3415170000000  0.5386630000000 1.0
C      1  0.4203030000000  0.6613630000000  0.5046010000000 1.0
C      1  0.4434920000000  0.3359260000000  0.4437320000000 1.0
C      1  0.4723890000000  0.6545960000000  0.4261260000000 1.0
C      1  0.5312090000000  0.3299100000000  0.4147780000000 1.0
C      1  0.7141600000000  0.5074290000000  0.3369620000000 1.0
C      1  0.7731890000000  0.4814600000000  0.4956300000000 1.0
C      1  0.7269990000000  0.5115320000000  0.6489790000000 1.0
C      1  0.5953300000000  0.4884030000000  0.7604740000000 1.0
C      1  0.4339000000000  0.5178910000000  0.7402550000000 1.0
C      1  0.2858820000000  0.4924270000000  0.6629450000000 1.0
C      1  0.2269940000000  0.5182430000000  0.5041780000000 1.0
C      1  0.2746460000000  0.4895400000000  0.3508960000000 1.0
C      1  0.4047270000000  0.5129750000000  0.2407840000000 1.0
C      1  0.5657890000000  0.4822770000000  0.2599600000000 1.0
C      1  0.5660120000000  0.3224740000000  0.3112250000000 1.0
C      1  0.6531410000000  0.6603180000000  0.4049930000000 1.0
C      1  0.6907720000000  0.3341730000000  0.4958310000000 1.0
C      1  0.6450410000000  0.6642410000000  0.6213820000000 1.0
C      1  0.5570450000000  0.3359950000000  0.6781740000000 1.0
C      1  0.4335820000000  0.6780020000000  0.6884210000000 1.0
C      1  0.3467650000000  0.3395490000000  0.5950030000000 1.0
C      1  0.3090390000000  0.6656370000000  0.5040280000000 1.0
C      1  0.3547050000000  0.3355930000000  0.3785400000000 1.0
C      1  0.4429110000000  0.6626490000000  0.3214010000000 1.0
C      1  0.4653480000000  0.6049410000000  0.7511270000000 1.0
C      1  0.3297650000000  0.4100750000000  0.6654870000000 1.0
C      1  0.2345330000000  0.6061210000000  0.5390250000000 1.0
C      1  0.2827500000000  0.4057240000000  0.3909080000000 1.0
C      1  0.3834080000000  0.5987860000000  0.2689620000000 1.0
C      1  0.5341670000000  0.3957040000000  0.2490990000000 1.0
C      1  0.6703350000000  0.5898750000000  0.3344870000000 1.0
C      1  0.7653300000000  0.3936800000000  0.4608140000000 1.0
C      1  0.7176490000000  0.5946400000000  0.6087190000000 1.0
C      1  0.6171010000000  0.4003410000000  0.7312290000000 1.0
END
