TITL C-1525613-7943-6302 0.000303483465980204 3375 -8855.9021313412 0 0 60 (Cs) n - 1
REM
REM in /home/nfs/bkarasulu/CARBON/AIRSS/Generating-Clusters/ReaxFF-fromJPCA2015/Units_Real/Try2-Higher-symm/Only-C60
REM
REM
REM
REM
REM
REM ./C.cell (863b2abdce7293c0672fb3ba77bf323a)
REM AIRSS Version 0.9.1 bugfix July 2018 build 013d7b7c2542+ Fri, 06 Jul 2018 19:26:36 +0100
REM compiler GCC version 9.2.1 20190827 (Red Hat 9.2.1-1)
REM options -cpp -mtune=generic -march=x86-64 -g -O0 -fpre-include=/usr/include/finclude/math-vector-fortran.h
REM seed 23763483 -1265005340 -912436587 -1753108727 1939782097 -888764350 -1212985275 1808958836 1100901343 766410506 -1977436910 1371519558 1230628205 -2117125476 -233201572 -2021388072 1285932863 1816538273 1958083101 1152945946 -1404642734 1092111797 1242373805 959676313 -909939445 -1873420097 -852553804 -598968558 -1467297890 1402769632 -1575846963 -1341754769 1269943501
REM
CELL 1.54180   15.00000   15.00000   15.00000   90.00000   90.00000   90.00000
LATT -1
SFAC C  
C      1  0.5547730000000  0.5824750000000  0.3224990000000 1.0
C      1  0.3468580000000  0.5834650000000  0.3936270000000 1.0
C      1  0.3504570000000  0.5827860000000  0.6131920000000 1.0
C      1  0.5614630000000  0.5831510000000  0.6756500000000 1.0
C      1  0.6854020000000  0.5824120000000  0.4956930000000 1.0
C      1  0.5547730000000  0.4175250000000  0.3224990000000 1.0
C      1  0.3468580000000  0.4165350000000  0.3936270000000 1.0
C      1  0.3504570000000  0.4172140000000  0.6131920000000 1.0
C      1  0.5614630000000  0.4168490000000  0.6756500000000 1.0
C      1  0.6854020000000  0.4175880000000  0.4956930000000 1.0
C      1  0.4954110000000  0.4477250000000  0.7423210000000 1.0
C      1  0.7286550000000  0.4477450000000  0.5791260000000 1.0
C      1  0.6475150000000  0.4477090000000  0.3068450000000 1.0
C      1  0.3617570000000  0.4477570000000  0.3010650000000 1.0
C      1  0.2672040000000  0.4476760000000  0.5698500000000 1.0
C      1  0.4954110000000  0.5522750000000  0.7423210000000 1.0
C      1  0.7286550000000  0.5522550000000  0.5791260000000 1.0
C      1  0.6475150000000  0.5522910000000  0.3068450000000 1.0
C      1  0.3617570000000  0.5522430000000  0.3010650000000 1.0
C      1  0.2672040000000  0.5523240000000  0.5698500000000 1.0
C      1  0.6662110000000  0.6660290000000  0.4457180000000 1.0
C      1  0.5003650000000  0.6657140000000  0.3253540000000 1.0
C      1  0.3330330000000  0.6668030000000  0.4461530000000 1.0
C      1  0.3972690000000  0.6657590000000  0.6414530000000 1.0
C      1  0.6033220000000  0.6666700000000  0.6413700000000 1.0
C      1  0.6662110000000  0.3339710000000  0.4457180000000 1.0
C      1  0.5003650000000  0.3342860000000  0.3253540000000 1.0
C      1  0.3330330000000  0.3331970000000  0.4461530000000 1.0
C      1  0.3972690000000  0.3342410000000  0.6414530000000 1.0
C      1  0.6033220000000  0.3333300000000  0.6413700000000 1.0
C      1  0.4272390000000  0.4488100000000  0.4496150000000 1.0
C      1  0.4277790000000  0.4504860000000  0.5543590000000 1.0
C      1  0.5278160000000  0.4488840000000  0.5835040000000 1.0
C      1  0.5883660000000  0.4511770000000  0.4970360000000 1.0
C      1  0.5280070000000  0.4501150000000  0.4163150000000 1.0
C      1  0.4272390000000  0.5511900000000  0.4496150000000 1.0
C      1  0.4277790000000  0.5495140000000  0.5543590000000 1.0
C      1  0.5278160000000  0.5511160000000  0.5835040000000 1.0
C      1  0.5883660000000  0.5488230000000  0.4970360000000 1.0
C      1  0.5280070000000  0.5498850000000  0.4163150000000 1.0
C      1  0.2744220000000  0.3800920000000  0.5047680000000 1.0
C      1  0.4350060000000  0.3807620000000  0.7154950000000 1.0
C      1  0.6851460000000  0.3801440000000  0.6280230000000 1.0
C      1  0.6803340000000  0.3800850000000  0.3635330000000 1.0
C      1  0.4267170000000  0.3811290000000  0.2874370000000 1.0
C      1  0.2744220000000  0.6199080000000  0.5047680000000 1.0
C      1  0.4350060000000  0.6192380000000  0.7154950000000 1.0
C      1  0.6851460000000  0.6198560000000  0.6280230000000 1.0
C      1  0.6803340000000  0.6199150000000  0.3635330000000 1.0
C      1  0.4267170000000  0.6188710000000  0.2874370000000 1.0
C      1  0.5493620000000  0.2923290000000  0.5660910000000 1.0
C      1  0.5780030000000  0.2925290000000  0.4734990000000 1.0
C      1  0.4987870000000  0.2926260000000  0.4176510000000 1.0
C      1  0.4209510000000  0.2923620000000  0.4755340000000 1.0
C      1  0.4523690000000  0.2927850000000  0.5672230000000 1.0
C      1  0.5493620000000  0.7076710000000  0.5660910000000 1.0
C      1  0.5780030000000  0.7074710000000  0.4734990000000 1.0
C      1  0.4987870000000  0.7073740000000  0.4176510000000 1.0
C      1  0.4209510000000  0.7076380000000  0.4755340000000 1.0
C      1  0.4523690000000  0.7072150000000  0.5672230000000 1.0
END
