TITL C-1525613-7943-5205 0.0039725088732782 3375 -8694.75323734337 0 0 60 (C1) n - 1
REM
REM in /home/nfs/bkarasulu/CARBON/AIRSS/Generating-Clusters/ReaxFF-fromJPCA2015/Units_Real/Try2-Higher-symm/Only-C60
REM
REM
REM
REM
REM
REM ./C.cell (863b2abdce7293c0672fb3ba77bf323a)
REM AIRSS Version 0.9.1 bugfix July 2018 build 013d7b7c2542+ Fri, 06 Jul 2018 19:26:36 +0100
REM compiler GCC version 9.2.1 20190827 (Red Hat 9.2.1-1)
REM options -cpp -mtune=generic -march=x86-64 -g -O0 -fpre-include=/usr/include/finclude/math-vector-fortran.h
REM seed 506923765 -1542058063 1251866530 -1847338693 -513369968 321873468 1429270544 -573260173 1953358771 281440651 892235219 123813217 -366603137 -24214414 1966249749 -1364696577 188726173 1031854513 411015820 1581974719 -817951710 664104409 1195937989 -114316632 -2039480418 940959471 2136251646 2036247778 -1081214086 -344993301 -987058679 -694493670 552798915
REM
CELL 1.54180   15.00000   15.00000   15.00000   90.00000   90.00000   90.00000
LATT -1
SFAC C  
C      1  0.7019270000000  0.4418470000000  0.5636470000000 1.0
C      1  0.5082320000000  0.2866230000000  0.5677080000000 1.0
C      1  0.3003890000000  0.4234780000000  0.5689380000000 1.0
C      1  0.3668390000000  0.6629530000000  0.5649190000000 1.0
C      1  0.6136340000000  0.6711730000000  0.5931280000000 1.0
C      1  0.7014990000000  0.5578280000000  0.4365890000000 1.0
C      1  0.5072290000000  0.7120260000000  0.4273140000000 1.0
C      1  0.3010670000000  0.5766870000000  0.4313410000000 1.0
C      1  0.3688460000000  0.3367790000000  0.4344200000000 1.0
C      1  0.6147630000000  0.3288460000000  0.4059610000000 1.0
C      1  0.6772010000000  0.3571500000000  0.5480330000000 1.0
C      1  0.4179610000000  0.2821060000000  0.5536070000000 1.0
C      1  0.2700150000000  0.5089390000000  0.5480230000000 1.0
C      1  0.4311050000000  0.7258440000000  0.5458530000000 1.0
C      1  0.6862060000000  0.6314620000000  0.5494590000000 1.0
C      1  0.6773080000000  0.6426540000000  0.4518140000000 1.0
C      1  0.4182980000000  0.7193380000000  0.4492660000000 1.0
C      1  0.2705210000000  0.4911110000000  0.4519890000000 1.0
C      1  0.4319340000000  0.2727680000000  0.4572040000000 1.0
C      1  0.6868950000000  0.3685580000000  0.4506170000000 1.0
C      1  0.4837210000000  0.3732760000000  0.7186510000000 1.0
C      1  0.3767680000000  0.4749970000000  0.7237550000000 1.0
C      1  0.4371310000000  0.6238470000000  0.7369880000000 1.0
C      1  0.5940780000000  0.5941880000000  0.7067870000000 1.0
C      1  0.6319410000000  0.4379580000000  0.7315070000000 1.0
C      1  0.4838680000000  0.6263260000000  0.2814880000000 1.0
C      1  0.3771560000000  0.5253750000000  0.2769820000000 1.0
C      1  0.4369400000000  0.3760760000000  0.2631240000000 1.0
C      1  0.5945630000000  0.4055300000000  0.2927140000000 1.0
C      1  0.6325620000000  0.5612550000000  0.2675440000000 1.0
C      1  0.3644620000000  0.4341440000000  0.2880300000000 1.0
C      1  0.3930710000000  0.6154590000000  0.2872200000000 1.0
C      1  0.5750230000000  0.6361360000000  0.2935940000000 1.0
C      1  0.6583660000000  0.4714620000000  0.3004420000000 1.0
C      1  0.5257520000000  0.3435330000000  0.2983900000000 1.0
C      1  0.3642870000000  0.5660350000000  0.7120830000000 1.0
C      1  0.3929290000000  0.3849640000000  0.7142740000000 1.0
C      1  0.5744870000000  0.3631620000000  0.7052330000000 1.0
C      1  0.6577120000000  0.5280860000000  0.6993950000000 1.0
C      1  0.5257300000000  0.6566150000000  0.7018500000000 1.0
C      1  0.3362030000000  0.5809080000000  0.6041750000000 1.0
C      1  0.5199270000000  0.6828440000000  0.5996250000000 1.0
C      1  0.6846110000000  0.5286160000000  0.5967240000000 1.0
C      1  0.5853770000000  0.3314320000000  0.6009360000000 1.0
C      1  0.3671330000000  0.3661190000000  0.6083520000000 1.0
C      1  0.3364440000000  0.4186050000000  0.3959400000000 1.0
C      1  0.5207950000000  0.3186590000000  0.4007270000000 1.0
C      1  0.6856270000000  0.4710310000000  0.4031320000000 1.0
C      1  0.5866490000000  0.6685440000000  0.3972030000000 1.0
C      1  0.3681700000000  0.6344610000000  0.3934180000000 1.0
C      1  0.4397270000000  0.5581850000000  0.4161940000000 1.0
C      1  0.5321760000000  0.5774740000000  0.4432990000000 1.0
C      1  0.5819000000000  0.4924880000000  0.4490750000000 1.0
C      1  0.5101280000000  0.4203190000000  0.4491530000000 1.0
C      1  0.4257520000000  0.4667140000000  0.4247030000000 1.0
C      1  0.4389360000000  0.4423650000000  0.5841070000000 1.0
C      1  0.5312190000000  0.4225360000000  0.5577860000000 1.0
C      1  0.5811010000000  0.5081040000000  0.5499400000000 1.0
C      1  0.5099820000000  0.5801940000000  0.5503880000000 1.0
C      1  0.4257240000000  0.5338140000000  0.5752440000000 1.0
END
