TITL C-1525613-7943-1121 -0.00243749278691657 3375 -9444.12677733859 0 0 60 (C1) n - 1
REM
REM in /home/nfs/bkarasulu/CARBON/AIRSS/Generating-Clusters/ReaxFF-fromJPCA2015/Units_Real/Try2-Higher-symm/Only-C60
REM
REM
REM
REM
REM
REM ./C.cell (863b2abdce7293c0672fb3ba77bf323a)
REM AIRSS Version 0.9.1 bugfix July 2018 build 013d7b7c2542+ Fri, 06 Jul 2018 19:26:36 +0100
REM compiler GCC version 9.2.1 20190827 (Red Hat 9.2.1-1)
REM options -cpp -mtune=generic -march=x86-64 -g -O0 -fpre-include=/usr/include/finclude/math-vector-fortran.h
REM seed 1489975388 783908726 -1022234352 1310724222 -1718245353 179214765 -266350104 1423013935 472541305 1776130964 -89403035 -1751132832 2097915097 -255928020 -727883552 -1356386534 1592925482 -474022576 551820548 -1891342341 1461882925 1414655987 -1688571126 -618629755 -1693731367 1807910310 -1610672823 -90572243 2058014506 -828696051 -405695537 -1442465099 1636350740
REM
CELL 1.54180   15.00000   15.00000   15.00000   90.00000   90.00000   90.00000
LATT -1
SFAC C  
C      1  0.3732080000000  0.5233760000000  0.2856170000000 1.0
C      1  0.6206840000000  0.6530680000000  0.3366310000000 1.0
C      1  0.3714590000000  0.7229260000000  0.4664550000000 1.0
C      1  0.6324380000000  0.7112000000000  0.5963210000000 1.0
C      1  0.3784820000000  0.6145580000000  0.6775170000000 1.0
C      1  0.6220290000000  0.4775610000000  0.7237430000000 1.0
C      1  0.3737980000000  0.3501370000000  0.6599740000000 1.0
C      1  0.6258870000000  0.2799540000000  0.5461830000000 1.0
C      1  0.3775520000000  0.2852840000000  0.4041800000000 1.0
C      1  0.6247740000000  0.3901070000000  0.3049870000000 1.0
C      1  0.6860470000000  0.5887290000000  0.6259310000000 1.0
C      1  0.3116510000000  0.5031340000000  0.6341340000000 1.0
C      1  0.6857480000000  0.4104210000000  0.6228340000000 1.0
C      1  0.3117690000000  0.3452360000000  0.5383300000000 1.0
C      1  0.6875470000000  0.3576500000000  0.4514010000000 1.0
C      1  0.3098140000000  0.4006440000000  0.3732640000000 1.0
C      1  0.6850050000000  0.5046790000000  0.3491760000000 1.0
C      1  0.3070760000000  0.5846260000000  0.3898820000000 1.0
C      1  0.6863630000000  0.6473330000000  0.4570530000000 1.0
C      1  0.3080740000000  0.5853900000000  0.5263090000000 1.0
C      1  0.4605990000000  0.2626570000000  0.5441100000000 1.0
C      1  0.5430400000000  0.2821650000000  0.3981960000000 1.0
C      1  0.4594160000000  0.3826480000000  0.2917020000000 1.0
C      1  0.5371100000000  0.5303170000000  0.2672350000000 1.0
C      1  0.4546880000000  0.6611410000000  0.3362510000000 1.0
C      1  0.5409340000000  0.7372220000000  0.4612040000000 1.0
C      1  0.4702110000000  0.7430760000000  0.6170530000000 1.0
C      1  0.5397210000000  0.6196380000000  0.7079580000000 1.0
C      1  0.4566200000000  0.4746490000000  0.7284410000000 1.0
C      1  0.5388050000000  0.3383080000000  0.6728080000000 1.0
C      1  0.5354180000000  0.6213710000000  0.3005660000000 1.0
C      1  0.4563050000000  0.7192180000000  0.4151150000000 1.0
C      1  0.5504350000000  0.7480520000000  0.5570180000000 1.0
C      1  0.4605820000000  0.6650210000000  0.6785910000000 1.0
C      1  0.5379990000000  0.5263800000000  0.7344820000000 1.0
C      1  0.4567340000000  0.3817450000000  0.7004370000000 1.0
C      1  0.5409510000000  0.2809790000000  0.5949010000000 1.0
C      1  0.4619810000000  0.2621070000000  0.4472900000000 1.0
C      1  0.5417480000000  0.3410260000000  0.3214330000000 1.0
C      1  0.4572830000000  0.4761400000000  0.2667420000000 1.0
C      1  0.6852790000000  0.4998040000000  0.6533300000000 1.0
C      1  0.3113600000000  0.4076690000000  0.6107310000000 1.0
C      1  0.6869610000000  0.3563290000000  0.5462690000000 1.0
C      1  0.3115140000000  0.3419120000000  0.4469620000000 1.0
C      1  0.6867390000000  0.4141300000000  0.3765290000000 1.0
C      1  0.3109620000000  0.4934160000000  0.3529240000000 1.0
C      1  0.6841650000000  0.5927230000000  0.3798290000000 1.0
C      1  0.3131010000000  0.6368690000000  0.4670910000000 1.0
C      1  0.6911090000000  0.6471290000000  0.5511340000000 1.0
C      1  0.3089590000000  0.5935820000000  0.6128750000000 1.0
C      1  0.6223950000000  0.3851490000000  0.6926520000000 1.0
C      1  0.3752150000000  0.2872900000000  0.5847580000000 1.0
C      1  0.6269120000000  0.2810020000000  0.4485810000000 1.0
C      1  0.3764000000000  0.3458050000000  0.3276730000000 1.0
C      1  0.6226270000000  0.4835660000000  0.2773100000000 1.0
C      1  0.3712880000000  0.6138330000000  0.3188420000000 1.0
C      1  0.6230020000000  0.7096720000000  0.4161080000000 1.0
C      1  0.4101050000000  0.7455600000000  0.5461360000000 1.0
C      1  0.6261920000000  0.6502460000000  0.6722330000000 1.0
C      1  0.3757310000000  0.5244400000000  0.7065780000000 1.0
END
