TITL C-1525613-7943-6097 0.0200816731218778 3375 -8385.67571564738 0 0 60 (C1) n - 1
REM
REM in /home/nfs/bkarasulu/CARBON/AIRSS/Generating-Clusters/ReaxFF-fromJPCA2015/Units_Real/Try2-Higher-symm/Only-C60
REM
REM
REM
REM
REM
REM ./C.cell (863b2abdce7293c0672fb3ba77bf323a)
REM AIRSS Version 0.9.1 bugfix July 2018 build 013d7b7c2542+ Fri, 06 Jul 2018 19:26:36 +0100
REM compiler GCC version 9.2.1 20190827 (Red Hat 9.2.1-1)
REM options -cpp -mtune=generic -march=x86-64 -g -O0 -fpre-include=/usr/include/finclude/math-vector-fortran.h
REM seed 1321198804 1718522510 1950189973 -1099395422 -1767580241 -131291622 -416984847 -625798688 2081393951 1666925596 -946076781 797957808 -576244282 -1391140763 813140884 -1844026796 647624565 1260115261 -1035334358 240277646 1832784614 -1944120083 2089169706 405433052 -117103837 -1344880989 182451139 -472432171 200687715 -639504907 1315249409 211651060 1458135022
REM
CELL 1.54180   15.00000   15.00000   15.00000   90.00000   90.00000   90.00000
LATT -1
SFAC C  
C      1  0.4699440000000  0.5413330000000  0.3130120000000 1.0
C      1  0.5679250000000  0.5398050000000  0.3354170000000 1.0
C      1  0.6632750000000  0.5416360000000  0.4277850000000 1.0
C      1  0.6847340000000  0.5421510000000  0.5255800000000 1.0
C      1  0.6288640000000  0.5415280000000  0.6300810000000 1.0
C      1  0.5300470000000  0.5413300000000  0.6869690000000 1.0
C      1  0.4320550000000  0.5398060000000  0.6645840000000 1.0
C      1  0.3367330000000  0.5416130000000  0.5722170000000 1.0
C      1  0.3152740000000  0.5421360000000  0.4744240000000 1.0
C      1  0.3711450000000  0.5415360000000  0.3698830000000 1.0
C      1  0.6590010000000  0.6358090000000  0.6593280000000 1.0
C      1  0.5368330000000  0.6375940000000  0.7271220000000 1.0
C      1  0.4020710000000  0.6328830000000  0.6979110000000 1.0
C      1  0.3027950000000  0.6352180000000  0.5998550000000 1.0
C      1  0.2767400000000  0.6390590000000  0.4648930000000 1.0
C      1  0.3410130000000  0.6357790000000  0.3406490000000 1.0
C      1  0.4631640000000  0.6376140000000  0.2728540000000 1.0
C      1  0.5979230000000  0.6328990000000  0.3020740000000 1.0
C      1  0.6971730000000  0.6351970000000  0.4001430000000 1.0
C      1  0.7232420000000  0.6390680000000  0.5351190000000 1.0
C      1  0.6777800000000  0.4683740000000  0.6717220000000 1.0
C      1  0.5469360000000  0.4608660000000  0.7534560000000 1.0
C      1  0.3971460000000  0.4605690000000  0.7149390000000 1.0
C      1  0.2864080000000  0.4641840000000  0.6118090000000 1.0
C      1  0.2469090000000  0.4647410000000  0.4630460000000 1.0
C      1  0.3222500000000  0.4683340000000  0.3283070000000 1.0
C      1  0.4530520000000  0.4608870000000  0.2465000000000 1.0
C      1  0.6028410000000  0.4605580000000  0.2850710000000 1.0
C      1  0.7135700000000  0.4641850000000  0.3882090000000 1.0
C      1  0.7530950000000  0.4647540000000  0.5369500000000 1.0
C      1  0.6874150000000  0.3691530000000  0.6635540000000 1.0
C      1  0.5387930000000  0.3733840000000  0.7180110000000 1.0
C      1  0.4016570000000  0.3638490000000  0.7028930000000 1.0
C      1  0.3039540000000  0.3681020000000  0.6065840000000 1.0
C      1  0.2725850000000  0.3728530000000  0.4709660000000 1.0
C      1  0.3125850000000  0.3691270000000  0.3364520000000 1.0
C      1  0.4612460000000  0.3734230000000  0.2819960000000 1.0
C      1  0.5983780000000  0.3638450000000  0.2971280000000 1.0
C      1  0.6960630000000  0.3681010000000  0.3934230000000 1.0
C      1  0.7274120000000  0.3728690000000  0.5290440000000 1.0
C      1  0.3676720000000  0.3019620000000  0.5816480000000 1.0
C      1  0.3395460000000  0.3057450000000  0.4855750000000 1.0
C      1  0.3718810000000  0.3091370000000  0.3927300000000 1.0
C      1  0.4580670000000  0.3050510000000  0.3458220000000 1.0
C      1  0.5564780000000  0.2981890000000  0.3529620000000 1.0
C      1  0.6323390000000  0.3019600000000  0.4183580000000 1.0
C      1  0.6604670000000  0.3057710000000  0.5144420000000 1.0
C      1  0.6281060000000  0.3091750000000  0.6072880000000 1.0
C      1  0.5419230000000  0.3049760000000  0.6542180000000 1.0
C      1  0.4435220000000  0.2981810000000  0.6470560000000 1.0
C      1  0.3527420000000  0.6826660000000  0.6492280000000 1.0
C      1  0.2902280000000  0.6875510000000  0.5330280000000 1.0
C      1  0.3103080000000  0.6857080000000  0.4028530000000 1.0
C      1  0.4023000000000  0.6853840000000  0.3074970000000 1.0
C      1  0.5320210000000  0.6855390000000  0.2864490000000 1.0
C      1  0.6472610000000  0.6826570000000  0.3507660000000 1.0
C      1  0.7097730000000  0.6875610000000  0.4669460000000 1.0
C      1  0.6896840000000  0.6857150000000  0.5971270000000 1.0
C      1  0.5976780000000  0.6853900000000  0.6924900000000 1.0
C      1  0.4679740000000  0.6855320000000  0.7135570000000 1.0
END
