TITL C-1525613-7943-7028 -0.00940027533192968 3375 -8899.45504052378 0 0 60 (C1) n - 1
REM
REM in /home/nfs/bkarasulu/CARBON/AIRSS/Generating-Clusters/ReaxFF-fromJPCA2015/Units_Real/Try2-Higher-symm/Only-C60
REM
REM
REM
REM
REM
REM ./C.cell (863b2abdce7293c0672fb3ba77bf323a)
REM AIRSS Version 0.9.1 bugfix July 2018 build 013d7b7c2542+ Fri, 06 Jul 2018 19:26:36 +0100
REM compiler GCC version 9.2.1 20190827 (Red Hat 9.2.1-1)
REM options -cpp -mtune=generic -march=x86-64 -g -O0 -fpre-include=/usr/include/finclude/math-vector-fortran.h
REM seed 275057807 1372793427 1918983199 148365111 1987191225 -1102020140 -228344622 -1897930915 588579214 306194034 1005075729 1708770547 -1715723462 1726655628 -1860766715 1996222608 -800506968 -1936172281 1413104017 1507257464 -2102454996 -952371177 1258930686 -238794068 636913409 590915943 1532275591 -1401331900 -1557664034 1999688205 -1101814449 -406785944 1807424227
REM
CELL 1.54180   15.00000   15.00000   15.00000   90.00000   90.00000   90.00000
LATT -1
SFAC C  
C      1  0.3595320000000  0.6753040000000  0.5407350000000 1.0
C      1  0.6171610000000  0.6914210000000  0.5530140000000 1.0
C      1  0.7199760000000  0.4484720000000  0.5471300000000 1.0
C      1  0.5248890000000  0.2801450000000  0.5466530000000 1.0
C      1  0.3030240000000  0.4130460000000  0.5468030000000 1.0
C      1  0.3575210000000  0.3295550000000  0.4502030000000 1.0
C      1  0.6173200000000  0.3123650000000  0.4455500000000 1.0
C      1  0.7215740000000  0.5532020000000  0.4528510000000 1.0
C      1  0.5245090000000  0.7216030000000  0.4478760000000 1.0
C      1  0.3040910000000  0.5859600000000  0.4462170000000 1.0
C      1  0.4838970000000  0.3672160000000  0.3444640000000 1.0
C      1  0.3249400000000  0.4993320000000  0.3055150000000 1.0
C      1  0.4562890000000  0.6024540000000  0.3205820000000 1.0
C      1  0.5930270000000  0.6096230000000  0.3576250000000 1.0
C      1  0.6258830000000  0.4519510000000  0.3423160000000 1.0
C      1  0.4823930000000  0.6237410000000  0.6401870000000 1.0
C      1  0.3332350000000  0.5040480000000  0.6910740000000 1.0
C      1  0.4622860000000  0.4006490000000  0.7029560000000 1.0
C      1  0.6075220000000  0.3846040000000  0.6598680000000 1.0
C      1  0.6263460000000  0.5521660000000  0.6585270000000 1.0
C      1  0.5638270000000  0.5280800000000  0.7305800000000 1.0
C      1  0.5527950000000  0.4309800000000  0.7256060000000 1.0
C      1  0.3892190000000  0.4486420000000  0.7391130000000 1.0
C      1  0.3977420000000  0.5404620000000  0.7514680000000 1.0
C      1  0.4830200000000  0.5820910000000  0.7288030000000 1.0
C      1  0.5622830000000  0.4769100000000  0.2704430000000 1.0
C      1  0.5467360000000  0.5717020000000  0.2830270000000 1.0
C      1  0.3875700000000  0.5577750000000  0.2707510000000 1.0
C      1  0.3972260000000  0.4685700000000  0.2479620000000 1.0
C      1  0.4811820000000  0.4218750000000  0.2645780000000 1.0
C      1  0.4668840000000  0.4116710000000  0.6051630000000 1.0
C      1  0.4247380000000  0.4990910000000  0.5501160000000 1.0
C      1  0.4973470000000  0.5667350000000  0.5611790000000 1.0
C      1  0.5779400000000  0.5163100000000  0.5801600000000 1.0
C      1  0.5580030000000  0.4235610000000  0.5863290000000 1.0
C      1  0.4588860000000  0.5584430000000  0.4110890000000 1.0
C      1  0.4290290000000  0.4808480000000  0.4542710000000 1.0
C      1  0.4996820000000  0.4224180000000  0.4253350000000 1.0
C      1  0.5773010000000  0.4789980000000  0.4242920000000 1.0
C      1  0.5490990000000  0.5699650000000  0.4371190000000 1.0
C      1  0.6273800000000  0.6989130000000  0.4577480000000 1.0
C      1  0.7206750000000  0.4495840000000  0.4506330000000 1.0
C      1  0.5225070000000  0.2767780000000  0.4506800000000 1.0
C      1  0.2997110000000  0.4139730000000  0.4504910000000 1.0
C      1  0.3665680000000  0.6711480000000  0.4421560000000 1.0
C      1  0.6208710000000  0.3112640000000  0.5413950000000 1.0
C      1  0.7195460000000  0.5512110000000  0.5494840000000 1.0
C      1  0.5214180000000  0.7262060000000  0.5453790000000 1.0
C      1  0.3037720000000  0.5937980000000  0.5414470000000 1.0
C      1  0.3582360000000  0.3308960000000  0.5480090000000 1.0
C      1  0.3255230000000  0.5050740000000  0.5919860000000 1.0
C      1  0.4407520000000  0.6971580000000  0.5929720000000 1.0
C      1  0.6674750000000  0.6194940000000  0.6012620000000 1.0
C      1  0.6800290000000  0.3708150000000  0.5964930000000 1.0
C      1  0.4457320000000  0.3185720000000  0.5935070000000 1.0
C      1  0.3022230000000  0.4994710000000  0.4000170000000 1.0
C      1  0.4391490000000  0.3012720000000  0.4006470000000 1.0
C      1  0.6699850000000  0.3828250000000  0.3954630000000 1.0
C      1  0.6743370000000  0.6275630000000  0.4080720000000 1.0
C      1  0.4481890000000  0.6920010000000  0.3946300000000 1.0
END
