TITL C-1525613-7943-6942 -0.216919307965698 3375 -8701.35826602162 0 0 60 (C2) n - 1
REM
REM in /home/nfs/bkarasulu/CARBON/AIRSS/Generating-Clusters/ReaxFF-fromJPCA2015/Units_Real/Try2-Higher-symm/Only-C60
REM
REM
REM
REM
REM
REM ./C.cell (863b2abdce7293c0672fb3ba77bf323a)
REM AIRSS Version 0.9.1 bugfix July 2018 build 013d7b7c2542+ Fri, 06 Jul 2018 19:26:36 +0100
REM compiler GCC version 9.2.1 20190827 (Red Hat 9.2.1-1)
REM options -cpp -mtune=generic -march=x86-64 -g -O0 -fpre-include=/usr/include/finclude/math-vector-fortran.h
REM seed 586724418 -414553085 1356842718 1781857897 665222178 1089535409 1370989019 -1052630359 218772083 -1464161602 -465566606 1880276785 873673481 -590163147 -662808759 1834848397 1474698090 -626642267 -968809905 -791330377 -143822785 1542467466 1044793942 -757175666 1673009337 1865094647 1442224468 1982563120 -1896855076 1736405926 692546050 -2023457900 2037014907
REM
CELL 1.54180   15.00000   15.00000   15.00000   90.00000   90.00000   90.00000
LATT -1
SFAC C  
C      1  0.3731920000000  0.3389060000000  0.3566330000000 1.0
C      1  0.3703550000000  0.2872610000000  0.4796870000000 1.0
C      1  0.3693270000000  0.3183550000000  0.6095860000000 1.0
C      1  0.3684760000000  0.4178550000000  0.6988200000000 1.0
C      1  0.3650730000000  0.5500310000000  0.7153480000000 1.0
C      1  0.3733090000000  0.6616730000000  0.6430340000000 1.0
C      1  0.3703530000000  0.7127260000000  0.5202160000000 1.0
C      1  0.3696280000000  0.6816450000000  0.3903830000000 1.0
C      1  0.3689970000000  0.5817760000000  0.3012200000000 1.0
C      1  0.3653050000000  0.4499340000000  0.2844400000000 1.0
C      1  0.5714200000000  0.5613340000000  0.7302720000000 1.0
C      1  0.5717940000000  0.6849710000000  0.6526630000000 1.0
C      1  0.5761890000000  0.7456660000000  0.5169440000000 1.0
C      1  0.5723940000000  0.7019210000000  0.3721470000000 1.0
C      1  0.5751270000000  0.5896010000000  0.2746180000000 1.0
C      1  0.5716900000000  0.4393550000000  0.2699840000000 1.0
C      1  0.5722850000000  0.3152330000000  0.3479230000000 1.0
C      1  0.5759450000000  0.2558430000000  0.4833670000000 1.0
C      1  0.5741870000000  0.2967930000000  0.6282970000000 1.0
C      1  0.5752580000000  0.4107530000000  0.7253630000000 1.0
C      1  0.4144940000000  0.7430440000000  0.4439760000000 1.0
C      1  0.4150590000000  0.6625000000000  0.3103500000000 1.0
C      1  0.4133920000000  0.5197210000000  0.2485490000000 1.0
C      1  0.4127540000000  0.3784980000000  0.2931280000000 1.0
C      1  0.4162290000000  0.2701500000000  0.4004910000000 1.0
C      1  0.4144590000000  0.2571940000000  0.5559960000000 1.0
C      1  0.4151710000000  0.3378000000000  0.6891810000000 1.0
C      1  0.4139520000000  0.4796200000000  0.7510810000000 1.0
C      1  0.4153320000000  0.6209190000000  0.7059140000000 1.0
C      1  0.4165840000000  0.7304530000000  0.5991540000000 1.0
C      1  0.5220030000000  0.7555370000000  0.4361210000000 1.0
C      1  0.5208620000000  0.6659250000000  0.3010550000000 1.0
C      1  0.5201710000000  0.5162260000000  0.2390360000000 1.0
C      1  0.5214950000000  0.3583220000000  0.2778150000000 1.0
C      1  0.5207080000000  0.2570710000000  0.4031820000000 1.0
C      1  0.5220800000000  0.2446640000000  0.5641780000000 1.0
C      1  0.5215060000000  0.3343660000000  0.6981080000000 1.0
C      1  0.5202200000000  0.4838690000000  0.7611990000000 1.0
C      1  0.5215280000000  0.6406620000000  0.7205660000000 1.0
C      1  0.5207800000000  0.7433180000000  0.5968640000000 1.0
C      1  0.6336200000000  0.6584530000000  0.5080800000000 1.0
C      1  0.6350290000000  0.6323090000000  0.4140940000000 1.0
C      1  0.6342540000000  0.5563050000000  0.3533190000000 1.0
C      1  0.6327350000000  0.4592760000000  0.3493700000000 1.0
C      1  0.6338210000000  0.3771630000000  0.4027360000000 1.0
C      1  0.6363980000000  0.3408590000000  0.4921920000000 1.0
C      1  0.6366130000000  0.3669550000000  0.5861160000000 1.0
C      1  0.6342800000000  0.4435230000000  0.6463660000000 1.0
C      1  0.6327680000000  0.5405390000000  0.6504550000000 1.0
C      1  0.6335250000000  0.6224180000000  0.5974690000000 1.0
C      1  0.4945100000000  0.4075220000000  0.5765440000000 1.0
C      1  0.4889120000000  0.4613470000000  0.6337320000000 1.0
C      1  0.4697890000000  0.5538270000000  0.6306810000000 1.0
C      1  0.4831390000000  0.5953540000000  0.5638060000000 1.0
C      1  0.4968970000000  0.6374990000000  0.4953870000000 1.0
C      1  0.4963420000000  0.5933370000000  0.4247390000000 1.0
C      1  0.4892760000000  0.5398280000000  0.3669060000000 1.0
C      1  0.4725490000000  0.4455500000000  0.3688590000000 1.0
C      1  0.4829480000000  0.4042410000000  0.4367480000000 1.0
C      1  0.4935130000000  0.3622030000000  0.5055110000000 1.0
END
