TITL C-1525613-7943-451 -0.00512555141805624 3375 -8677.29877868106 0 0 60 (C5) n - 1
REM
REM in /home/nfs/bkarasulu/CARBON/AIRSS/Generating-Clusters/ReaxFF-fromJPCA2015/Units_Real/Try2-Higher-symm/Only-C60
REM
REM
REM
REM
REM
REM ./C.cell (863b2abdce7293c0672fb3ba77bf323a)
REM AIRSS Version 0.9.1 bugfix July 2018 build 013d7b7c2542+ Fri, 06 Jul 2018 19:26:36 +0100
REM compiler GCC version 9.2.1 20190827 (Red Hat 9.2.1-1)
REM options -cpp -mtune=generic -march=x86-64 -g -O0 -fpre-include=/usr/include/finclude/math-vector-fortran.h
REM seed 73376555 2088705474 -1964848873 -804991314 1795697413 -285326913 536108696 -843217272 799175533 -2100103162 -968811274 -1373702555 1804854839 1419783994 394543034 -43806457 -1979701207 157735418 1396993078 2068869961 -541425609 1825145497 -1938859894 -1239966482 -404713488 1317686226 -373270844 -1606571912 -1874979331 2084003292 717933444 -206330499 -1539989515
REM
CELL 1.54180   15.00000   15.00000   15.00000   90.00000   90.00000   90.00000
LATT -1
SFAC C  
C      1  0.3190700000000  0.4067530000000  0.3707920000000 1.0
C      1  0.3190890000000  0.5940470000000  0.3714400000000 1.0
C      1  0.3190780000000  0.6514620000000  0.5498370000000 1.0
C      1  0.3190290000000  0.4993700000000  0.6595850000000 1.0
C      1  0.3189610000000  0.3480810000000  0.5488100000000 1.0
C      1  0.3190690000000  0.4067520000000  0.6292070000000 1.0
C      1  0.3190900000000  0.5940500000000  0.6285600000000 1.0
C      1  0.3190780000000  0.6514660000000  0.4501590000000 1.0
C      1  0.3190300000000  0.4993690000000  0.3404120000000 1.0
C      1  0.3189580000000  0.3480800000000  0.4511920000000 1.0
C      1  0.4780470000000  0.4061020000000  0.6284140000000 1.0
C      1  0.4784350000000  0.3487320000000  0.4502010000000 1.0
C      1  0.4786380000000  0.5007610000000  0.3406340000000 1.0
C      1  0.4785460000000  0.6516220000000  0.4514790000000 1.0
C      1  0.4781210000000  0.5930420000000  0.6291450000000 1.0
C      1  0.4780500000000  0.4061040000000  0.3715860000000 1.0
C      1  0.4784350000000  0.3487310000000  0.5497980000000 1.0
C      1  0.4786370000000  0.5007600000000  0.6593620000000 1.0
C      1  0.4785440000000  0.6516210000000  0.5485270000000 1.0
C      1  0.4781170000000  0.5930410000000  0.3708570000000 1.0
C      1  0.6096900000000  0.4756870000000  0.7345530000000 1.0
C      1  0.6098820000000  0.2693950000000  0.5494040000000 1.0
C      1  0.6089690000000  0.3819280000000  0.2965860000000 1.0
C      1  0.6089150000000  0.6569450000000  0.3248950000000 1.0
C      1  0.6093900000000  0.7153240000000  0.5953990000000 1.0
C      1  0.6096930000000  0.4756840000000  0.2654460000000 1.0
C      1  0.6098820000000  0.2693950000000  0.4505970000000 1.0
C      1  0.6089670000000  0.3819300000000  0.7034130000000 1.0
C      1  0.6089180000000  0.6569480000000  0.6751060000000 1.0
C      1  0.6094040000000  0.7153320000000  0.4045930000000 1.0
C      1  0.3976170000000  0.6423770000000  0.6638620000000 1.0
C      1  0.3977040000000  0.3882640000000  0.6860340000000 1.0
C      1  0.3975550000000  0.2881350000000  0.4506790000000 1.0
C      1  0.3973050000000  0.4817820000000  0.2828780000000 1.0
C      1  0.3973500000000  0.7007210000000  0.4155680000000 1.0
C      1  0.3976210000000  0.6423770000000  0.3361530000000 1.0
C      1  0.3977040000000  0.3882640000000  0.3139670000000 1.0
C      1  0.3975560000000  0.2881330000000  0.5493170000000 1.0
C      1  0.3973040000000  0.4817820000000  0.7171210000000 1.0
C      1  0.3973520000000  0.7007150000000  0.5844410000000 1.0
C      1  0.6705490000000  0.5002980000000  0.3398950000000 1.0
C      1  0.6703430000000  0.6521500000000  0.4509420000000 1.0
C      1  0.6701140000000  0.5935380000000  0.6295590000000 1.0
C      1  0.6701360000000  0.4057330000000  0.6290360000000 1.0
C      1  0.6705140000000  0.3479540000000  0.4502410000000 1.0
C      1  0.6705470000000  0.5003010000000  0.6601030000000 1.0
C      1  0.6703360000000  0.6521480000000  0.5490540000000 1.0
C      1  0.6701110000000  0.5935350000000  0.3704410000000 1.0
C      1  0.6701370000000  0.4057310000000  0.3709630000000 1.0
C      1  0.6705140000000  0.3479540000000  0.5497600000000 1.0
C      1  0.5258100000000  0.2782390000000  0.4003640000000 1.0
C      1  0.5257920000000  0.5263980000000  0.2580010000000 1.0
C      1  0.5255560000000  0.7379020000000  0.4505990000000 1.0
C      1  0.5248800000000  0.6198680000000  0.7100320000000 1.0
C      1  0.5249200000000  0.3374090000000  0.6786990000000 1.0
C      1  0.5258090000000  0.2782380000000  0.5996360000000 1.0
C      1  0.5257920000000  0.5264000000000  0.7419970000000 1.0
C      1  0.5255390000000  0.7378720000000  0.5493900000000 1.0
C      1  0.5248760000000  0.6198600000000  0.2899780000000 1.0
C      1  0.5249210000000  0.3374100000000  0.3213020000000 1.0
END
