TITL C-1525613-7943-4387 0.00134561558184001 3375 -8453.91602248713 0 0 60 (D5d) n - 1
REM
REM in /home/nfs/bkarasulu/CARBON/AIRSS/Generating-Clusters/ReaxFF-fromJPCA2015/Units_Real/Try2-Higher-symm/Only-C60
REM
REM
REM
REM
REM
REM ./C.cell (863b2abdce7293c0672fb3ba77bf323a)
REM AIRSS Version 0.9.1 bugfix July 2018 build 013d7b7c2542+ Fri, 06 Jul 2018 19:26:36 +0100
REM compiler GCC version 9.2.1 20190827 (Red Hat 9.2.1-1)
REM options -cpp -mtune=generic -march=x86-64 -g -O0 -fpre-include=/usr/include/finclude/math-vector-fortran.h
REM seed 1278110657 -1682331559 -1598654114 747471601 -546698164 970677783 -1842380030 1533023010 2055265238 -719978237 1162848226 1060216515 1852314160 -1908324556 1660601602 -1900860467 -1741606205 -1585151809 1215737293 113613565 -2041064513 1694247201 1849178298 1201826076 -56272090 -1283343375 -1686041603 -124954613 834402580 894272008 1072225185 -1621925426 1304333535
REM
CELL 1.54180   15.00000   15.00000   15.00000   90.00000   90.00000   90.00000
LATT -1
SFAC C  
C      1  0.5887770000000  0.2975540000000  0.4013370000000 1.0
C      1  0.6296300000000  0.7025350000000  0.4722410000000 1.0
C      1  0.6207390000000  0.2972930000000  0.5536760000000 1.0
C      1  0.5660630000000  0.7027710000000  0.6143250000000 1.0
C      1  0.4860790000000  0.2974700000000  0.6317940000000 1.0
C      1  0.4112210000000  0.7024450000000  0.5986560000000 1.0
C      1  0.3703690000000  0.2974670000000  0.5277600000000 1.0
C      1  0.3792610000000  0.7027060000000  0.4463250000000 1.0
C      1  0.4339420000000  0.2972290000000  0.3856690000000 1.0
C      1  0.5139220000000  0.7025300000000  0.3682070000000 1.0
C      1  0.5708240000000  0.3876470000000  0.5315560000000 1.0
C      1  0.5388520000000  0.6124050000000  0.5670630000000 1.0
C      1  0.4920080000000  0.3877290000000  0.5771390000000 1.0
C      1  0.4481780000000  0.6122140000000  0.5576230000000 1.0
C      1  0.4241620000000  0.3877130000000  0.5161410000000 1.0
C      1  0.4291760000000  0.6123550000000  0.4684460000000 1.0
C      1  0.4611470000000  0.3876010000000  0.4329390000000 1.0
C      1  0.5079920000000  0.6122710000000  0.4228630000000 1.0
C      1  0.5518210000000  0.3877930000000  0.4423790000000 1.0
C      1  0.5758360000000  0.6122850000000  0.4838590000000 1.0
C      1  0.3037640000000  0.3378990000000  0.4690060000000 1.0
C      1  0.3599110000000  0.6621300000000  0.3596970000000 1.0
C      1  0.4692410000000  0.3377810000000  0.3041990000000 1.0
C      1  0.5903730000000  0.6620440000000  0.3230200000000 1.0
C      1  0.6772130000000  0.3379530000000  0.4097130000000 1.0
C      1  0.6962370000000  0.6621000000000  0.5309940000000 1.0
C      1  0.6400890000000  0.3378710000000  0.6403050000000 1.0
C      1  0.5307610000000  0.6622170000000  0.6957960000000 1.0
C      1  0.4096280000000  0.3379550000000  0.6769790000000 1.0
C      1  0.3227860000000  0.6620450000000  0.5902870000000 1.0
C      1  0.6664810000000  0.6620780000000  0.3914250000000 1.0
C      1  0.6980290000000  0.3378120000000  0.5099300000000 1.0
C      1  0.6542750000000  0.6622220000000  0.6244100000000 1.0
C      1  0.5515580000000  0.3379050000000  0.6918000000000 1.0
C      1  0.4288920000000  0.6620840000000  0.6857310000000 1.0
C      1  0.3335190000000  0.3379220000000  0.6085750000000 1.0
C      1  0.3019710000000  0.6621860000000  0.4900690000000 1.0
C      1  0.3457270000000  0.3377760000000  0.3755930000000 1.0
C      1  0.4484420000000  0.6620940000000  0.3082010000000 1.0
C      1  0.5711090000000  0.3379160000000  0.3142640000000 1.0
C      1  0.3012750000000  0.5983860000000  0.4117160000000 1.0
C      1  0.3912250000000  0.4015560000000  0.3118110000000 1.0
C      1  0.5227270000000  0.5982900000000  0.2833410000000 1.0
C      1  0.6458350000000  0.4017200000000  0.3378620000000 1.0
C      1  0.7130880000000  0.5983050000000  0.4544760000000 1.0
C      1  0.6987250000000  0.4016140000000  0.5882850000000 1.0
C      1  0.6087740000000  0.5984430000000  0.6881920000000 1.0
C      1  0.4772730000000  0.4017100000000  0.7166600000000 1.0
C      1  0.3541640000000  0.5982770000000  0.6621400000000 1.0
C      1  0.2869110000000  0.4016960000000  0.5455250000000 1.0
C      1  0.4845570000000  0.4722790000000  0.6467370000000 1.0
C      1  0.4012240000000  0.5277150000000  0.6098710000000 1.0
C      1  0.3556960000000  0.4722600000000  0.5309480000000 1.0
C      1  0.3653730000000  0.5277300000000  0.4403030000000 1.0
C      1  0.4263450000000  0.4722280000000  0.3725420000000 1.0
C      1  0.5154420000000  0.5277210000000  0.3532640000000 1.0
C      1  0.5987750000000  0.4722850000000  0.3901290000000 1.0
C      1  0.6443050000000  0.5277420000000  0.4690510000000 1.0
C      1  0.6346260000000  0.4722700000000  0.5596970000000 1.0
C      1  0.5736560000000  0.5277720000000  0.6274590000000 1.0
END
