TITL C-1525613-7943-3225 -0.39187005612277 3375 -8856.31078460662 0 0 60 (S10) n - 1
REM
REM in /home/nfs/bkarasulu/CARBON/AIRSS/Generating-Clusters/ReaxFF-fromJPCA2015/Units_Real/Try2-Higher-symm/Only-C60
REM
REM
REM
REM
REM
REM ./C.cell (863b2abdce7293c0672fb3ba77bf323a)
REM AIRSS Version 0.9.1 bugfix July 2018 build 013d7b7c2542+ Fri, 06 Jul 2018 19:26:36 +0100
REM compiler GCC version 9.2.1 20190827 (Red Hat 9.2.1-1)
REM options -cpp -mtune=generic -march=x86-64 -g -O0 -fpre-include=/usr/include/finclude/math-vector-fortran.h
REM seed 1052628117 2040008946 -499184282 -1882472530 645525957 -1393169985 1038176448 -148389953 -194744965 -998485484 332770032 1318314690 476665890 -214439201 -1527224899 -1582136746 1636255057 -1388409453 1249632947 -1894692803 -69212203 -202355651 -1838394543 621776587 -1696663995 -1556650121 -1008149587 1766946649 -1196449762 -115059465 968519083 -1430727195 -1504089101
REM
CELL 1.54180   15.00000   15.00000   15.00000   90.00000   90.00000   90.00000
LATT -1
SFAC C  
C      1  0.5174080000000  0.4546510000000  0.3122840000000 1.0
C      1  0.4040680000000  0.5451970000000  0.3380450000000 1.0
C      1  0.3270760000000  0.4548060000000  0.4254300000000 1.0
C      1  0.3161060000000  0.5452150000000  0.5414220000000 1.0
C      1  0.3754900000000  0.4550100000000  0.6413040000000 1.0
C      1  0.4825920000000  0.5453490000000  0.6877160000000 1.0
C      1  0.5959320000000  0.4548030000000  0.6619550000000 1.0
C      1  0.6729240000000  0.5451940000000  0.5745700000000 1.0
C      1  0.6838940000000  0.4547850000000  0.4585780000000 1.0
C      1  0.6245100000000  0.5449900000000  0.3586960000000 1.0
C      1  0.4281160000000  0.4134360000000  0.5655420000000 1.0
C      1  0.4802890000000  0.5867430000000  0.5955930000000 1.0
C      1  0.5403200000000  0.4133290000000  0.5886440000000 1.0
C      1  0.5845790000000  0.5866560000000  0.5482510000000 1.0
C      1  0.5968530000000  0.4131960000000  0.4891050000000 1.0
C      1  0.5718840000000  0.5865640000000  0.4344580000000 1.0
C      1  0.5197110000000  0.4132570000000  0.4044070000000 1.0
C      1  0.4596800000000  0.5866710000000  0.4113560000000 1.0
C      1  0.4154210000000  0.4133440000000  0.4517490000000 1.0
C      1  0.4031470000000  0.5868040000000  0.5108950000000 1.0
C      1  0.5810550000000  0.2481070000000  0.5156150000000 1.0
C      1  0.5749420000000  0.7518350000000  0.4651250000000 1.0
C      1  0.5401320000000  0.2480220000000  0.4278740000000 1.0
C      1  0.4898140000000  0.7519390000000  0.4180280000000 1.0
C      1  0.4437140000000  0.2480070000000  0.4395200000000 1.0
C      1  0.4189450000000  0.7518930000000  0.4843850000000 1.0
C      1  0.4250580000000  0.2481650000000  0.5348750000000 1.0
C      1  0.4598680000000  0.7519780000000  0.5721260000000 1.0
C      1  0.5101860000000  0.2480610000000  0.5819720000000 1.0
C      1  0.5562860000000  0.7519930000000  0.5604800000000 1.0
C      1  0.5639570000000  0.3267780000000  0.3709620000000 1.0
C      1  0.4759040000000  0.6730950000000  0.3580110000000 1.0
C      1  0.3971580000000  0.3269160000000  0.3991590000000 1.0
C      1  0.3574450000000  0.6731700000000  0.4789260000000 1.0
C      1  0.3725220000000  0.3269620000000  0.5666220000000 1.0
C      1  0.4360430000000  0.6732220000000  0.6290380000000 1.0
C      1  0.5240960000000  0.3269050000000  0.6419890000000 1.0
C      1  0.6028420000000  0.6730840000000  0.6008410000000 1.0
C      1  0.6425550000000  0.3268300000000  0.5210740000000 1.0
C      1  0.6274780000000  0.6730380000000  0.4333780000000 1.0
C      1  0.3186660000000  0.5391680000000  0.6381740000000 1.0
C      1  0.4344040000000  0.4608630000000  0.7184650000000 1.0
C      1  0.5752030000000  0.5390500000000  0.7151110000000 1.0
C      1  0.6875500000000  0.4606100000000  0.6299510000000 1.0
C      1  0.7280180000000  0.5391400000000  0.4948040000000 1.0
C      1  0.6813340000000  0.4608320000000  0.3618260000000 1.0
C      1  0.5655960000000  0.5391370000000  0.2815350000000 1.0
C      1  0.4247970000000  0.4609500000000  0.2848890000000 1.0
C      1  0.3124500000000  0.5393900000000  0.3700490000000 1.0
C      1  0.2719820000000  0.4608600000000  0.5051960000000 1.0
C      1  0.7016850000000  0.6253980000000  0.4654680000000 1.0
C      1  0.6429340000000  0.3744610000000  0.3533720000000 1.0
C      1  0.5293860000000  0.6256600000000  0.2974210000000 1.0
C      1  0.4048520000000  0.3744030000000  0.3187010000000 1.0
C      1  0.3165950000000  0.6254930000000  0.4095310000000 1.0
C      1  0.2983150000000  0.3746020000000  0.5345320000000 1.0
C      1  0.3570660000000  0.6255390000000  0.6466280000000 1.0
C      1  0.4706140000000  0.3743400000000  0.7025790000000 1.0
C      1  0.5951480000000  0.6255970000000  0.6812990000000 1.0
C      1  0.6834050000000  0.3745070000000  0.5904690000000 1.0
END
