TITL C-1525613-7943-230 -0.00159408756574053 3375 -9846.93225884014 0 0 60 (D5) n - 1
REM
REM in /home/nfs/bkarasulu/CARBON/AIRSS/Generating-Clusters/ReaxFF-fromJPCA2015/Units_Real/Try2-Higher-symm/Only-C60
REM
REM
REM
REM
REM
REM ./C.cell (863b2abdce7293c0672fb3ba77bf323a)
REM AIRSS Version 0.9.1 bugfix July 2018 build 013d7b7c2542+ Fri, 06 Jul 2018 19:26:36 +0100
REM compiler GCC version 9.2.1 20190827 (Red Hat 9.2.1-1)
REM options -cpp -mtune=generic -march=x86-64 -g -O0 -fpre-include=/usr/include/finclude/math-vector-fortran.h
REM seed -1750952358 -486515268 -1938646009 -1195746005 -1032584284 634362788 661416845 -312937766 -419844803 1095442390 -398534976 193525409 -1816981016 -81316008 2100149522 1184649161 473778721 1865003880 -1729441522 -819192664 598949493 -1070746831 48713716 -1903007464 696315820 -867175438 -1913793840 876236895 -1141951493 -1463020762 1280680634 283635754 -1322126980
REM
CELL 1.54180   15.00000   15.00000   15.00000   90.00000   90.00000   90.00000
LATT -1
SFAC C  
C      1  0.6176580000000  0.4710220000000  0.7362690000000 1.0
C      1  0.7610680000000  0.4710350000000  0.4611110000000 1.0
C      1  0.5436880000000  0.4710500000000  0.2396890000000 1.0
C      1  0.2659380000000  0.4710530000000  0.3780100000000 1.0
C      1  0.3116500000000  0.4710090000000  0.6849090000000 1.0
C      1  0.6176580000000  0.5289780000000  0.2637310000000 1.0
C      1  0.7610680000000  0.5289650000000  0.5388890000000 1.0
C      1  0.5436880000000  0.5289500000000  0.7603110000000 1.0
C      1  0.2659380000000  0.5289470000000  0.6219900000000 1.0
C      1  0.3116500000000  0.5289910000000  0.3150910000000 1.0
C      1  0.5720740000000  0.3094680000000  0.4634350000000 1.0
C      1  0.4875100000000  0.3094760000000  0.4201420000000 1.0
C      1  0.4202090000000  0.3094700000000  0.4871880000000 1.0
C      1  0.4631710000000  0.3094610000000  0.5719180000000 1.0
C      1  0.5570310000000  0.3094620000000  0.5572380000000 1.0
C      1  0.5720740000000  0.6905320000000  0.5365650000000 1.0
C      1  0.4875100000000  0.6905240000000  0.5798580000000 1.0
C      1  0.4202090000000  0.6905300000000  0.5128120000000 1.0
C      1  0.4631710000000  0.6905390000000  0.4280820000000 1.0
C      1  0.5570310000000  0.6905380000000  0.4427620000000 1.0
C      1  0.3352240000000  0.3890730000000  0.6378370000000 1.0
C      1  0.5801800000000  0.3890850000000  0.6992960000000 1.0
C      1  0.7143310000000  0.3890940000000  0.4853250000000 1.0
C      1  0.5522820000000  0.3891060000000  0.2916160000000 1.0
C      1  0.3179870000000  0.3891130000000  0.3858790000000 1.0
C      1  0.3352240000000  0.6109270000000  0.3621630000000 1.0
C      1  0.5801800000000  0.6109150000000  0.3007040000000 1.0
C      1  0.7143310000000  0.6109060000000  0.5146750000000 1.0
C      1  0.5522820000000  0.6108940000000  0.7083840000000 1.0
C      1  0.3179870000000  0.6108870000000  0.6141210000000 1.0
C      1  0.6971680000000  0.6078870000000  0.4194840000000 1.0
C      1  0.4843460000000  0.6079080000000  0.2876020000000 1.0
C      1  0.2931570000000  0.6078960000000  0.4492620000000 1.0
C      1  0.3878180000000  0.6078620000000  0.6810470000000 1.0
C      1  0.6375130000000  0.6078840000000  0.6626470000000 1.0
C      1  0.6971680000000  0.3921130000000  0.5805160000000 1.0
C      1  0.4843460000000  0.3920920000000  0.7123980000000 1.0
C      1  0.2931570000000  0.3921040000000  0.5507380000000 1.0
C      1  0.3878180000000  0.3921380000000  0.3189530000000 1.0
C      1  0.6375130000000  0.3921160000000  0.3373530000000 1.0
C      1  0.4619470000000  0.5231800000000  0.2450240000000 1.0
C      1  0.2457460000000  0.5231660000000  0.4574060000000 1.0
C      1  0.3809160000000  0.5231280000000  0.7286490000000 1.0
C      1  0.6806570000000  0.5231510000000  0.6839140000000 1.0
C      1  0.7307340000000  0.5231600000000  0.3850170000000 1.0
C      1  0.4619470000000  0.4768200000000  0.7549760000000 1.0
C      1  0.2457460000000  0.4768340000000  0.5425940000000 1.0
C      1  0.3809160000000  0.4768720000000  0.2713510000000 1.0
C      1  0.6806570000000  0.4768490000000  0.3160860000000 1.0
C      1  0.7307340000000  0.4768400000000  0.6149830000000 1.0
C      1  0.6178270000000  0.3516230000000  0.6183450000000 1.0
C      1  0.6489790000000  0.3516260000000  0.4245000000000 1.0
C      1  0.4742410000000  0.3516430000000  0.3349750000000 1.0
C      1  0.3351080000000  0.3516290000000  0.4734910000000 1.0
C      1  0.4238460000000  0.3516090000000  0.6486280000000 1.0
C      1  0.6178270000000  0.6483770000000  0.3816550000000 1.0
C      1  0.6489790000000  0.6483740000000  0.5755000000000 1.0
C      1  0.4742410000000  0.6483570000000  0.6650250000000 1.0
C      1  0.3351080000000  0.6483710000000  0.5265090000000 1.0
C      1  0.4238460000000  0.6483910000000  0.3513720000000 1.0
END
