TITL C-1525613-7943-5717 -0.00260269220801473 3375 -8854.37966645369 0 0 60 (Cs) n - 1
REM
REM in /home/nfs/bkarasulu/CARBON/AIRSS/Generating-Clusters/ReaxFF-fromJPCA2015/Units_Real/Try2-Higher-symm/Only-C60
REM
REM
REM
REM
REM
REM ./C.cell (863b2abdce7293c0672fb3ba77bf323a)
REM AIRSS Version 0.9.1 bugfix July 2018 build 013d7b7c2542+ Fri, 06 Jul 2018 19:26:36 +0100
REM compiler GCC version 9.2.1 20190827 (Red Hat 9.2.1-1)
REM options -cpp -mtune=generic -march=x86-64 -g -O0 -fpre-include=/usr/include/finclude/math-vector-fortran.h
REM seed -630987202 55442367 -201331083 1493116615 787137635 -2082755123 2003455301 -694083953 -2075822419 1973968954 -1057159339 -992095300 -203054451 -1090654973 -609541771 -416111459 -1945520391 929791511 -1911609085 456819129 -408741808 -1241057440 1520016253 -490127579 271927460 -632467680 -171527423 -1620392696 -2131106724 1004627493 -524949091 1293172041 -1809670997
REM
CELL 1.54180   15.00000   15.00000   15.00000   90.00000   90.00000   90.00000
LATT -1
SFAC C  
C      1  0.3679830000000  0.7139210000000  0.5936830000000 1.0
C      1  0.3575480000000  0.4776320000000  0.7252690000000 1.0
C      1  0.3449740000000  0.2705260000000  0.5489070000000 1.0
C      1  0.3528500000000  0.3838090000000  0.3019110000000 1.0
C      1  0.3760680000000  0.6489380000000  0.3333260000000 1.0
C      1  0.3679890000000  0.7139160000000  0.4063350000000 1.0
C      1  0.3575770000000  0.4776180000000  0.2747590000000 1.0
C      1  0.3449830000000  0.2705260000000  0.4511310000000 1.0
C      1  0.3528240000000  0.3838210000000  0.6981240000000 1.0
C      1  0.3760530000000  0.6489480000000  0.6666950000000 1.0
C      1  0.4466170000000  0.5184970000000  0.7135350000000 1.0
C      1  0.4327380000000  0.2818760000000  0.5922390000000 1.0
C      1  0.4369240000000  0.3414050000000  0.3308570000000 1.0
C      1  0.4622600000000  0.6098160000000  0.3094830000000 1.0
C      1  0.4549600000000  0.7201040000000  0.5491490000000 1.0
C      1  0.4466480000000  0.5184850000000  0.2865010000000 1.0
C      1  0.4327530000000  0.2818730000000  0.4078100000000 1.0
C      1  0.4368990000000  0.3414110000000  0.6691870000000 1.0
C      1  0.4622450000000  0.6098270000000  0.6905490000000 1.0
C      1  0.4549640000000  0.7201010000000  0.4508780000000 1.0
C      1  0.4991080000000  0.3379090000000  0.5469420000000 1.0
C      1  0.5023670000000  0.3966060000000  0.3788520000000 1.0
C      1  0.5311650000000  0.5791180000000  0.3809190000000 1.0
C      1  0.5038320000000  0.6343730000000  0.5457830000000 1.0
C      1  0.5044940000000  0.4875380000000  0.6438120000000 1.0
C      1  0.4991220000000  0.3379060000000  0.4531080000000 1.0
C      1  0.5023420000000  0.3966120000000  0.6211950000000 1.0
C      1  0.5311490000000  0.5791170000000  0.6191190000000 1.0
C      1  0.5038330000000  0.6343690000000  0.4542510000000 1.0
C      1  0.5045270000000  0.4875300000000  0.3562230000000 1.0
C      1  0.6806470000000  0.6521370000000  0.4534200000000 1.0
C      1  0.6444280000000  0.5939860000000  0.6230420000000 1.0
C      1  0.7009650000000  0.4209100000000  0.6238450000000 1.0
C      1  0.7006680000000  0.3635890000000  0.4516910000000 1.0
C      1  0.7009370000000  0.5145650000000  0.3527490000000 1.0
C      1  0.6806480000000  0.6521140000000  0.5466390000000 1.0
C      1  0.6444340000000  0.5940480000000  0.3769840000000 1.0
C      1  0.7011190000000  0.4210150000000  0.3760180000000 1.0
C      1  0.7005590000000  0.3635480000000  0.5481240000000 1.0
C      1  0.7008980000000  0.5144480000000  0.6471790000000 1.0
C      1  0.3063130000000  0.5917650000000  0.3768860000000 1.0
C      1  0.2989530000000  0.6569510000000  0.5490490000000 1.0
C      1  0.2895010000000  0.5017810000000  0.6570420000000 1.0
C      1  0.2824210000000  0.3479920000000  0.5496840000000 1.0
C      1  0.2866530000000  0.4067870000000  0.3724320000000 1.0
C      1  0.3063030000000  0.5917710000000  0.6231320000000 1.0
C      1  0.2989570000000  0.6569480000000  0.4509640000000 1.0
C      1  0.2895210000000  0.5017710000000  0.3429780000000 1.0
C      1  0.2824280000000  0.3479910000000  0.4503430000000 1.0
C      1  0.2866370000000  0.4067950000000  0.6275900000000 1.0
C      1  0.7068800000000  0.3378930000000  0.6885310000000 1.0
C      1  0.7054650000000  0.2785240000000  0.3900830000000 1.0
C      1  0.7256420000000  0.5508650000000  0.2593160000000 1.0
C      1  0.7211050000000  0.7477780000000  0.4498890000000 1.0
C      1  0.6755060000000  0.6324240000000  0.7187480000000 1.0
C      1  0.7072510000000  0.3380580000000  0.3112740000000 1.0
C      1  0.7051580000000  0.2784250000000  0.6096700000000 1.0
C      1  0.7256440000000  0.5506350000000  0.7406420000000 1.0
C      1  0.7211010000000  0.7477540000000  0.5502180000000 1.0
C      1  0.6754600000000  0.6326000000000  0.2813050000000 1.0
END
