TITL C-1525613-7943-2039 0.157704648919947 3375 -8666.4757402846 0 0 60 (C1) n - 1
REM
REM in /home/nfs/bkarasulu/CARBON/AIRSS/Generating-Clusters/ReaxFF-fromJPCA2015/Units_Real/Try2-Higher-symm/Only-C60
REM
REM
REM
REM
REM
REM ./C.cell (863b2abdce7293c0672fb3ba77bf323a)
REM AIRSS Version 0.9.1 bugfix July 2018 build 013d7b7c2542+ Fri, 06 Jul 2018 19:26:36 +0100
REM compiler GCC version 9.2.1 20190827 (Red Hat 9.2.1-1)
REM options -cpp -mtune=generic -march=x86-64 -g -O0 -fpre-include=/usr/include/finclude/math-vector-fortran.h
REM seed 1212323642 1080428089 1166356952 713713774 -1941319594 1256635726 718439213 349238447 331457191 -1728962630 1856921980 -1542283180 -1034887998 -126568134 967501431 1754322178 -66994577 307751313 -1290236588 2073756649 -1242732746 737068426 1129353220 -240520426 867635557 -69669794 -1965500958 1912391869 2038115245 178718568 976535520 -703527341 -250164875
REM
CELL 1.54180   15.00000   15.00000   15.00000   90.00000   90.00000   90.00000
LATT -1
SFAC C  
C      1  0.5397670000000  0.6723920000000  0.6578080000000 1.0
C      1  0.5420600000000  0.7028370000000  0.3827690000000 1.0
C      1  0.5408520000000  0.4530710000000  0.2726610000000 1.0
C      1  0.5381340000000  0.2723140000000  0.4723840000000 1.0
C      1  0.5398430000000  0.4036540000000  0.7121710000000 1.0
C      1  0.5399060000000  0.3265690000000  0.6574070000000 1.0
C      1  0.5421040000000  0.2972090000000  0.3827060000000 1.0
C      1  0.5409970000000  0.5468600000000  0.2726370000000 1.0
C      1  0.5379740000000  0.7271020000000  0.4725650000000 1.0
C      1  0.5390020000000  0.5954610000000  0.7111100000000 1.0
C      1  0.3332510000000  0.6297950000000  0.5952000000000 1.0
C      1  0.3258680000000  0.6281510000000  0.4079510000000 1.0
C      1  0.3321440000000  0.4509070000000  0.3532840000000 1.0
C      1  0.3273400000000  0.3406430000000  0.5016270000000 1.0
C      1  0.3305310000000  0.4493580000000  0.6538020000000 1.0
C      1  0.3331270000000  0.3703740000000  0.5949600000000 1.0
C      1  0.3256550000000  0.3720370000000  0.4080310000000 1.0
C      1  0.3320970000000  0.5492220000000  0.3532390000000 1.0
C      1  0.3291360000000  0.6595170000000  0.5015020000000 1.0
C      1  0.3346660000000  0.5508660000000  0.6540690000000 1.0
C      1  0.3672430000000  0.4249410000000  0.7392270000000 1.0
C      1  0.3739480000000  0.7043930000000  0.6438140000000 1.0
C      1  0.3598320000000  0.7060700000000  0.3505260000000 1.0
C      1  0.3750420000000  0.4159710000000  0.2719080000000 1.0
C      1  0.3700630000000  0.2520170000000  0.5004160000000 1.0
C      1  0.3712600000000  0.5744090000000  0.7407130000000 1.0
C      1  0.3741870000000  0.2959050000000  0.6437620000000 1.0
C      1  0.3599170000000  0.2937540000000  0.3510220000000 1.0
C      1  0.3750570000000  0.5839710000000  0.2719190000000 1.0
C      1  0.3694710000000  0.7492660000000  0.5007990000000 1.0
C      1  0.4448950000000  0.7457670000000  0.4911120000000 1.0
C      1  0.4501420000000  0.5741110000000  0.2653330000000 1.0
C      1  0.4563570000000  0.2864270000000  0.3346860000000 1.0
C      1  0.4494660000000  0.2990480000000  0.6513550000000 1.0
C      1  0.4473530000000  0.5811240000000  0.7350620000000 1.0
C      1  0.4457330000000  0.2528690000000  0.4915110000000 1.0
C      1  0.4503180000000  0.4259530000000  0.2653520000000 1.0
C      1  0.4564040000000  0.7135530000000  0.3346220000000 1.0
C      1  0.4490480000000  0.7020750000000  0.6516500000000 1.0
C      1  0.4509860000000  0.4193570000000  0.7368150000000 1.0
C      1  0.6170940000000  0.7189070000000  0.5234500000000 1.0
C      1  0.6210530000000  0.5907160000000  0.2977910000000 1.0
C      1  0.6222400000000  0.3352060000000  0.3516450000000 1.0
C      1  0.6187690000000  0.3069080000000  0.6109800000000 1.0
C      1  0.6187270000000  0.5457490000000  0.7172930000000 1.0
C      1  0.6174530000000  0.2810110000000  0.5233040000000 1.0
C      1  0.6210120000000  0.4093310000000  0.2978010000000 1.0
C      1  0.6222020000000  0.6647760000000  0.3516350000000 1.0
C      1  0.6187290000000  0.6929200000000  0.6111740000000 1.0
C      1  0.6195900000000  0.4542280000000  0.7179820000000 1.0
C      1  0.6910130000000  0.6276560000000  0.4085630000000 1.0
C      1  0.6920710000000  0.4515380000000  0.3496190000000 1.0
C      1  0.6890320000000  0.3424620000000  0.5005150000000 1.0
C      1  0.6893470000000  0.4508240000000  0.6505560000000 1.0
C      1  0.6897740000000  0.6287380000000  0.5945460000000 1.0
C      1  0.6910240000000  0.3724140000000  0.4086190000000 1.0
C      1  0.6920590000000  0.5484700000000  0.3495570000000 1.0
C      1  0.6889390000000  0.6577470000000  0.5003940000000 1.0
C      1  0.6891270000000  0.5495510000000  0.6504890000000 1.0
C      1  0.6895670000000  0.3715230000000  0.5945980000000 1.0
END
