TITL C-1525613-7943-1427 0.0262072088425766 3375 -8623.32602199984 0 0 60 (Cs) n - 1
REM
REM in /home/nfs/bkarasulu/CARBON/AIRSS/Generating-Clusters/ReaxFF-fromJPCA2015/Units_Real/Try2-Higher-symm/Only-C60
REM
REM
REM
REM
REM
REM ./C.cell (863b2abdce7293c0672fb3ba77bf323a)
REM AIRSS Version 0.9.1 bugfix July 2018 build 013d7b7c2542+ Fri, 06 Jul 2018 19:26:36 +0100
REM compiler GCC version 9.2.1 20190827 (Red Hat 9.2.1-1)
REM options -cpp -mtune=generic -march=x86-64 -g -O0 -fpre-include=/usr/include/finclude/math-vector-fortran.h
REM seed 1829920870 287982823 -663290152 -194640768 1863635762 -885285187 2084064133 -1456872527 -85872322 1388170534 1973754196 254800138 1253215188 1199201305 -802661032 -1933058194 -702972356 777009444 -1303901628 234700633 -2115968499 205519749 -490174539 -68553136 2071419989 1542077876 -867110395 831687407 -140287346 -679590623 1172067245 -932212352 1588318541
REM
CELL 1.54180   15.00000   15.00000   15.00000   90.00000   90.00000   90.00000
LATT -1
SFAC C  
C      1  0.6846040000000  0.5227460000000  0.3380060000000 1.0
C      1  0.6847530000000  0.6609530000000  0.4721580000000 1.0
C      1  0.6848060000000  0.5771400000000  0.6452770000000 1.0
C      1  0.6843510000000  0.3867010000000  0.6172030000000 1.0
C      1  0.6844820000000  0.3516180000000  0.4272380000000 1.0
C      1  0.3153960000000  0.5227460000000  0.3380060000000 1.0
C      1  0.3152470000000  0.6609530000000  0.4721580000000 1.0
C      1  0.3151940000000  0.5771400000000  0.6452770000000 1.0
C      1  0.3156490000000  0.3867010000000  0.6172030000000 1.0
C      1  0.3155180000000  0.3516180000000  0.4272380000000 1.0
C      1  0.4495330000000  0.6149760000000  0.3352710000000 1.0
C      1  0.4494290000000  0.6918370000000  0.5582160000000 1.0
C      1  0.4494920000000  0.5039570000000  0.7006920000000 1.0
C      1  0.4493880000000  0.3106830000000  0.5655430000000 1.0
C      1  0.4494370000000  0.3793070000000  0.3400500000000 1.0
C      1  0.5504670000000  0.6149760000000  0.3352710000000 1.0
C      1  0.5505710000000  0.6918370000000  0.5582160000000 1.0
C      1  0.5505080000000  0.5039570000000  0.7006920000000 1.0
C      1  0.5506120000000  0.3106830000000  0.5655430000000 1.0
C      1  0.5505630000000  0.3793070000000  0.3400500000000 1.0
C      1  0.6766270000000  0.4434650000000  0.3954620000000 1.0
C      1  0.6747250000000  0.5836480000000  0.4130090000000 1.0
C      1  0.6755310000000  0.6072400000000  0.5528540000000 1.0
C      1  0.6752060000000  0.4840490000000  0.6188280000000 1.0
C      1  0.6761820000000  0.3823090000000  0.5199010000000 1.0
C      1  0.3233730000000  0.4434650000000  0.3954620000000 1.0
C      1  0.3252750000000  0.5836480000000  0.4130090000000 1.0
C      1  0.3244690000000  0.6072400000000  0.5528540000000 1.0
C      1  0.3247940000000  0.4840490000000  0.6188280000000 1.0
C      1  0.3238180000000  0.3823090000000  0.5199010000000 1.0
C      1  0.5481550000000  0.4600030000000  0.2750790000000 1.0
C      1  0.5481690000000  0.7014380000000  0.3925120000000 1.0
C      1  0.5481350000000  0.6646880000000  0.6583960000000 1.0
C      1  0.5481570000000  0.4003530000000  0.7054900000000 1.0
C      1  0.5480940000000  0.2735690000000  0.4686790000000 1.0
C      1  0.4518450000000  0.4600030000000  0.2750790000000 1.0
C      1  0.4518310000000  0.7014380000000  0.3925120000000 1.0
C      1  0.4518650000000  0.6646880000000  0.6583960000000 1.0
C      1  0.4518430000000  0.4003530000000  0.7054900000000 1.0
C      1  0.4519060000000  0.2735690000000  0.4686790000000 1.0
C      1  0.4158730000000  0.5791090000000  0.5307380000000 1.0
C      1  0.4160290000000  0.4952350000000  0.5846710000000 1.0
C      1  0.4161990000000  0.4179150000000  0.5216310000000 1.0
C      1  0.4161330000000  0.4538420000000  0.4287860000000 1.0
C      1  0.4161330000000  0.5535060000000  0.4342990000000 1.0
C      1  0.5841270000000  0.5791090000000  0.5307380000000 1.0
C      1  0.5839710000000  0.4952350000000  0.5846710000000 1.0
C      1  0.5838010000000  0.4179150000000  0.5216310000000 1.0
C      1  0.5838670000000  0.4538420000000  0.4287860000000 1.0
C      1  0.5838670000000  0.5535060000000  0.4342990000000 1.0
C      1  0.3996240000000  0.3120550000000  0.3971840000000 1.0
C      1  0.3992810000000  0.5394690000000  0.2903320000000 1.0
C      1  0.3992810000000  0.7115980000000  0.4727980000000 1.0
C      1  0.3994980000000  0.5915790000000  0.6932470000000 1.0
C      1  0.3992920000000  0.3450120000000  0.6464500000000 1.0
C      1  0.6003760000000  0.3120550000000  0.3971840000000 1.0
C      1  0.6007190000000  0.5394690000000  0.2903320000000 1.0
C      1  0.6007190000000  0.7115980000000  0.4727980000000 1.0
C      1  0.6005020000000  0.5915790000000  0.6932470000000 1.0
C      1  0.6007080000000  0.3450120000000  0.6464500000000 1.0
END
