TITL C-1525613-7943-2495 0.295355979959901 3375 -8417.14298437692 0 0 60 (Ci) n - 1
REM
REM in /home/nfs/bkarasulu/CARBON/AIRSS/Generating-Clusters/ReaxFF-fromJPCA2015/Units_Real/Try2-Higher-symm/Only-C60
REM
REM
REM
REM
REM
REM ./C.cell (863b2abdce7293c0672fb3ba77bf323a)
REM AIRSS Version 0.9.1 bugfix July 2018 build 013d7b7c2542+ Fri, 06 Jul 2018 19:26:36 +0100
REM compiler GCC version 9.2.1 20190827 (Red Hat 9.2.1-1)
REM options -cpp -mtune=generic -march=x86-64 -g -O0 -fpre-include=/usr/include/finclude/math-vector-fortran.h
REM seed -1210618332 -2053462781 -815051324 -227199371 456519407 -1341227112 -1291142293 179236392 -743837955 491161759 1008595512 1818457451 2031172976 2033504482 8993278 282238864 16140784 -1439462569 274500836 207003384 -750516466 -785547149 -1831465498 1431746395 -1177811855 -855065750 2034644957 678481610 1125730678 -794724103 1127268667 516108325 -584203201
REM
CELL 1.54180   15.00000   15.00000   15.00000   90.00000   90.00000   90.00000
LATT -1
SFAC C  
C      1  0.7413490000000  0.5027920000000  0.4020900000000 1.0
C      1  0.7525100000000  0.4971380000000  0.5625750000000 1.0
C      1  0.6676560000000  0.5026420000000  0.6992380000000 1.0
C      1  0.5186180000000  0.4973480000000  0.7602050000000 1.0
C      1  0.3623810000000  0.5027610000000  0.7210590000000 1.0
C      1  0.2586510000000  0.4972080000000  0.5979100000000 1.0
C      1  0.2474900000000  0.5028620000000  0.4374250000000 1.0
C      1  0.3323440000000  0.4973580000000  0.3007620000000 1.0
C      1  0.4813820000000  0.5026520000000  0.2397950000000 1.0
C      1  0.6376190000000  0.4972390000000  0.2789410000000 1.0
C      1  0.4548500000000  0.3629980000000  0.6733300000000 1.0
C      1  0.3615160000000  0.6370730000000  0.6134010000000 1.0
C      1  0.3213120000000  0.3628600000000  0.5105140000000 1.0
C      1  0.3492480000000  0.6373380000000  0.4033590000000 1.0
C      1  0.4348720000000  0.3629360000000  0.3332010000000 1.0
C      1  0.5451500000000  0.6370020000000  0.3266700000000 1.0
C      1  0.6384840000000  0.3629270000000  0.3865990000000 1.0
C      1  0.6786880000000  0.6371400000000  0.4894860000000 1.0
C      1  0.6507520000000  0.3626620000000  0.5966410000000 1.0
C      1  0.5651280000000  0.6370640000000  0.6667990000000 1.0
C      1  0.6175570000000  0.6586840000000  0.4140550000000 1.0
C      1  0.6457100000000  0.3412080000000  0.4996470000000 1.0
C      1  0.6180510000000  0.6587390000000  0.5853830000000 1.0
C      1  0.5455370000000  0.3412150000000  0.6384900000000 1.0
C      1  0.4553130000000  0.6586870000000  0.6386330000000 1.0
C      1  0.3824430000000  0.3413160000000  0.5859450000000 1.0
C      1  0.3542900000000  0.6587920000000  0.5003530000000 1.0
C      1  0.3819490000000  0.3412610000000  0.4146170000000 1.0
C      1  0.4544630000000  0.6587850000000  0.3615100000000 1.0
C      1  0.5446870000000  0.3413130000000  0.3613670000000 1.0
C      1  0.4355540000000  0.4295630000000  0.5518870000000 1.0
C      1  0.4173520000000  0.5704520000000  0.5040670000000 1.0
C      1  0.4308140000000  0.4294890000000  0.4548700000000 1.0
C      1  0.4705890000000  0.5704660000000  0.4227750000000 1.0
C      1  0.5216700000000  0.4295440000000  0.4203370000000 1.0
C      1  0.5644460000000  0.5704370000000  0.4481130000000 1.0
C      1  0.5826480000000  0.4295480000000  0.4959330000000 1.0
C      1  0.5691860000000  0.5705110000000  0.5451300000000 1.0
C      1  0.5294110000000  0.4295340000000  0.5772250000000 1.0
C      1  0.4783300000000  0.5704560000000  0.5796630000000 1.0
C      1  0.4745640000000  0.7388430000000  0.5780280000000 1.0
C      1  0.4336320000000  0.2611940000000  0.5481180000000 1.0
C      1  0.4179950000000  0.7388610000000  0.4999420000000 1.0
C      1  0.4337380000000  0.2612360000000  0.4516990000000 1.0
C      1  0.4747230000000  0.7387970000000  0.4220150000000 1.0
C      1  0.5254360000000  0.2611570000000  0.4219720000000 1.0
C      1  0.5663680000000  0.7388060000000  0.4518820000000 1.0
C      1  0.5820050000000  0.2611390000000  0.5000580000000 1.0
C      1  0.5662620000000  0.7387640000000  0.5483010000000 1.0
C      1  0.5252770000000  0.2612030000000  0.5779850000000 1.0
C      1  0.6835290000000  0.4436940000000  0.3477880000000 1.0
C      1  0.7380080000000  0.5564200000000  0.4847660000000 1.0
C      1  0.7014410000000  0.4434830000000  0.6276000000000 1.0
C      1  0.5880980000000  0.5563050000000  0.7216550000000 1.0
C      1  0.4411450000000  0.4438180000000  0.7310110000000 1.0
C      1  0.3164710000000  0.5563060000000  0.6522120000000 1.0
C      1  0.2619920000000  0.4435800000000  0.5152340000000 1.0
C      1  0.2985590000000  0.5565170000000  0.3724000000000 1.0
C      1  0.4119020000000  0.4436950000000  0.2783450000000 1.0
C      1  0.5588550000000  0.5561820000000  0.2689890000000 1.0
END
