TITL C-1525613-7943-4506 0.44408631626766 3375 -8565.51588135871 0 0 60 (C5) n - 1
REM
REM in /home/nfs/bkarasulu/CARBON/AIRSS/Generating-Clusters/ReaxFF-fromJPCA2015/Units_Real/Try2-Higher-symm/Only-C60
REM
REM
REM
REM
REM
REM ./C.cell (863b2abdce7293c0672fb3ba77bf323a)
REM AIRSS Version 0.9.1 bugfix July 2018 build 013d7b7c2542+ Fri, 06 Jul 2018 19:26:36 +0100
REM compiler GCC version 9.2.1 20190827 (Red Hat 9.2.1-1)
REM options -cpp -mtune=generic -march=x86-64 -g -O0 -fpre-include=/usr/include/finclude/math-vector-fortran.h
REM seed 2027843811 -585474898 -373131015 -395616020 857056495 -1768963699 1471220688 -1554749982 1704368445 389405810 -2035765162 338494721 -1789395466 -698969509 -1493280047 304492750 -1508284407 467171843 359395961 531324779 1630546056 -1273791781 211444807 -650352759 340126463 -249524645 2103810324 839939268 1622792473 -311359110 1096084281 262760934 853416320
REM
CELL 1.54180   15.00000   15.00000   15.00000   90.00000   90.00000   90.00000
LATT -1
SFAC C  
C      1  0.4968860000000  0.4505790000000  0.6509870000000 1.0
C      1  0.4949660000000  0.6281410000000  0.5930540000000 1.0
C      1  0.4956590000000  0.6287410000000  0.4066740000000 1.0
C      1  0.4961010000000  0.4511820000000  0.3487840000000 1.0
C      1  0.4970490000000  0.3405950000000  0.4993940000000 1.0
C      1  0.4969590000000  0.5493880000000  0.6510040000000 1.0
C      1  0.4949770000000  0.3718670000000  0.5930560000000 1.0
C      1  0.4957150000000  0.3712430000000  0.4066960000000 1.0
C      1  0.4960590000000  0.5487900000000  0.3487700000000 1.0
C      1  0.4969100000000  0.6593500000000  0.4993960000000 1.0
C      1  0.6457650000000  0.6277600000000  0.5921880000000 1.0
C      1  0.6469830000000  0.6273640000000  0.4068430000000 1.0
C      1  0.6462690000000  0.4508650000000  0.3501640000000 1.0
C      1  0.6461260000000  0.3421860000000  0.5003220000000 1.0
C      1  0.6456420000000  0.4520860000000  0.6497020000000 1.0
C      1  0.6459200000000  0.3728830000000  0.5929650000000 1.0
C      1  0.6466990000000  0.3722380000000  0.4075670000000 1.0
C      1  0.6463140000000  0.5482240000000  0.3498320000000 1.0
C      1  0.6462570000000  0.6579080000000  0.4993990000000 1.0
C      1  0.6456060000000  0.5490770000000  0.6492630000000 1.0
C      1  0.3607520000000  0.2633100000000  0.4735890000000 1.0
C      1  0.3616870000000  0.4016420000000  0.7187500000000 1.0
C      1  0.3611090000000  0.6781090000000  0.6604290000000 1.0
C      1  0.3605820000000  0.7057910000000  0.3799050000000 1.0
C      1  0.3605210000000  0.4508280000000  0.2677130000000 1.0
C      1  0.3607220000000  0.7367030000000  0.4735880000000 1.0
C      1  0.3616690000000  0.5983600000000  0.7187450000000 1.0
C      1  0.3611220000000  0.3218850000000  0.6604150000000 1.0
C      1  0.3605830000000  0.2942110000000  0.3799100000000 1.0
C      1  0.3605110000000  0.5491660000000  0.2677070000000 1.0
C      1  0.7437160000000  0.3720390000000  0.4064290000000 1.0
C      1  0.7431570000000  0.3713420000000  0.5930820000000 1.0
C      1  0.7432070000000  0.5484200000000  0.6512840000000 1.0
C      1  0.7434730000000  0.6583050000000  0.5006600000000 1.0
C      1  0.7440130000000  0.5492720000000  0.3495810000000 1.0
C      1  0.7436240000000  0.6284570000000  0.4074190000000 1.0
C      1  0.7431800000000  0.6277490000000  0.5938270000000 1.0
C      1  0.7430710000000  0.4507440000000  0.6511410000000 1.0
C      1  0.7436090000000  0.3414390000000  0.4997530000000 1.0
C      1  0.7440440000000  0.4516600000000  0.3492170000000 1.0
C      1  0.4443290000000  0.4017260000000  0.2800190000000 1.0
C      1  0.4442870000000  0.2604400000000  0.5247790000000 1.0
C      1  0.4452440000000  0.4504870000000  0.7357190000000 1.0
C      1  0.4444520000000  0.7094810000000  0.6190730000000 1.0
C      1  0.4447040000000  0.6784590000000  0.3374840000000 1.0
C      1  0.4443210000000  0.5982850000000  0.2799730000000 1.0
C      1  0.4442160000000  0.7396120000000  0.5248310000000 1.0
C      1  0.4452360000000  0.5494930000000  0.7357010000000 1.0
C      1  0.4444790000000  0.2905790000000  0.6190500000000 1.0
C      1  0.4447310000000  0.3215390000000  0.3375170000000 1.0
C      1  0.3102080000000  0.5477000000000  0.3523680000000 1.0
C      1  0.3104740000000  0.3748120000000  0.4071020000000 1.0
C      1  0.3077520000000  0.3717940000000  0.5929160000000 1.0
C      1  0.3072860000000  0.5490140000000  0.6516300000000 1.0
C      1  0.3076710000000  0.6567440000000  0.4993020000000 1.0
C      1  0.3102060000000  0.4522990000000  0.3523710000000 1.0
C      1  0.3104730000000  0.6251860000000  0.4071050000000 1.0
C      1  0.3077580000000  0.6282080000000  0.5929220000000 1.0
C      1  0.3072880000000  0.4509860000000  0.6516300000000 1.0
C      1  0.3076740000000  0.3432590000000  0.4993040000000 1.0
END
