TITL C-1525613-7943-1548 -0.000480099408386597 3375 -9504.10910310195 0 0 60 (C1) n - 1
REM
REM in /home/nfs/bkarasulu/CARBON/AIRSS/Generating-Clusters/ReaxFF-fromJPCA2015/Units_Real/Try2-Higher-symm/Only-C60
REM
REM
REM
REM
REM
REM ./C.cell (863b2abdce7293c0672fb3ba77bf323a)
REM AIRSS Version 0.9.1 bugfix July 2018 build 013d7b7c2542+ Fri, 06 Jul 2018 19:26:36 +0100
REM compiler GCC version 9.2.1 20190827 (Red Hat 9.2.1-1)
REM options -cpp -mtune=generic -march=x86-64 -g -O0 -fpre-include=/usr/include/finclude/math-vector-fortran.h
REM seed 1124365527 1198374452 -2020562218 361728292 1840874124 705646442 559289030 -1860190378 113076590 337666433 25756813 -377690565 -280174442 -1514112861 -790781747 -937015295 -653839011 126980435 -1905972491 -1929163257 1880138915 -712090882 -1901609101 73238690 -703950234 -516179998 -1779195660 -119103342 1359216430 1912745592 996574519 -2043326986 1671441996
REM
CELL 1.54180   15.00000   15.00000   15.00000   90.00000   90.00000   90.00000
LATT -1
SFAC C  
C      1  0.3199840000000  0.3676870000000  0.4230920000000 1.0
C      1  0.3269650000000  0.4450800000000  0.3605170000000 1.0
C      1  0.3305240000000  0.5413400000000  0.3490370000000 1.0
C      1  0.3378850000000  0.6277020000000  0.3974300000000 1.0
C      1  0.3528610000000  0.6591500000000  0.4878690000000 1.0
C      1  0.3213830000000  0.6316500000000  0.5756260000000 1.0
C      1  0.3295060000000  0.5554250000000  0.6381820000000 1.0
C      1  0.3314150000000  0.4601040000000  0.6503930000000 1.0
C      1  0.3382960000000  0.3736060000000  0.6020660000000 1.0
C      1  0.3535390000000  0.3419230000000  0.5113600000000 1.0
C      1  0.4609470000000  0.4793980000000  0.7609070000000 1.0
C      1  0.4730180000000  0.2804710000000  0.6573810000000 1.0
C      1  0.4780160000000  0.2392360000000  0.5698450000000 1.0
C      1  0.4433260000000  0.2634230000000  0.4057840000000 1.0
C      1  0.4556220000000  0.4257020000000  0.2501880000000 1.0
C      1  0.4605420000000  0.5218410000000  0.2385890000000 1.0
C      1  0.4729220000000  0.7200480000000  0.3435740000000 1.0
C      1  0.4776140000000  0.7596090000000  0.4316350000000 1.0
C      1  0.4431030000000  0.7311130000000  0.5936570000000 1.0
C      1  0.4566810000000  0.5749920000000  0.7484040000000 1.0
C      1  0.5801320000000  0.3409880000000  0.3364030000000 1.0
C      1  0.6066000000000  0.4681450000000  0.2618970000000 1.0
C      1  0.5982000000000  0.6139750000000  0.2917480000000 1.0
C      1  0.6240860000000  0.7222940000000  0.3908610000000 1.0
C      1  0.6000760000000  0.7363710000000  0.5404410000000 1.0
C      1  0.5809270000000  0.6596590000000  0.6645820000000 1.0
C      1  0.6073750000000  0.5323510000000  0.7391850000000 1.0
C      1  0.5983660000000  0.3868010000000  0.7090790000000 1.0
C      1  0.6243860000000  0.2782710000000  0.6101930000000 1.0
C      1  0.6009730000000  0.2633600000000  0.4605500000000 1.0
C      1  0.6410300000000  0.3944420000000  0.3914400000000 1.0
C      1  0.6571520000000  0.4787630000000  0.3452750000000 1.0
C      1  0.6514460000000  0.5741690000000  0.3638720000000 1.0
C      1  0.6662200000000  0.6432900000000  0.4309230000000 1.0
C      1  0.6534970000000  0.6553330000000  0.5270040000000 1.0
C      1  0.6420290000000  0.6063920000000  0.6098190000000 1.0
C      1  0.6578490000000  0.5219210000000  0.6557880000000 1.0
C      1  0.6516890000000  0.4265870000000  0.6369990000000 1.0
C      1  0.6663580000000  0.3573560000000  0.5700350000000 1.0
C      1  0.6535400000000  0.3450980000000  0.4739750000000 1.0
C      1  0.5468720000000  0.3916850000000  0.2606210000000 1.0
C      1  0.5553970000000  0.5465220000000  0.2365690000000 1.0
C      1  0.5653080000000  0.7017730000000  0.3162540000000 1.0
C      1  0.5716140000000  0.7722910000000  0.4552760000000 1.0
C      1  0.5377750000000  0.7300980000000  0.6143100000000 1.0
C      1  0.5477500000000  0.6087960000000  0.7400550000000 1.0
C      1  0.5555120000000  0.4543230000000  0.7641080000000 1.0
C      1  0.5654680000000  0.2989780000000  0.6846760000000 1.0
C      1  0.5723460000000  0.2276250000000  0.5458910000000 1.0
C      1  0.5391050000000  0.2680620000000  0.3856810000000 1.0
C      1  0.3720400000000  0.3120570000000  0.3597270000000 1.0
C      1  0.3782920000000  0.3886060000000  0.2973790000000 1.0
C      1  0.3896490000000  0.5769740000000  0.2775600000000 1.0
C      1  0.3957620000000  0.6633050000000  0.3251970000000 1.0
C      1  0.4182900000000  0.7285770000000  0.5013550000000 1.0
C      1  0.3764440000000  0.6826040000000  0.6361000000000 1.0
C      1  0.3824090000000  0.6113960000000  0.6976800000000 1.0
C      1  0.3901490000000  0.4244370000000  0.7218480000000 1.0
C      1  0.3960400000000  0.3378680000000  0.6746880000000 1.0
C      1  0.4176960000000  0.2689580000000  0.4994180000000 1.0
END
