TITL C-1525613-7943-436 -0.0224713333392002 3375 -9060.15539777729 0 0 60 (D5) n - 1
REM
REM in /home/nfs/bkarasulu/CARBON/AIRSS/Generating-Clusters/ReaxFF-fromJPCA2015/Units_Real/Try2-Higher-symm/Only-C60
REM
REM
REM
REM
REM
REM ./C.cell (863b2abdce7293c0672fb3ba77bf323a)
REM AIRSS Version 0.9.1 bugfix July 2018 build 013d7b7c2542+ Fri, 06 Jul 2018 19:26:36 +0100
REM compiler GCC version 9.2.1 20190827 (Red Hat 9.2.1-1)
REM options -cpp -mtune=generic -march=x86-64 -g -O0 -fpre-include=/usr/include/finclude/math-vector-fortran.h
REM seed -2060428162 -693713454 130642777 -1771182144 -1753256146 -387361479 1299255663 2005387137 1015876294 2017869292 99197810 939920987 -395042492 -239682777 -524028558 1203018587 1481507690 -1991896597 -2079081219 -1985774116 -2081833729 -1381094 1911141689 -2023827237 -799765394 1628496856 345555869 563514997 1182264988 -1413214034 425948077 1497219536 286036
REM
CELL 1.54180   15.00000   15.00000   15.00000   90.00000   90.00000   90.00000
LATT -1
SFAC C  
C      1  0.5278170000000  0.6753740000000  0.4354830000000 1.0
C      1  0.6745990000000  0.5279990000000  0.4355880000000 1.0
C      1  0.5801560000000  0.3416470000000  0.4361130000000 1.0
C      1  0.3742790000000  0.3743290000000  0.4355410000000 1.0
C      1  0.3418930000000  0.5801960000000  0.4355380000000 1.0
C      1  0.5275920000000  0.3246410000000  0.5649500000000 1.0
C      1  0.6747390000000  0.4722550000000  0.5643160000000 1.0
C      1  0.5808230000000  0.6585890000000  0.5641790000000 1.0
C      1  0.3748830000000  0.6257610000000  0.5639660000000 1.0
C      1  0.3422000000000  0.4188940000000  0.5646110000000 1.0
C      1  0.6647530000000  0.4702270000000  0.7035220000000 1.0
C      1  0.5224410000000  0.3337580000000  0.7042410000000 1.0
C      1  0.3491180000000  0.4272920000000  0.7038510000000 1.0
C      1  0.3846140000000  0.6211790000000  0.7032580000000 1.0
C      1  0.5798030000000  0.6477890000000  0.7033220000000 1.0
C      1  0.6648360000000  0.5300650000000  0.2963430000000 1.0
C      1  0.5223700000000  0.6661260000000  0.2961420000000 1.0
C      1  0.3489960000000  0.5725310000000  0.2962450000000 1.0
C      1  0.3842160000000  0.3786060000000  0.2964640000000 1.0
C      1  0.5792000000000  0.3524260000000  0.2967940000000 1.0
C      1  0.5103150000000  0.4177400000000  0.7566030000000 1.0
C      1  0.4252670000000  0.4648420000000  0.7563330000000 1.0
C      1  0.4437940000000  0.5603350000000  0.7558700000000 1.0
C      1  0.5402130000000  0.5725470000000  0.7555850000000 1.0
C      1  0.5811540000000  0.4843580000000  0.7561980000000 1.0
C      1  0.5101990000000  0.5819250000000  0.2441270000000 1.0
C      1  0.4251630000000  0.5349170000000  0.2437980000000 1.0
C      1  0.4434550000000  0.4395240000000  0.2441810000000 1.0
C      1  0.5398080000000  0.4276740000000  0.2443070000000 1.0
C      1  0.5811580000000  0.5156040000000  0.2439260000000 1.0
C      1  0.5366260000000  0.5699950000000  0.5659650000000 1.0
C      1  0.5772250000000  0.4874670000000  0.5655670000000 1.0
C      1  0.5119800000000  0.4223170000000  0.5658550000000 1.0
C      1  0.4298950000000  0.4651900000000  0.5690680000000 1.0
C      1  0.4454860000000  0.5567280000000  0.5672110000000 1.0
C      1  0.5366340000000  0.4303220000000  0.4330690000000 1.0
C      1  0.5769250000000  0.5127520000000  0.4337710000000 1.0
C      1  0.5116810000000  0.5775420000000  0.4341780000000 1.0
C      1  0.4298670000000  0.5352360000000  0.4333810000000 1.0
C      1  0.4451230000000  0.4436990000000  0.4305900000000 1.0
C      1  0.3686000000000  0.6432590000000  0.3630790000000 1.0
C      1  0.5960410000000  0.6696830000000  0.3628110000000 1.0
C      1  0.6905390000000  0.4612620000000  0.3632590000000 1.0
C      1  0.5217090000000  0.3064620000000  0.3634780000000 1.0
C      1  0.3224510000000  0.4188920000000  0.3630820000000 1.0
C      1  0.3681330000000  0.3559480000000  0.6373290000000 1.0
C      1  0.5958460000000  0.3305120000000  0.6373510000000 1.0
C      1  0.6905320000000  0.5389620000000  0.6365910000000 1.0
C      1  0.5222350000000  0.6939150000000  0.6366880000000 1.0
C      1  0.3234250000000  0.5806590000000  0.6363620000000 1.0
C      1  0.6660340000000  0.4001860000000  0.6347220000000 1.0
C      1  0.4562970000000  0.3108730000000  0.6352920000000 1.0
C      1  0.3069420000000  0.4830580000000  0.6345570000000 1.0
C      1  0.4245400000000  0.6788980000000  0.6344500000000 1.0
C      1  0.6466650000000  0.6275070000000  0.6342540000000 1.0
C      1  0.6660990000000  0.6001730000000  0.3651640000000 1.0
C      1  0.4562010000000  0.6890140000000  0.3651620000000 1.0
C      1  0.3066670000000  0.5166590000000  0.3650630000000 1.0
C      1  0.4237810000000  0.3207900000000  0.3654370000000 1.0
C      1  0.6459630000000  0.3728900000000  0.3658210000000 1.0
END
