TITL C-1525613-7943-93 0.0271372141436766 3375 -9164.55766492721 0 0 60 (C2v) n - 1
REM
REM in /home/nfs/bkarasulu/CARBON/AIRSS/Generating-Clusters/ReaxFF-fromJPCA2015/Units_Real/Try2-Higher-symm/Only-C60
REM
REM
REM
REM
REM
REM ./C.cell (863b2abdce7293c0672fb3ba77bf323a)
REM AIRSS Version 0.9.1 bugfix July 2018 build 013d7b7c2542+ Fri, 06 Jul 2018 19:26:36 +0100
REM compiler GCC version 9.2.1 20190827 (Red Hat 9.2.1-1)
REM options -cpp -mtune=generic -march=x86-64 -g -O0 -fpre-include=/usr/include/finclude/math-vector-fortran.h
REM seed 77860755 192383784 976257939 600485899 1057666509 -350084149 -111334273 -629550986 -8034752 -268926561 700263672 1027940767 1315802609 96668298 1158182916 690705679 -165848457 1092495356 -1312635424 321565195 475763392 -1177868825 -599014282 -441268952 -799535419 1623022190 1948672573 577187261 1275374210 -2002471567 1455826442 -880812524 1654762084
REM
CELL 1.54180   15.00000   15.00000   15.00000   90.00000   90.00000   90.00000
LATT -1
SFAC C  
C      1  0.5819420000000  0.5543620000000  0.5000990000000 1.0
C      1  0.5257110000000  0.5670960000000  0.4234070000000 1.0
C      1  0.4360840000000  0.5512370000000  0.4499310000000 1.0
C      1  0.4360020000000  0.5512550000000  0.5499340000000 1.0
C      1  0.5255380000000  0.5671060000000  0.5766470000000 1.0
C      1  0.5819420000000  0.4456380000000  0.4999010000000 1.0
C      1  0.5257110000000  0.4329040000000  0.5765930000000 1.0
C      1  0.4360840000000  0.4487630000000  0.5500690000000 1.0
C      1  0.4360020000000  0.4487450000000  0.4500660000000 1.0
C      1  0.5255380000000  0.4328940000000  0.4233530000000 1.0
C      1  0.6416760000000  0.5837070000000  0.6604750000000 1.0
C      1  0.6975940000000  0.5848040000000  0.4167870000000 1.0
C      1  0.4796850000000  0.5836450000000  0.2866420000000 1.0
C      1  0.2919850000000  0.5845820000000  0.4519980000000 1.0
C      1  0.3891200000000  0.5844940000000  0.6839550000000 1.0
C      1  0.6416760000000  0.4162930000000  0.3395250000000 1.0
C      1  0.6975940000000  0.4151960000000  0.5832130000000 1.0
C      1  0.4796850000000  0.4163550000000  0.7133580000000 1.0
C      1  0.2919850000000  0.4154180000000  0.5480020000000 1.0
C      1  0.3891200000000  0.4155060000000  0.3160450000000 1.0
C      1  0.4331540000000  0.2997370000000  0.5480500000000 1.0
C      1  0.5242770000000  0.2959620000000  0.5764030000000 1.0
C      1  0.5815940000000  0.2981110000000  0.4999830000000 1.0
C      1  0.5242250000000  0.2959490000000  0.4236090000000 1.0
C      1  0.4331400000000  0.2997280000000  0.4519900000000 1.0
C      1  0.4331540000000  0.7002630000000  0.4519500000000 1.0
C      1  0.5242770000000  0.7040380000000  0.4235970000000 1.0
C      1  0.5815940000000  0.7018890000000  0.5000170000000 1.0
C      1  0.5242250000000  0.7040510000000  0.5763910000000 1.0
C      1  0.4331400000000  0.7002720000000  0.5480100000000 1.0
C      1  0.3690100000000  0.3692860000000  0.5949020000000 1.0
C      1  0.5492310000000  0.3690050000000  0.6513610000000 1.0
C      1  0.6626870000000  0.3680650000000  0.4999570000000 1.0
C      1  0.5491110000000  0.3689930000000  0.3485780000000 1.0
C      1  0.3689550000000  0.3692840000000  0.4051730000000 1.0
C      1  0.3690100000000  0.6307140000000  0.4050980000000 1.0
C      1  0.5492310000000  0.6309950000000  0.3486390000000 1.0
C      1  0.6626870000000  0.6319350000000  0.5000430000000 1.0
C      1  0.5491110000000  0.6310070000000  0.6514220000000 1.0
C      1  0.3689550000000  0.6307160000000  0.5948270000000 1.0
C      1  0.6418000000000  0.5837850000000  0.3395640000000 1.0
C      1  0.3891830000000  0.5845280000000  0.3159870000000 1.0
C      1  0.2919400000000  0.5845780000000  0.5479280000000 1.0
C      1  0.4795480000000  0.5837120000000  0.7134180000000 1.0
C      1  0.6975580000000  0.5848180000000  0.5833130000000 1.0
C      1  0.6418000000000  0.4162150000000  0.6604360000000 1.0
C      1  0.3891830000000  0.4154720000000  0.6840130000000 1.0
C      1  0.2919400000000  0.4154220000000  0.4520720000000 1.0
C      1  0.4795480000000  0.4162880000000  0.2865820000000 1.0
C      1  0.6975580000000  0.4151820000000  0.4166870000000 1.0
C      1  0.3409180000000  0.5000230000000  0.3236220000000 1.0
C      1  0.2835300000000  0.5000120000000  0.5957230000000 1.0
C      1  0.5230000000000  0.5000450000000  0.7346660000000 1.0
C      1  0.7324440000000  0.5000160000000  0.5491970000000 1.0
C      1  0.6193570000000  0.5000450000000  0.2968870000000 1.0
C      1  0.3409180000000  0.4999770000000  0.6763780000000 1.0
C      1  0.2835300000000  0.4999880000000  0.4042770000000 1.0
C      1  0.5230000000000  0.4999550000000  0.2653340000000 1.0
C      1  0.7324440000000  0.4999840000000  0.4508030000000 1.0
C      1  0.6193570000000  0.4999550000000  0.7031130000000 1.0
END
