TITL C-1525613-7943-801 -0.00540117826943516 3375 -9547.64578880072 0 0 60 (C2) n - 1
REM
REM in /home/nfs/bkarasulu/CARBON/AIRSS/Generating-Clusters/ReaxFF-fromJPCA2015/Units_Real/Try2-Higher-symm/Only-C60
REM
REM
REM
REM
REM
REM ./C.cell (863b2abdce7293c0672fb3ba77bf323a)
REM AIRSS Version 0.9.1 bugfix July 2018 build 013d7b7c2542+ Fri, 06 Jul 2018 19:26:36 +0100
REM compiler GCC version 9.2.1 20190827 (Red Hat 9.2.1-1)
REM options -cpp -mtune=generic -march=x86-64 -g -O0 -fpre-include=/usr/include/finclude/math-vector-fortran.h
REM seed -530523148 -1022410476 -1200867057 1692691799 912947230 770524817 85416500 -335511413 -557760879 -1427917320 615140259 1820833558 -1011504053 -248507884 1440474966 -2008627812 1530684850 -454381640 117740037 629340653 187366690 588255596 187868856 -1232335424 730235331 -317528588 1378277743 -1772793918 1203248345 976556782 -259102096 711542201 1340399411
REM
CELL 1.54180   15.00000   15.00000   15.00000   90.00000   90.00000   90.00000
LATT -1
SFAC C  
C      1  0.7226090000000  0.3997210000000  0.3832350000000 1.0
C      1  0.6152040000000  0.3042780000000  0.4207100000000 1.0
C      1  0.4725780000000  0.2746950000000  0.4200050000000 1.0
C      1  0.3380470000000  0.3303290000000  0.4051510000000 1.0
C      1  0.2624360000000  0.4536900000000  0.3895470000000 1.0
C      1  0.2760760000000  0.6019330000000  0.3799400000000 1.0
C      1  0.3845980000000  0.6937930000000  0.4217170000000 1.0
C      1  0.5270140000000  0.7249060000000  0.4201930000000 1.0
C      1  0.6616910000000  0.6708890000000  0.4050030000000 1.0
C      1  0.7384540000000  0.5451230000000  0.3898650000000 1.0
C      1  0.3249190000000  0.3387150000000  0.5900980000000 1.0
C      1  0.2657060000000  0.4760550000000  0.5741020000000 1.0
C      1  0.3268880000000  0.6461830000000  0.6111070000000 1.0
C      1  0.3991980000000  0.7010810000000  0.6289530000000 1.0
C      1  0.5410710000000  0.7254500000000  0.6017930000000 1.0
C      1  0.6752920000000  0.6614820000000  0.5896530000000 1.0
C      1  0.7350590000000  0.5251070000000  0.5742690000000 1.0
C      1  0.6735810000000  0.3542300000000  0.6106130000000 1.0
C      1  0.6012490000000  0.2990680000000  0.6278600000000 1.0
C      1  0.4587730000000  0.2746490000000  0.6017190000000 1.0
C      1  0.2736420000000  0.6351900000000  0.5325670000000 1.0
C      1  0.4555100000000  0.7473200000000  0.5678930000000 1.0
C      1  0.6218300000000  0.7308040000000  0.5515490000000 1.0
C      1  0.7363500000000  0.6135530000000  0.5389900000000 1.0
C      1  0.7652420000000  0.4518620000000  0.5190540000000 1.0
C      1  0.7277210000000  0.3646430000000  0.5333530000000 1.0
C      1  0.5440580000000  0.2524260000000  0.5673230000000 1.0
C      1  0.3777440000000  0.2692890000000  0.5521040000000 1.0
C      1  0.2628760000000  0.3870610000000  0.5381400000000 1.0
C      1  0.2358320000000  0.5483370000000  0.5194560000000 1.0
C      1  0.7360290000000  0.6249410000000  0.4426550000000 1.0
C      1  0.7699870000000  0.4664920000000  0.4245330000000 1.0
C      1  0.7039530000000  0.3300190000000  0.4460690000000 1.0
C      1  0.5502280000000  0.2549540000000  0.4700930000000 1.0
C      1  0.3861710000000  0.2678270000000  0.4548990000000 1.0
C      1  0.2648210000000  0.3761310000000  0.4412170000000 1.0
C      1  0.2268590000000  0.5319170000000  0.4246540000000 1.0
C      1  0.2974780000000  0.6696380000000  0.4457350000000 1.0
C      1  0.4485660000000  0.7437360000000  0.4703480000000 1.0
C      1  0.6129570000000  0.7321440000000  0.4547380000000 1.0
C      1  0.6313080000000  0.4288830000000  0.6544650000000 1.0
C      1  0.5554330000000  0.3693940000000  0.6764660000000 1.0
C      1  0.4616990000000  0.3523530000000  0.6559090000000 1.0
C      1  0.3753370000000  0.3946840000000  0.6477810000000 1.0
C      1  0.3384710000000  0.4830620000000  0.6364410000000 1.0
C      1  0.3692200000000  0.5713920000000  0.6550040000000 1.0
C      1  0.4449650000000  0.6308910000000  0.6774870000000 1.0
C      1  0.5385550000000  0.6479840000000  0.6562990000000 1.0
C      1  0.6248810000000  0.6056400000000  0.6478660000000 1.0
C      1  0.6619620000000  0.5174050000000  0.6365830000000 1.0
C      1  0.5179200000000  0.6508720000000  0.3607000000000 1.0
C      1  0.6067480000000  0.6134230000000  0.3522710000000 1.0
C      1  0.6552970000000  0.5303870000000  0.3439720000000 1.0
C      1  0.6438640000000  0.4344520000000  0.3407800000000 1.0
C      1  0.5763220000000  0.3685070000000  0.3610510000000 1.0
C      1  0.4821830000000  0.3487750000000  0.3606820000000 1.0
C      1  0.3934190000000  0.3865240000000  0.3519360000000 1.0
C      1  0.3443820000000  0.4695080000000  0.3435130000000 1.0
C      1  0.3561100000000  0.5654660000000  0.3381890000000 1.0
C      1  0.4236270000000  0.6307360000000  0.3617020000000 1.0
END
