TITL C-1525613-7943-6022 -0.0386279131592039 3375 -8780.39363548699 0 0 60 (C1) n - 1
REM
REM in /home/nfs/bkarasulu/CARBON/AIRSS/Generating-Clusters/ReaxFF-fromJPCA2015/Units_Real/Try2-Higher-symm/Only-C60
REM
REM
REM
REM
REM
REM ./C.cell (863b2abdce7293c0672fb3ba77bf323a)
REM AIRSS Version 0.9.1 bugfix July 2018 build 013d7b7c2542+ Fri, 06 Jul 2018 19:26:36 +0100
REM compiler GCC version 9.2.1 20190827 (Red Hat 9.2.1-1)
REM options -cpp -mtune=generic -march=x86-64 -g -O0 -fpre-include=/usr/include/finclude/math-vector-fortran.h
REM seed 406302181 -780951477 2064023775 -1238061908 488188044 775236346 1448825916 345712518 1065734053 -1406488261 -240649631 -982282215 1995053668 1704460573 -808436336 -533435469 -498656470 679336140 152354526 -2121317273 -674102742 -2095109598 -984489920 -1314510227 -1902045653 -1054863932 -1370194780 2552483 560835297 -183739787 2007702546 755609082 -1534275499
REM
CELL 1.54180   15.00000   15.00000   15.00000   90.00000   90.00000   90.00000
LATT -1
SFAC C  
C      1  0.5613790000000  0.6737150000000  0.3742290000000 1.0
C      1  0.5637170000000  0.5989930000000  0.3177990000000 1.0
C      1  0.5273510000000  0.4336280000000  0.2700940000000 1.0
C      1  0.5507570000000  0.3540690000000  0.3234160000000 1.0
C      1  0.5557900000000  0.2760970000000  0.5062770000000 1.0
C      1  0.5288110000000  0.2903560000000  0.5993810000000 1.0
C      1  0.5460290000000  0.4140510000000  0.7061930000000 1.0
C      1  0.5527000000000  0.5060790000000  0.7139810000000 1.0
C      1  0.5507630000000  0.6677150000000  0.6406270000000 1.0
C      1  0.5541550000000  0.7025230000000  0.5539210000000 1.0
C      1  0.3133790000000  0.6033480000000  0.6975130000000 1.0
C      1  0.3180660000000  0.7210800000000  0.6312630000000 1.0
C      1  0.3046890000000  0.6803270000000  0.5024830000000 1.0
C      1  0.3021770000000  0.6249950000000  0.3794000000000 1.0
C      1  0.3105710000000  0.5560320000000  0.2626170000000 1.0
C      1  0.2936080000000  0.4211240000000  0.2830820000000 1.0
C      1  0.3008640000000  0.3427360000000  0.3952970000000 1.0
C      1  0.3114280000000  0.2714580000000  0.5102140000000 1.0
C      1  0.2951210000000  0.3359740000000  0.6554680000000 1.0
C      1  0.2626940000000  0.4448280000000  0.7187910000000 1.0
C      1  0.2816830000000  0.2727850000000  0.4318630000000 1.0
C      1  0.3527060000000  0.2996300000000  0.5918820000000 1.0
C      1  0.3120880000000  0.4140650000000  0.6602670000000 1.0
C      1  0.2748100000000  0.5280610000000  0.7237310000000 1.0
C      1  0.3765230000000  0.6525560000000  0.6613200000000 1.0
C      1  0.2918410000000  0.7431020000000  0.5507780000000 1.0
C      1  0.2873920000000  0.6908370000000  0.4241300000000 1.0
C      1  0.2881820000000  0.6320870000000  0.3007600000000 1.0
C      1  0.3642000000000  0.4798730000000  0.2801550000000 1.0
C      1  0.2677950000000  0.3473830000000  0.3221930000000 1.0
C      1  0.4883310000000  0.5216110000000  0.6443930000000 1.0
C      1  0.4676970000000  0.6127860000000  0.6136970000000 1.0
C      1  0.4857990000000  0.6496410000000  0.5198750000000 1.0
C      1  0.4873870000000  0.6309560000000  0.4246560000000 1.0
C      1  0.4907560000000  0.5575670000000  0.3602950000000 1.0
C      1  0.4574010000000  0.4714830000000  0.3316520000000 1.0
C      1  0.4839810000000  0.3786480000000  0.3902170000000 1.0
C      1  0.4921150000000  0.3449130000000  0.4757450000000 1.0
C      1  0.4510850000000  0.3517870000000  0.5804670000000 1.0
C      1  0.4709270000000  0.4277100000000  0.6414660000000 1.0
C      1  0.6209530000000  0.3274160000000  0.6213230000000 1.0
C      1  0.6330180000000  0.4102390000000  0.6664910000000 1.0
C      1  0.6422600000000  0.5409800000000  0.7065890000000 1.0
C      1  0.6335540000000  0.6287350000000  0.6684940000000 1.0
C      1  0.6348070000000  0.7211300000000  0.5083060000000 1.0
C      1  0.6396280000000  0.7018050000000  0.4163420000000 1.0
C      1  0.6405330000000  0.5469720000000  0.3060790000000 1.0
C      1  0.6195740000000  0.4615340000000  0.2755000000000 1.0
C      1  0.6455000000000  0.3833150000000  0.3229910000000 1.0
C      1  0.6505440000000  0.2937300000000  0.5288070000000 1.0
C      1  0.7473750000000  0.4514180000000  0.6101370000000 1.0
C      1  0.7284990000000  0.5317420000000  0.6549600000000 1.0
C      1  0.7067890000000  0.6178630000000  0.6119340000000 1.0
C      1  0.7105940000000  0.6602250000000  0.5241860000000 1.0
C      1  0.7113850000000  0.6403890000000  0.4281760000000 1.0
C      1  0.7135180000000  0.5603850000000  0.3696720000000 1.0
C      1  0.7608450000000  0.4756800000000  0.3912930000000 1.0
C      1  0.7164200000000  0.3872170000000  0.3908100000000 1.0
C      1  0.7222660000000  0.3377270000000  0.4789300000000 1.0
C      1  0.7451890000000  0.3948880000000  0.5473960000000 1.0
END
