TITL C-1525613-7943-3176 -0.00287056873113271 3375 -8953.97179640632 0 0 60 (C1) n - 1
REM
REM in /home/nfs/bkarasulu/CARBON/AIRSS/Generating-Clusters/ReaxFF-fromJPCA2015/Units_Real/Try2-Higher-symm/Only-C60
REM
REM
REM
REM
REM
REM ./C.cell (863b2abdce7293c0672fb3ba77bf323a)
REM AIRSS Version 0.9.1 bugfix July 2018 build 013d7b7c2542+ Fri, 06 Jul 2018 19:26:36 +0100
REM compiler GCC version 9.2.1 20190827 (Red Hat 9.2.1-1)
REM options -cpp -mtune=generic -march=x86-64 -g -O0 -fpre-include=/usr/include/finclude/math-vector-fortran.h
REM seed -1928991403 -2045533263 1908123273 -1380812993 -658791325 -1534772619 685924630 -122344700 -38911907 720195988 1799863510 -22006474 89294322 -108975085 1324627686 16294494 1424708734 80869151 -882932354 415330803 -1433630663 883105429 -2962703 278962091 -2092078072 437154603 759716347 1929079509 1073748347 -894584071 -830014397 2046719358 497318668
REM
CELL 1.54180   15.00000   15.00000   15.00000   90.00000   90.00000   90.00000
LATT -1
SFAC C  
C      1  0.2903520000000  0.6333700000000  0.3674460000000 1.0
C      1  0.2548420000000  0.4821810000000  0.3678370000000 1.0
C      1  0.3060750000000  0.3488900000000  0.3678100000000 1.0
C      1  0.4337460000000  0.2604540000000  0.3673880000000 1.0
C      1  0.5895710000000  0.2652030000000  0.3673510000000 1.0
C      1  0.7108320000000  0.3630070000000  0.3672530000000 1.0
C      1  0.7510550000000  0.5132870000000  0.3671430000000 1.0
C      1  0.6952500000000  0.6584370000000  0.3671250000000 1.0
C      1  0.5646930000000  0.7430420000000  0.3672230000000 1.0
C      1  0.4091440000000  0.7343230000000  0.3673660000000 1.0
C      1  0.5333710000000  0.7438480000000  0.5347810000000 1.0
C      1  0.4404490000000  0.7385930000000  0.5348380000000 1.0
C      1  0.2782830000000  0.6062460000000  0.5353860000000 1.0
C      1  0.2538450000000  0.5161510000000  0.5363720000000 1.0
C      1  0.3280620000000  0.3228990000000  0.5363390000000 1.0
C      1  0.4065640000000  0.2723740000000  0.5353370000000 1.0
C      1  0.6156090000000  0.2830230000000  0.5348280000000 1.0
C      1  0.6880510000000  0.3414500000000  0.5348010000000 1.0
C      1  0.7423600000000  0.5434110000000  0.5347400000000 1.0
C      1  0.7089880000000  0.6303010000000  0.5347280000000 1.0
C      1  0.7419080000000  0.5162130000000  0.6302620000000 1.0
C      1  0.6904670000000  0.6502320000000  0.6302460000000 1.0
C      1  0.5592640000000  0.7352720000000  0.6302760000000 1.0
C      1  0.4159310000000  0.7274720000000  0.6304070000000 1.0
C      1  0.2946730000000  0.6287310000000  0.6308240000000 1.0
C      1  0.2578180000000  0.4901630000000  0.6323010000000 1.0
C      1  0.3135560000000  0.3447770000000  0.6322710000000 1.0
C      1  0.4337710000000  0.2665560000000  0.6307690000000 1.0
C      1  0.5899440000000  0.2748290000000  0.6303910000000 1.0
C      1  0.7014290000000  0.3652160000000  0.6303030000000 1.0
C      1  0.3795340000000  0.3191200000000  0.3381340000000 1.0
C      1  0.5112780000000  0.2822520000000  0.3331230000000 1.0
C      1  0.6391420000000  0.3278790000000  0.3416340000000 1.0
C      1  0.7107670000000  0.4435230000000  0.3332430000000 1.0
C      1  0.7063750000000  0.5794070000000  0.3415820000000 1.0
C      1  0.6185960000000  0.6832230000000  0.3332250000000 1.0
C      1  0.4879370000000  0.7210530000000  0.3416270000000 1.0
C      1  0.3624760000000  0.6691770000000  0.3331530000000 1.0
C      1  0.2894280000000  0.5535040000000  0.3381720000000 1.0
C      1  0.2981150000000  0.4223340000000  0.3229480000000 1.0
C      1  0.6731870000000  0.6789260000000  0.4606100000000 1.0
C      1  0.5924140000000  0.7311840000000  0.4606450000000 1.0
C      1  0.3831570000000  0.7189980000000  0.4608490000000 1.0
C      1  0.3098410000000  0.6567000000000  0.4607460000000 1.0
C      1  0.2546940000000  0.4556810000000  0.4640440000000 1.0
C      1  0.2882190000000  0.3684270000000  0.4640270000000 1.0
C      1  0.4638280000000  0.2561580000000  0.4606930000000 1.0
C      1  0.5599920000000  0.2591300000000  0.4608250000000 1.0
C      1  0.7234200000000  0.3904010000000  0.4606780000000 1.0
C      1  0.7483660000000  0.4833150000000  0.4606340000000 1.0
C      1  0.6995860000000  0.5768510000000  0.6746150000000 1.0
C      1  0.6163100000000  0.6795460000000  0.6631990000000 1.0
C      1  0.4886070000000  0.7137400000000  0.6747740000000 1.0
C      1  0.3652550000000  0.6661040000000  0.6636360000000 1.0
C      1  0.2934160000000  0.5552300000000  0.6759900000000 1.0
C      1  0.3005170000000  0.4231540000000  0.6654980000000 1.0
C      1  0.3835190000000  0.3201800000000  0.6759770000000 1.0
C      1  0.5111790000000  0.2862140000000  0.6636070000000 1.0
C      1  0.6345440000000  0.3338310000000  0.6747630000000 1.0
C      1  0.7063990000000  0.4448100000000  0.6632080000000 1.0
END
