TITL C-1525613-7943-4486 0.145064743846654 3375 -8707.17950001543 0 0 60 (C1) n - 1
REM
REM in /home/nfs/bkarasulu/CARBON/AIRSS/Generating-Clusters/ReaxFF-fromJPCA2015/Units_Real/Try2-Higher-symm/Only-C60
REM
REM
REM
REM
REM
REM ./C.cell (863b2abdce7293c0672fb3ba77bf323a)
REM AIRSS Version 0.9.1 bugfix July 2018 build 013d7b7c2542+ Fri, 06 Jul 2018 19:26:36 +0100
REM compiler GCC version 9.2.1 20190827 (Red Hat 9.2.1-1)
REM options -cpp -mtune=generic -march=x86-64 -g -O0 -fpre-include=/usr/include/finclude/math-vector-fortran.h
REM seed -396563046 1850408894 -28955096 271049846 35396794 236560031 1310941537 1163986807 -981013663 -1444740657 -1860233688 1064030233 1078190761 -308796004 1267396943 1754289032 309210849 1658509122 -1593425956 1245677539 -877467316 -1085247286 -1871187011 464176054 951692490 -1699775519 2006162360 965591243 -667638232 -888636736 141942823 546918224 -1689452521
REM
CELL 1.54180   15.00000   15.00000   15.00000   90.00000   90.00000   90.00000
LATT -1
SFAC C  
C      1  0.4062460000000  0.5989320000000  0.5250910000000 1.0
C      1  0.4416730000000  0.4271270000000  0.5119570000000 1.0
C      1  0.4127110000000  0.6043970000000  0.4306960000000 1.0
C      1  0.5076850000000  0.4236850000000  0.4387200000000 1.0
C      1  0.5060820000000  0.5873340000000  0.4070060000000 1.0
C      1  0.5948520000000  0.4034060000000  0.4772440000000 1.0
C      1  0.5597100000000  0.5729790000000  0.4876470000000 1.0
C      1  0.5869680000000  0.3967810000000  0.5712780000000 1.0
C      1  0.4941570000000  0.5773160000000  0.5615950000000 1.0
C      1  0.4927650000000  0.4111350000000  0.5957750000000 1.0
C      1  0.6416960000000  0.5812570000000  0.6532950000000 1.0
C      1  0.5663530000000  0.3444350000000  0.6967530000000 1.0
C      1  0.4235620000000  0.6027110000000  0.6808190000000 1.0
C      1  0.3154420000000  0.4090320000000  0.5688040000000 1.0
C      1  0.2596980000000  0.6559140000000  0.5360490000000 1.0
C      1  0.3589010000000  0.4178980000000  0.3453290000000 1.0
C      1  0.4259340000000  0.6556270000000  0.3036340000000 1.0
C      1  0.5792430000000  0.3971910000000  0.3195750000000 1.0
C      1  0.6860590000000  0.5908850000000  0.4305950000000 1.0
C      1  0.7411990000000  0.3455280000000  0.4679190000000 1.0
C      1  0.5703660000000  0.7227910000000  0.4936150000000 1.0
C      1  0.5684460000000  0.2400570000000  0.5673720000000 1.0
C      1  0.5032300000000  0.7283840000000  0.5670250000000 1.0
C      1  0.4742320000000  0.2580620000000  0.5866980000000 1.0
C      1  0.4181380000000  0.7546000000000  0.5282810000000 1.0
C      1  0.4294290000000  0.2767570000000  0.5024360000000 1.0
C      1  0.4309040000000  0.7599020000000  0.4318220000000 1.0
C      1  0.4980540000000  0.2725040000000  0.4309070000000 1.0
C      1  0.5236530000000  0.7379870000000  0.4096940000000 1.0
C      1  0.5827390000000  0.2468720000000  0.4712210000000 1.0
C      1  0.6580080000000  0.5407430000000  0.3428630000000 1.0
C      1  0.7251550000000  0.4395660000000  0.4346190000000 1.0
C      1  0.7043080000000  0.5246030000000  0.5911920000000 1.0
C      1  0.6202400000000  0.4299790000000  0.7093710000000 1.0
C      1  0.4803860000000  0.5353390000000  0.7248270000000 1.0
C      1  0.3435360000000  0.4591830000000  0.6565980000000 1.0
C      1  0.2770870000000  0.5611460000000  0.5661230000000 1.0
C      1  0.2968600000000  0.4753940000000  0.4095740000000 1.0
C      1  0.3772380000000  0.5696640000000  0.2885270000000 1.0
C      1  0.5205880000000  0.4639220000000  0.2766480000000 1.0
C      1  0.4152990000000  0.4764540000000  0.2891350000000 1.0
C      1  0.5815520000000  0.5318590000000  0.2892270000000 1.0
C      1  0.6638400000000  0.4455000000000  0.3554360000000 1.0
C      1  0.7177430000000  0.5227120000000  0.4905900000000 1.0
C      1  0.6877660000000  0.4531640000000  0.6489520000000 1.0
C      1  0.5845600000000  0.5226620000000  0.7106180000000 1.0
C      1  0.4189040000000  0.4678680000000  0.7118360000000 1.0
C      1  0.3380820000000  0.5547310000000  0.6450210000000 1.0
C      1  0.2834680000000  0.4776440000000  0.5094480000000 1.0
C      1  0.3126580000000  0.5460610000000  0.3518050000000 1.0
C      1  0.5158230000000  0.6626380000000  0.3449850000000 1.0
C      1  0.6451050000000  0.3216920000000  0.4494640000000 1.0
C      1  0.6290600000000  0.6432700000000  0.4904150000000 1.0
C      1  0.6134600000000  0.3116940000000  0.6177190000000 1.0
C      1  0.4919510000000  0.6506340000000  0.6270550000000 1.0
C      1  0.4779690000000  0.3323780000000  0.6530110000000 1.0
C      1  0.3558280000000  0.6805260000000  0.5529780000000 1.0
C      1  0.3720870000000  0.3576090000000  0.5076310000000 1.0
C      1  0.3826820000000  0.6886920000000  0.3838600000000 1.0
C      1  0.5086290000000  0.3511830000000  0.3716220000000 1.0
END
