TITL C-1525613-7943-3385 -0.0391804043391167 3375 -9221.16219127076 0 0 60 (C1) n - 1
REM
REM in /home/nfs/bkarasulu/CARBON/AIRSS/Generating-Clusters/ReaxFF-fromJPCA2015/Units_Real/Try2-Higher-symm/Only-C60
REM
REM
REM
REM
REM
REM ./C.cell (863b2abdce7293c0672fb3ba77bf323a)
REM AIRSS Version 0.9.1 bugfix July 2018 build 013d7b7c2542+ Fri, 06 Jul 2018 19:26:36 +0100
REM compiler GCC version 9.2.1 20190827 (Red Hat 9.2.1-1)
REM options -cpp -mtune=generic -march=x86-64 -g -O0 -fpre-include=/usr/include/finclude/math-vector-fortran.h
REM seed -467602555 2122902956 -2129478181 717784031 1222554699 -598133579 -1313043445 -379395495 -1063176058 -480502832 1233685476 928469768 976324387 -2066747808 16488939 -1444284566 -361143492 1216489318 -1242828421 -1476882468 428014059 331837807 -1730566450 1231494022 915437057 -1378391318 2069921218 1639756553 -448049349 -330505887 1771635458 -1513898627 1508158388
REM
CELL 1.54180   15.00000   15.00000   15.00000   90.00000   90.00000   90.00000
LATT -1
SFAC C  
C      1  0.7623010000000  0.6528790000000  0.5615890000000 1.0
C      1  0.7249420000000  0.3409310000000  0.5222640000000 1.0
C      1  0.3953580000000  0.2093450000000  0.5276210000000 1.0
C      1  0.1765220000000  0.5205220000000  0.5452140000000 1.0
C      1  0.4440450000000  0.7760220000000  0.5534030000000 1.0
C      1  0.7630480000000  0.3410850000000  0.4345940000000 1.0
C      1  0.7277700000000  0.6650600000000  0.4727710000000 1.0
C      1  0.3951670000000  0.7973270000000  0.4728390000000 1.0
C      1  0.1759310000000  0.4812580000000  0.4536580000000 1.0
C      1  0.4474750000000  0.1959900000000  0.4443000000000 1.0
C      1  0.3523030000000  0.6566640000000  0.6109390000000 1.0
C      1  0.5814690000000  0.7111300000000  0.6043310000000 1.0
C      1  0.7236940000000  0.5024100000000  0.6295010000000 1.0
C      1  0.5276410000000  0.3012220000000  0.6036260000000 1.0
C      1  0.3073140000000  0.4138000000000  0.5928600000000 1.0
C      1  0.3534010000000  0.3442010000000  0.3946300000000 1.0
C      1  0.5849180000000  0.2853850000000  0.3874850000000 1.0
C      1  0.7262340000000  0.4971180000000  0.3743720000000 1.0
C      1  0.5298950000000  0.7008690000000  0.3924340000000 1.0
C      1  0.3093190000000  0.5878100000000  0.4079320000000 1.0
C      1  0.3709080000000  0.7138440000000  0.4174380000000 1.0
C      1  0.6829280000000  0.6543550000000  0.3919090000000 1.0
C      1  0.7096940000000  0.4003600000000  0.3671190000000 1.0
C      1  0.4896450000000  0.2589220000000  0.3811510000000 1.0
C      1  0.2511640000000  0.4424030000000  0.4030690000000 1.0
C      1  0.3701910000000  0.2869900000000  0.5824620000000 1.0
C      1  0.6803090000000  0.3463170000000  0.6011820000000 1.0
C      1  0.7075780000000  0.5989910000000  0.6337830000000 1.0
C      1  0.4862890000000  0.7404800000000  0.6246020000000 1.0
C      1  0.2507280000000  0.5588620000000  0.5973650000000 1.0
C      1  0.6173880000000  0.6278300000000  0.6496010000000 1.0
C      1  0.6553560000000  0.4317850000000  0.6405810000000 1.0
C      1  0.4488630000000  0.3304110000000  0.6337780000000 1.0
C      1  0.3164940000000  0.4905560000000  0.6367170000000 1.0
C      1  0.4255930000000  0.6696860000000  0.6634680000000 1.0
C      1  0.6215540000000  0.3727210000000  0.3469180000000 1.0
C      1  0.6579390000000  0.5676140000000  0.3567120000000 1.0
C      1  0.4490480000000  0.6708840000000  0.3670870000000 1.0
C      1  0.3176140000000  0.5101250000000  0.3651720000000 1.0
C      1  0.4281970000000  0.3311820000000  0.3455460000000 1.0
C      1  0.2985260000000  0.6619750000000  0.4550140000000 1.0
C      1  0.6163060000000  0.7299620000000  0.4194470000000 1.0
C      1  0.7541170000000  0.5030950000000  0.4620420000000 1.0
C      1  0.5919130000000  0.2713230000000  0.4779080000000 1.0
C      1  0.2811860000000  0.3567940000000  0.4420240000000 1.0
C      1  0.2965210000000  0.3397190000000  0.5465930000000 1.0
C      1  0.6114520000000  0.2718750000000  0.5719120000000 1.0
C      1  0.7661570000000  0.5118480000000  0.5459040000000 1.0
C      1  0.6034910000000  0.7223940000000  0.5147810000000 1.0
C      1  0.2823510000000  0.6443100000000  0.5599790000000 1.0
C      1  0.4757350000000  0.4252000000000  0.6592320000000 1.0
C      1  0.4123950000000  0.4974230000000  0.6701130000000 1.0
C      1  0.4609120000000  0.5784590000000  0.6856760000000 1.0
C      1  0.5551960000000  0.5592990000000  0.6778220000000 1.0
C      1  0.5666860000000  0.4624600000000  0.6639570000000 1.0
C      1  0.4775080000000  0.5751240000000  0.3434470000000 1.0
C      1  0.4145390000000  0.5029380000000  0.3337380000000 1.0
C      1  0.4630260000000  0.4215940000000  0.3194380000000 1.0
C      1  0.5574660000000  0.4409600000000  0.3227620000000 1.0
C      1  0.5682910000000  0.5379030000000  0.3361870000000 1.0
END
