TITL C-1525613-7943-2133 0.682070991324089 3375 -8330.98526699143 0 0 60 (S10) n - 1
REM
REM in /home/nfs/bkarasulu/CARBON/AIRSS/Generating-Clusters/ReaxFF-fromJPCA2015/Units_Real/Try2-Higher-symm/Only-C60
REM
REM
REM
REM
REM
REM ./C.cell (863b2abdce7293c0672fb3ba77bf323a)
REM AIRSS Version 0.9.1 bugfix July 2018 build 013d7b7c2542+ Fri, 06 Jul 2018 19:26:36 +0100
REM compiler GCC version 9.2.1 20190827 (Red Hat 9.2.1-1)
REM options -cpp -mtune=generic -march=x86-64 -g -O0 -fpre-include=/usr/include/finclude/math-vector-fortran.h
REM seed -174159350 -1059581567 1211966953 1581352274 1951618369 -1235216552 383268338 365677725 -1468278413 -691225195 -253511653 2105128220 -521238350 1243595793 71014896 1169431078 619886537 650319124 -1726824271 -54845337 937507661 -268002991 -327881059 -2008835658 1472494418 -669452126 89969887 2114205836 -1632257040 1085327342 434676789 1159842608 -1904894011
REM
CELL 1.54180   15.00000   15.00000   15.00000   90.00000   90.00000   90.00000
LATT -1
SFAC C  
C      1  0.2803180000000  0.5191260000000  0.4077540000000 1.0
C      1  0.3112690000000  0.3861740000000  0.5923000000000 1.0
C      1  0.4139960000000  0.2965690000000  0.4073520000000 1.0
C      1  0.5496700000000  0.2849440000000  0.5924200000000 1.0
C      1  0.6664510000000  0.3552770000000  0.4076760000000 1.0
C      1  0.7196770000000  0.4808440000000  0.5923060000000 1.0
C      1  0.6887530000000  0.6138400000000  0.4076690000000 1.0
C      1  0.5856340000000  0.7033290000000  0.5926200000000 1.0
C      1  0.4500810000000  0.7152540000000  0.4077530000000 1.0
C      1  0.3336050000000  0.6446610000000  0.5924090000000 1.0
C      1  0.4217170000000  0.6594550000000  0.6339780000000 1.0
C      1  0.3430440000000  0.5827570000000  0.3661300000000 1.0
C      1  0.3245660000000  0.4744480000000  0.6339180000000 1.0
C      1  0.3732230000000  0.3759290000000  0.3662380000000 1.0
C      1  0.4698030000000  0.3250180000000  0.6339590000000 1.0
C      1  0.5784120000000  0.3407700000000  0.3659440000000 1.0
C      1  0.6569650000000  0.4175210000000  0.6339010000000 1.0
C      1  0.6754190000000  0.5255080000000  0.3661000000000 1.0
C      1  0.6267980000000  0.6239920000000  0.6338050000000 1.0
C      1  0.5304310000000  0.6748260000000  0.3660170000000 1.0
C      1  0.4180980000000  0.4873410000000  0.6532610000000 1.0
C      1  0.4411810000000  0.4415440000000  0.3467370000000 1.0
C      1  0.4867680000000  0.4180950000000  0.6532620000000 1.0
C      1  0.5373910000000  0.4259220000000  0.3467230000000 1.0
C      1  0.5736830000000  0.4620370000000  0.6533120000000 1.0
C      1  0.5819440000000  0.5126230000000  0.3467420000000 1.0
C      1  0.5587730000000  0.5585440000000  0.6532680000000 1.0
C      1  0.5132120000000  0.5819270000000  0.3467260000000 1.0
C      1  0.4626490000000  0.5741070000000  0.6532520000000 1.0
C      1  0.4263120000000  0.5379250000000  0.3467010000000 1.0
C      1  0.4596950000000  0.7309500000000  0.5048070000000 1.0
C      1  0.3314980000000  0.6635020000000  0.4957590000000 1.0
C      1  0.2675610000000  0.5331510000000  0.5041390000000 1.0
C      1  0.2925120000000  0.3900940000000  0.4958070000000 1.0
C      1  0.3967640000000  0.2898100000000  0.5041770000000 1.0
C      1  0.5404340000000  0.2690430000000  0.4958170000000 1.0
C      1  0.6685200000000  0.3363820000000  0.5040360000000 1.0
C      1  0.7323330000000  0.4669640000000  0.4957850000000 1.0
C      1  0.7075860000000  0.6098540000000  0.5041900000000 1.0
C      1  0.6032620000000  0.7103410000000  0.4957070000000 1.0
C      1  0.3815450000000  0.4356360000000  0.4940600000000 1.0
C      1  0.4419830000000  0.3786630000000  0.5055090000000 1.0
C      1  0.5239970000000  0.3675660000000  0.4948310000000 1.0
C      1  0.5975220000000  0.4069080000000  0.5057570000000 1.0
C      1  0.6337160000000  0.4822990000000  0.4941520000000 1.0
C      1  0.6183920000000  0.5643870000000  0.5059480000000 1.0
C      1  0.5583310000000  0.6214690000000  0.4947370000000 1.0
C      1  0.4758830000000  0.6320570000000  0.5044230000000 1.0
C      1  0.4022780000000  0.5928950000000  0.4944800000000 1.0
C      1  0.3664420000000  0.5179280000000  0.5057900000000 1.0
C      1  0.6217090000000  0.6867770000000  0.4021660000000 1.0
C      1  0.4888170000000  0.7227940000000  0.5977140000000 1.0
C      1  0.3597410000000  0.6737170000000  0.4021240000000 1.0
C      1  0.2842770000000  0.5582590000000  0.5979670000000 1.0
C      1  0.2911890000000  0.4201220000000  0.4021330000000 1.0
C      1  0.3782020000000  0.3131380000000  0.5976930000000 1.0
C      1  0.5110870000000  0.2773850000000  0.4022820000000 1.0
C      1  0.6403150000000  0.3259190000000  0.5978700000000 1.0
C      1  0.7158180000000  0.4417730000000  0.4020250000000 1.0
C      1  0.7087490000000  0.5799060000000  0.5978840000000 1.0
END
