TITL C-1525613-7943-5883 0.0491303271852752 3375 -8900.04066420031 0 0 60 (Cs) n - 1
REM
REM in /home/nfs/bkarasulu/CARBON/AIRSS/Generating-Clusters/ReaxFF-fromJPCA2015/Units_Real/Try2-Higher-symm/Only-C60
REM
REM
REM
REM
REM
REM ./C.cell (863b2abdce7293c0672fb3ba77bf323a)
REM AIRSS Version 0.9.1 bugfix July 2018 build 013d7b7c2542+ Fri, 06 Jul 2018 19:26:36 +0100
REM compiler GCC version 9.2.1 20190827 (Red Hat 9.2.1-1)
REM options -cpp -mtune=generic -march=x86-64 -g -O0 -fpre-include=/usr/include/finclude/math-vector-fortran.h
REM seed 1254858948 1179483150 48955688 -490162883 -524798932 49556375 1770694552 -1354898385 -1320017741 1277299939 167428654 230935476 -1789466771 1535004489 311297376 -476683522 -1404419218 1836427516 -1957316059 -53735892 -1183018653 -642843126 1247748882 -573599203 741102191 500983194 -132125756 -1421928969 582217930 -84889027 -397243366 201400406 -75510048
REM
CELL 1.54180   15.00000   15.00000   15.00000   90.00000   90.00000   90.00000
LATT -1
SFAC C  
C      1  0.6205420000000  0.6950430000000  0.6046180000000 1.0
C      1  0.4432320000000  0.6978420000000  0.6497750000000 1.0
C      1  0.3478130000000  0.6966970000000  0.4893520000000 1.0
C      1  0.4667240000000  0.6969190000000  0.3531850000000 1.0
C      1  0.6325940000000  0.6971470000000  0.4233360000000 1.0
C      1  0.6205750000000  0.3050890000000  0.6043320000000 1.0
C      1  0.4431970000000  0.3024210000000  0.6495490000000 1.0
C      1  0.3479160000000  0.3032140000000  0.4889870000000 1.0
C      1  0.4668070000000  0.3028120000000  0.3525880000000 1.0
C      1  0.6327070000000  0.3027280000000  0.4229930000000 1.0
C      1  0.3083020000000  0.5952660000000  0.4767980000000 1.0
C      1  0.4606670000000  0.5938970000000  0.3211760000000 1.0
C      1  0.6534580000000  0.5921580000000  0.4114910000000 1.0
C      1  0.6526030000000  0.6006010000000  0.6326810000000 1.0
C      1  0.4299040000000  0.6071530000000  0.6975170000000 1.0
C      1  0.3084630000000  0.4046940000000  0.4767290000000 1.0
C      1  0.4607370000000  0.4060330000000  0.3215490000000 1.0
C      1  0.6532610000000  0.4078160000000  0.4115910000000 1.0
C      1  0.6528530000000  0.3993280000000  0.6328950000000 1.0
C      1  0.4298120000000  0.3930940000000  0.6973270000000 1.0
C      1  0.7117880000000  0.4495210000000  0.5745070000000 1.0
C      1  0.5040460000000  0.4501540000000  0.7241020000000 1.0
C      1  0.2944150000000  0.4533410000000  0.5632820000000 1.0
C      1  0.3654140000000  0.4513570000000  0.3129870000000 1.0
C      1  0.6335140000000  0.4510300000000  0.3194480000000 1.0
C      1  0.7117000000000  0.5503980000000  0.5744620000000 1.0
C      1  0.5040310000000  0.5498630000000  0.7240880000000 1.0
C      1  0.2942080000000  0.5469770000000  0.5633520000000 1.0
C      1  0.3654690000000  0.5482550000000  0.3130200000000 1.0
C      1  0.6335020000000  0.5486250000000  0.3195560000000 1.0
C      1  0.5637200000000  0.5525830000000  0.4591290000000 1.0
C      1  0.5362460000000  0.5483850000000  0.5553190000000 1.0
C      1  0.4460490000000  0.5803500000000  0.5637510000000 1.0
C      1  0.4079780000000  0.5541860000000  0.4781930000000 1.0
C      1  0.4777740000000  0.5532630000000  0.4100950000000 1.0
C      1  0.5638410000000  0.4474460000000  0.4594270000000 1.0
C      1  0.5361350000000  0.4520270000000  0.5553590000000 1.0
C      1  0.4461300000000  0.4198040000000  0.5637580000000 1.0
C      1  0.4080040000000  0.4453150000000  0.4781080000000 1.0
C      1  0.4779480000000  0.4463190000000  0.4105050000000 1.0
C      1  0.4011950000000  0.7154470000000  0.5642710000000 1.0
C      1  0.4138580000000  0.7209680000000  0.4272300000000 1.0
C      1  0.5461000000000  0.7231290000000  0.3957540000000 1.0
C      1  0.6171780000000  0.7210880000000  0.5125830000000 1.0
C      1  0.5289890000000  0.7181740000000  0.6157940000000 1.0
C      1  0.4012930000000  0.2850110000000  0.5639910000000 1.0
C      1  0.4140420000000  0.2792490000000  0.4268360000000 1.0
C      1  0.5462970000000  0.2768150000000  0.3951350000000 1.0
C      1  0.6170310000000  0.2790980000000  0.5122660000000 1.0
C      1  0.5290220000000  0.2820730000000  0.6156100000000 1.0
C      1  0.3742600000000  0.4438840000000  0.6316660000000 1.0
C      1  0.2960180000000  0.4510580000000  0.3829840000000 1.0
C      1  0.5440670000000  0.4512310000000  0.2779940000000 1.0
C      1  0.7193010000000  0.4516230000000  0.4749680000000 1.0
C      1  0.6017400000000  0.4503690000000  0.6970690000000 1.0
C      1  0.3742570000000  0.5567470000000  0.6318090000000 1.0
C      1  0.2961470000000  0.5485610000000  0.3831070000000 1.0
C      1  0.5440610000000  0.5484370000000  0.2780100000000 1.0
C      1  0.7193550000000  0.5482580000000  0.4749200000000 1.0
C      1  0.6017100000000  0.5496280000000  0.6970860000000 1.0
END
