TITL C-1525613-7943-4345 -0.00743211011967889 3375 -9894.72438147655 0 0 60 (Ih) n - 1
REM
REM in /home/nfs/bkarasulu/CARBON/AIRSS/Generating-Clusters/ReaxFF-fromJPCA2015/Units_Real/Try2-Higher-symm/Only-C60
REM
REM
REM
REM
REM
REM ./C.cell (863b2abdce7293c0672fb3ba77bf323a)
REM AIRSS Version 0.9.1 bugfix July 2018 build 013d7b7c2542+ Fri, 06 Jul 2018 19:26:36 +0100
REM compiler GCC version 9.2.1 20190827 (Red Hat 9.2.1-1)
REM options -cpp -mtune=generic -march=x86-64 -g -O0 -fpre-include=/usr/include/finclude/math-vector-fortran.h
REM seed 418009959 300532371 1420650787 225434036 -203412896 220009744 -1917739789 1676893999 1329851875 -1660577729 1351271211 978147421 72700877 -1677004591 353612802 857936217 1714241088 -1905311724 -1544018037 -2059233659 786334354 1229872491 -544441947 -583110518 -1931757218 -299616685 -1206723297 1932995658 1604883195 -1991224401 537504877 -674727243 -1600783442
REM
CELL 1.54180   15.00000   15.00000   15.00000   90.00000   90.00000   90.00000
LATT -1
SFAC C  
C      1  0.6293900000000  0.6717320000000  0.4009710000000 1.0
C      1  0.6628570000000  0.3283270000000  0.4960270000000 1.0
C      1  0.6341160000000  0.6716270000000  0.5924100000000 1.0
C      1  0.5541020000000  0.3282570000000  0.6536620000000 1.0
C      1  0.4535160000000  0.6715810000000  0.6560320000000 1.0
C      1  0.3706080000000  0.3282650000000  0.5990310000000 1.0
C      1  0.3371820000000  0.6716750000000  0.5039690000000 1.0
C      1  0.3658660000000  0.3283820000000  0.4075720000000 1.0
C      1  0.4458870000000  0.6717400000000  0.3463100000000 1.0
C      1  0.5464770000000  0.3284410000000  0.3439810000000 1.0
C      1  0.7277580000000  0.4595970000000  0.4464580000000 1.0
C      1  0.7157630000000  0.5403580000000  0.5906060000000 1.0
C      1  0.6212070000000  0.4594680000000  0.7001420000000 1.0
C      1  0.4805150000000  0.5403480000000  0.7332260000000 1.0
C      1  0.3470890000000  0.4594840000000  0.6772180000000 1.0
C      1  0.2722440000000  0.5404030000000  0.5535440000000 1.0
C      1  0.2842420000000  0.4596460000000  0.4093960000000 1.0
C      1  0.3787950000000  0.5405250000000  0.2998530000000 1.0
C      1  0.5194790000000  0.4596490000000  0.2667770000000 1.0
C      1  0.6529060000000  0.5405040000000  0.3227810000000 1.0
C      1  0.6613320000000  0.5403310000000  0.6694490000000 1.0
C      1  0.5309980000000  0.4594760000000  0.7319670000000 1.0
C      1  0.3886930000000  0.5403680000000  0.7058860000000 1.0
C      1  0.2890010000000  0.4595110000000  0.6011880000000 1.0
C      1  0.2698210000000  0.5404520000000  0.4578080000000 1.0
C      1  0.3386640000000  0.4596670000000  0.3305520000000 1.0
C      1  0.4690040000000  0.5405110000000  0.2680330000000 1.0
C      1  0.6113100000000  0.4596340000000  0.2941210000000 1.0
C      1  0.7109980000000  0.5404850000000  0.3988080000000 1.0
C      1  0.7301790000000  0.4595450000000  0.5421880000000 1.0
C      1  0.4327070000000  0.2789210000000  0.4536230000000 1.0
C      1  0.4728900000000  0.7210710000000  0.4229640000000 1.0
C      1  0.5233030000000  0.2789510000000  0.4217070000000 1.0
C      1  0.5648720000000  0.7210570000000  0.4503540000000 1.0
C      1  0.5816700000000  0.2789140000000  0.4980130000000 1.0
C      1  0.5672980000000  0.7210700000000  0.5463690000000 1.0
C      1  0.5271210000000  0.2789370000000  0.5770550000000 1.0
C      1  0.4766880000000  0.7210610000000  0.5783090000000 1.0
C      1  0.4351080000000  0.2789380000000  0.5496570000000 1.0
C      1  0.4183420000000  0.7210690000000  0.5019800000000 1.0
C      1  0.3643020000000  0.6219780000000  0.3482540000000 1.0
C      1  0.4794340000000  0.3781060000000  0.2975910000000 1.0
C      1  0.6024300000000  0.6219610000000  0.3239650000000 1.0
C      1  0.6861600000000  0.3780740000000  0.4178640000000 1.0
C      1  0.6989610000000  0.6218970000000  0.5429920000000 1.0
C      1  0.6357010000000  0.3780240000000  0.6517310000000 1.0
C      1  0.5205610000000  0.6218860000000  0.7024220000000 1.0
C      1  0.3975650000000  0.3780430000000  0.6760330000000 1.0
C      1  0.3138580000000  0.6219360000000  0.5821380000000 1.0
C      1  0.3010420000000  0.3781070000000  0.4570120000000 1.0
C      1  0.5106170000000  0.6219590000000  0.2966340000000 1.0
C      1  0.6279720000000  0.3781060000000  0.3418160000000 1.0
C      1  0.6966060000000  0.6219690000000  0.4472400000000 1.0
C      1  0.6900860000000  0.3780680000000  0.5728930000000 1.0
C      1  0.6108720000000  0.6219040000000  0.6705830000000 1.0
C      1  0.4893770000000  0.3780390000000  0.7033550000000 1.0
C      1  0.3720290000000  0.6218850000000  0.6582060000000 1.0
C      1  0.3033910000000  0.3780410000000  0.5527570000000 1.0
C      1  0.3099230000000  0.6219410000000  0.4271000000000 1.0
C      1  0.3891150000000  0.3780990000000  0.3294150000000 1.0
END
