TITL C-1525613-7943-691 0.127981322194853 3375 -8825.69850626505 0 0 60 (C1) n - 1
REM
REM in /home/nfs/bkarasulu/CARBON/AIRSS/Generating-Clusters/ReaxFF-fromJPCA2015/Units_Real/Try2-Higher-symm/Only-C60
REM
REM
REM
REM
REM
REM ./C.cell (863b2abdce7293c0672fb3ba77bf323a)
REM AIRSS Version 0.9.1 bugfix July 2018 build 013d7b7c2542+ Fri, 06 Jul 2018 19:26:36 +0100
REM compiler GCC version 9.2.1 20190827 (Red Hat 9.2.1-1)
REM options -cpp -mtune=generic -march=x86-64 -g -O0 -fpre-include=/usr/include/finclude/math-vector-fortran.h
REM seed -1177153445 -2069847628 -578406587 1031899597 1495081241 -1156572719 2004980710 1529413674 1028619245 633461213 1209886795 1162273598 105334409 1130575243 -1444398199 331460920 567883290 -925517364 -1053969430 762555353 -1150319228 -1545185545 -1233794857 454169828 414448880 -869408978 1281157300 -1899872519 -1410720235 -479945485 269361671 1469293907 1703558091
REM
CELL 1.54180   15.00000   15.00000   15.00000   90.00000   90.00000   90.00000
LATT -1
SFAC C  
C      1  0.4361390000000  0.7194270000000  0.7295800000000 1.0
C      1  0.4303510000000  0.7961240000000  0.3525770000000 1.0
C      1  0.4586200000000  0.4484230000000  0.2045430000000 1.0
C      1  0.4372910000000  0.1959810000000  0.4356300000000 1.0
C      1  0.4348270000000  0.3489670000000  0.7800380000000 1.0
C      1  0.4364320000000  0.2802540000000  0.7293390000000 1.0
C      1  0.4392650000000  0.2092580000000  0.3498060000000 1.0
C      1  0.4577000000000  0.5504310000000  0.2046440000000 1.0
C      1  0.4369450000000  0.8046930000000  0.4358370000000 1.0
C      1  0.4346770000000  0.6508540000000  0.7804550000000 1.0
C      1  0.5834460000000  0.6799800000000  0.3867800000000 1.0
C      1  0.5800350000000  0.4549260000000  0.3063610000000 1.0
C      1  0.5793970000000  0.2959120000000  0.4787630000000 1.0
C      1  0.5863070000000  0.4141350000000  0.6984540000000 1.0
C      1  0.5878890000000  0.6648540000000  0.6444720000000 1.0
C      1  0.5824100000000  0.3208380000000  0.3879490000000 1.0
C      1  0.5807860000000  0.5444490000000  0.3054970000000 1.0
C      1  0.5807660000000  0.7042870000000  0.4795610000000 1.0
C      1  0.5867800000000  0.5860150000000  0.6987680000000 1.0
C      1  0.5877870000000  0.3351800000000  0.6450110000000 1.0
C      1  0.5277220000000  0.3962820000000  0.2554340000000 1.0
C      1  0.5157420000000  0.2504470000000  0.5318610000000 1.0
C      1  0.5161620000000  0.4528130000000  0.7502120000000 1.0
C      1  0.5163470000000  0.7246840000000  0.6220700000000 1.0
C      1  0.5179190000000  0.6736880000000  0.3176750000000 1.0
C      1  0.5291180000000  0.6021540000000  0.2533950000000 1.0
C      1  0.5159300000000  0.7497340000000  0.5317390000000 1.0
C      1  0.5159740000000  0.5469030000000  0.7503460000000 1.0
C      1  0.5163190000000  0.2757750000000  0.6216810000000 1.0
C      1  0.5164410000000  0.3205360000000  0.3171970000000 1.0
C      1  0.6617080000000  0.3733670000000  0.5916010000000 1.0
C      1  0.6578990000000  0.5468340000000  0.6481450000000 1.0
C      1  0.6588090000000  0.6538700000000  0.4997090000000 1.0
C      1  0.6658410000000  0.5489300000000  0.3496650000000 1.0
C      1  0.6656270000000  0.3713600000000  0.4034290000000 1.0
C      1  0.6613460000000  0.6261110000000  0.5907030000000 1.0
C      1  0.6572360000000  0.4535060000000  0.6483410000000 1.0
C      1  0.6608290000000  0.3452180000000  0.4995390000000 1.0
C      1  0.6658740000000  0.4507900000000  0.3496370000000 1.0
C      1  0.6660520000000  0.6273690000000  0.4051450000000 1.0
C      1  0.3799320000000  0.3687640000000  0.4096620000000 1.0
C      1  0.3813700000000  0.3730350000000  0.5946320000000 1.0
C      1  0.3796650000000  0.5485880000000  0.6504630000000 1.0
C      1  0.3787570000000  0.6578050000000  0.5019190000000 1.0
C      1  0.3666570000000  0.5529800000000  0.3564850000000 1.0
C      1  0.3811540000000  0.6320970000000  0.4084770000000 1.0
C      1  0.3817120000000  0.6270390000000  0.5941710000000 1.0
C      1  0.3795900000000  0.4516510000000  0.6507150000000 1.0
C      1  0.3784810000000  0.3421850000000  0.5026430000000 1.0
C      1  0.3669030000000  0.4475430000000  0.3562240000000 1.0
C      1  0.4216860000000  0.4301370000000  0.7391850000000 1.0
C      1  0.4249810000000  0.7045740000000  0.6399250000000 1.0
C      1  0.4260480000000  0.7006010000000  0.3436550000000 1.0
C      1  0.3977560000000  0.4250330000000  0.2701740000000 1.0
C      1  0.4204700000000  0.2521100000000  0.5078420000000 1.0
C      1  0.4215890000000  0.5698780000000  0.7391690000000 1.0
C      1  0.4250600000000  0.2954730000000  0.6398330000000 1.0
C      1  0.4230490000000  0.3008910000000  0.3446100000000 1.0
C      1  0.3977920000000  0.5764520000000  0.2708710000000 1.0
C      1  0.4206030000000  0.7478070000000  0.5077540000000 1.0
END
