TITL C-1525613-7943-5502 -0.0363807871770554 3375 -9259.45195426677 0 0 60 (D5h) n - 1
REM
REM in /home/nfs/bkarasulu/CARBON/AIRSS/Generating-Clusters/ReaxFF-fromJPCA2015/Units_Real/Try2-Higher-symm/Only-C60
REM
REM
REM
REM
REM
REM ./C.cell (863b2abdce7293c0672fb3ba77bf323a)
REM AIRSS Version 0.9.1 bugfix July 2018 build 013d7b7c2542+ Fri, 06 Jul 2018 19:26:36 +0100
REM compiler GCC version 9.2.1 20190827 (Red Hat 9.2.1-1)
REM options -cpp -mtune=generic -march=x86-64 -g -O0 -fpre-include=/usr/include/finclude/math-vector-fortran.h
REM seed -888814799 753038912 -1838263955 -410284101 -1284453021 138503653 -1857555660 -942758140 -802852932 -2142556667 2145363769 -1560007203 1201610118 1110761889 575547529 73274291 -698384103 -2073565886 -923411129 946174980 -1982846177 1891888733 1513605762 -1523712432 820129858 -325858613 1752860586 -1224156783 -731748279 284298589 -438459296 877099353 -1462931061
REM
CELL 1.54180   15.00000   15.00000   15.00000   90.00000   90.00000   90.00000
LATT -1
SFAC C  
C      1  0.5813050000000  0.5485160000000  0.7672400000000 1.0
C      1  0.7794620000000  0.5484580000000  0.5050330000000 1.0
C      1  0.5912410000000  0.5483780000000  0.2361880000000 1.0
C      1  0.2766760000000  0.5485100000000  0.3314720000000 1.0
C      1  0.2710330000000  0.5484340000000  0.6600390000000 1.0
C      1  0.5813540000000  0.4516550000000  0.7672930000000 1.0
C      1  0.7790870000000  0.4515690000000  0.5050870000000 1.0
C      1  0.5912990000000  0.4515240000000  0.2361920000000 1.0
C      1  0.2770000000000  0.4515770000000  0.3317760000000 1.0
C      1  0.2713820000000  0.4515680000000  0.6597050000000 1.0
C      1  0.2257700000000  0.5482490000000  0.4877570000000 1.0
C      1  0.4031940000000  0.5482510000000  0.7571860000000 1.0
C      1  0.7146620000000  0.5483290000000  0.6710500000000 1.0
C      1  0.7292300000000  0.5482010000000  0.3487840000000 1.0
C      1  0.4270900000000  0.5482730000000  0.2352830000000 1.0
C      1  0.2258070000000  0.4519330000000  0.4877060000000 1.0
C      1  0.4032880000000  0.4518450000000  0.7570250000000 1.0
C      1  0.7145430000000  0.4519930000000  0.6710830000000 1.0
C      1  0.7293260000000  0.4518260000000  0.3487410000000 1.0
C      1  0.4271850000000  0.4518960000000  0.2353330000000 1.0
C      1  0.3286480000000  0.4491350000000  0.2473270000000 1.0
C      1  0.2063340000000  0.4492000000000  0.5850580000000 1.0
C      1  0.4899820000000  0.4492130000000  0.8054030000000 1.0
C      1  0.7874720000000  0.4492000000000  0.6037170000000 1.0
C      1  0.6877290000000  0.4491490000000  0.2586130000000 1.0
C      1  0.3284980000000  0.5508210000000  0.2471400000000 1.0
C      1  0.2062970000000  0.5508850000000  0.5851300000000 1.0
C      1  0.4899550000000  0.5508970000000  0.8054420000000 1.0
C      1  0.7876210000000  0.5508890000000  0.6036870000000 1.0
C      1  0.6876710000000  0.5508480000000  0.2586290000000 1.0
C      1  0.5474950000000  0.6989370000000  0.5730370000000 1.0
C      1  0.5840800000000  0.6988940000000  0.4773170000000 1.0
C      1  0.5044430000000  0.6991300000000  0.4128360000000 1.0
C      1  0.4186800000000  0.6987460000000  0.4688950000000 1.0
C      1  0.4451740000000  0.6989250000000  0.5679030000000 1.0
C      1  0.5477930000000  0.3008740000000  0.5730810000000 1.0
C      1  0.5839760000000  0.3011650000000  0.4771900000000 1.0
C      1  0.5041660000000  0.3009120000000  0.4128430000000 1.0
C      1  0.4185900000000  0.3008360000000  0.4690220000000 1.0
C      1  0.4454930000000  0.3006680000000  0.5680070000000 1.0
C      1  0.6331100000000  0.3983190000000  0.6984410000000 1.0
C      1  0.7297170000000  0.3981510000000  0.4346340000000 1.0
C      1  0.5089760000000  0.3979640000000  0.2610440000000 1.0
C      1  0.2757940000000  0.3982390000000  0.4177500000000 1.0
C      1  0.3524980000000  0.3979490000000  0.6879670000000 1.0
C      1  0.6331000000000  0.6018360000000  0.6984070000000 1.0
C      1  0.7299000000000  0.6018600000000  0.4346940000000 1.0
C      1  0.5089880000000  0.6020260000000  0.2610150000000 1.0
C      1  0.2757460000000  0.6016970000000  0.4176190000000 1.0
C      1  0.3521810000000  0.6020810000000  0.6882310000000 1.0
C      1  0.3480210000000  0.3489720000000  0.4436840000000 1.0
C      1  0.3995370000000  0.3487330000000  0.6272760000000 1.0
C      1  0.5899750000000  0.3490530000000  0.6350610000000 1.0
C      1  0.6559890000000  0.3490870000000  0.4561630000000 1.0
C      1  0.5065450000000  0.3488980000000  0.3377880000000 1.0
C      1  0.3480240000000  0.6507730000000  0.4435480000000 1.0
C      1  0.3992090000000  0.6510600000000  0.6273750000000 1.0
C      1  0.5898160000000  0.6509330000000  0.6350170000000 1.0
C      1  0.6561530000000  0.6509340000000  0.4562500000000 1.0
C      1  0.5066890000000  0.6511290000000  0.3377880000000 1.0
END
