TITL C-1525613-7943-161 0.00033213155442426 3375 -9275.42267611418 0 0 60 (C2) n - 1
REM
REM in /home/nfs/bkarasulu/CARBON/AIRSS/Generating-Clusters/ReaxFF-fromJPCA2015/Units_Real/Try2-Higher-symm/Only-C60
REM
REM
REM
REM
REM
REM ./C.cell (863b2abdce7293c0672fb3ba77bf323a)
REM AIRSS Version 0.9.1 bugfix July 2018 build 013d7b7c2542+ Fri, 06 Jul 2018 19:26:36 +0100
REM compiler GCC version 9.2.1 20190827 (Red Hat 9.2.1-1)
REM options -cpp -mtune=generic -march=x86-64 -g -O0 -fpre-include=/usr/include/finclude/math-vector-fortran.h
REM seed 1685909844 -1698271604 1816551137 2045094572 470092219 -945751216 262919867 -1551136835 974840164 -2129904725 895138671 -498729976 -1534397916 -2138717899 1050242411 2067428956 693144103 571151431 887777660 -1167348483 2120607439 300238484 777491904 -316216653 1301419167 1827943553 752924090 2039957010 -352497692 -524636194 -844107245 1284986809 1157559281
REM
CELL 1.54180   15.00000   15.00000   15.00000   90.00000   90.00000   90.00000
LATT -1
SFAC C  
C      1  0.4376050000000  0.7651180000000  0.5336190000000 1.0
C      1  0.2984000000000  0.6829450000000  0.5336750000000 1.0
C      1  0.2524800000000  0.5273430000000  0.5161120000000 1.0
C      1  0.2732040000000  0.3662880000000  0.5262910000000 1.0
C      1  0.4040130000000  0.2700490000000  0.5160820000000 1.0
C      1  0.5623920000000  0.2349330000000  0.5336270000000 1.0
C      1  0.7016340000000  0.3170550000000  0.5336620000000 1.0
C      1  0.7474580000000  0.4727180000000  0.5160780000000 1.0
C      1  0.7269430000000  0.6338060000000  0.5263570000000 1.0
C      1  0.5960020000000  0.7298780000000  0.5160360000000 1.0
C      1  0.3641880000000  0.5535510000000  0.3312810000000 1.0
C      1  0.3313850000000  0.4569770000000  0.3199680000000 1.0
C      1  0.3806930000000  0.3732970000000  0.3199400000000 1.0
C      1  0.4810680000000  0.3552190000000  0.3312680000000 1.0
C      1  0.5531500000000  0.4098110000000  0.3240220000000 1.0
C      1  0.6358060000000  0.4464610000000  0.3312950000000 1.0
C      1  0.6686290000000  0.5430160000000  0.3199150000000 1.0
C      1  0.6193050000000  0.6266900000000  0.3199060000000 1.0
C      1  0.5189380000000  0.6447670000000  0.3312630000000 1.0
C      1  0.4468520000000  0.5901880000000  0.3240050000000 1.0
C      1  0.3595090000000  0.3400320000000  0.6560170000000 1.0
C      1  0.4814210000000  0.2856930000000  0.6585940000000 1.0
C      1  0.6118980000000  0.3099860000000  0.6645220000000 1.0
C      1  0.6961600000000  0.4125100000000  0.6585800000000 1.0
C      1  0.7076870000000  0.5455070000000  0.6560290000000 1.0
C      1  0.6404470000000  0.6599240000000  0.6560120000000 1.0
C      1  0.5185540000000  0.7143410000000  0.6585680000000 1.0
C      1  0.3881010000000  0.6900060000000  0.6645240000000 1.0
C      1  0.3038640000000  0.5874450000000  0.6585900000000 1.0
C      1  0.2922490000000  0.4544690000000  0.6560220000000 1.0
C      1  0.2779110000000  0.6096090000000  0.4755050000000 1.0
C      1  0.2473300000000  0.4420860000000  0.4739030000000 1.0
C      1  0.3269750000000  0.3069510000000  0.4738830000000 1.0
C      1  0.4883070000000  0.2525160000000  0.4754560000000 1.0
C      1  0.6414270000000  0.2600500000000  0.4904850000000 1.0
C      1  0.7221210000000  0.3904070000000  0.4754970000000 1.0
C      1  0.7526670000000  0.5579850000000  0.4739180000000 1.0
C      1  0.6730870000000  0.6930280000000  0.4738940000000 1.0
C      1  0.5116990000000  0.7474920000000  0.4754550000000 1.0
C      1  0.3585730000000  0.7399750000000  0.4904860000000 1.0
C      1  0.7127900000000  0.6254770000000  0.6242170000000 1.0
C      1  0.5932940000000  0.7199250000000  0.6157380000000 1.0
C      1  0.4440100000000  0.7468760000000  0.6304420000000 1.0
C      1  0.3113290000000  0.6684450000000  0.6304870000000 1.0
C      1  0.2626160000000  0.5248340000000  0.6158060000000 1.0
C      1  0.2872440000000  0.3745380000000  0.6241770000000 1.0
C      1  0.4066690000000  0.2799840000000  0.6157850000000 1.0
C      1  0.5559550000000  0.2531690000000  0.6304550000000 1.0
C      1  0.6886960000000  0.3315040000000  0.6304730000000 1.0
C      1  0.7372880000000  0.4751760000000  0.6157750000000 1.0
C      1  0.2633100000000  0.4179800000000  0.3791980000000 1.0
C      1  0.3136200000000  0.3326170000000  0.3791820000000 1.0
C      1  0.5246090000000  0.2894860000000  0.3919160000000 1.0
C      1  0.6202150000000  0.2960320000000  0.4058980000000 1.0
C      1  0.6722180000000  0.3765320000000  0.3919560000000 1.0
C      1  0.7366820000000  0.5820060000000  0.3791880000000 1.0
C      1  0.6863670000000  0.6673610000000  0.3791800000000 1.0
C      1  0.4753980000000  0.7104800000000  0.3919440000000 1.0
C      1  0.3797840000000  0.7039760000000  0.4059030000000 1.0
C      1  0.3277810000000  0.6234820000000  0.3919370000000 1.0
END
