TITL C-1525613-7943-6948 -0.00337254246965919 3375 -9130.07159631513 0 0 60 (C5v) n - 1
REM
REM in /home/nfs/bkarasulu/CARBON/AIRSS/Generating-Clusters/ReaxFF-fromJPCA2015/Units_Real/Try2-Higher-symm/Only-C60
REM
REM
REM
REM
REM
REM ./C.cell (863b2abdce7293c0672fb3ba77bf323a)
REM AIRSS Version 0.9.1 bugfix July 2018 build 013d7b7c2542+ Fri, 06 Jul 2018 19:26:36 +0100
REM compiler GCC version 9.2.1 20190827 (Red Hat 9.2.1-1)
REM options -cpp -mtune=generic -march=x86-64 -g -O0 -fpre-include=/usr/include/finclude/math-vector-fortran.h
REM seed 375741245 488592405 1961398666 190163587 990977024 -1233132969 1842456662 784140073 -1492269208 -1061081458 -1940704657 1611506527 -1533552001 -799158111 362110236 2132378681 -541354570 -1168579156 1327586854 -607057109 -1260753456 -1885440700 1008333945 410709759 1080551488 1930538630 -1480250522 -1127034084 1222322895 1460725373 964954302 -732456757 146986872
REM
CELL 1.54180   15.00000   15.00000   15.00000   90.00000   90.00000   90.00000
LATT -1
SFAC C  
C      1  0.3498340000000  0.5479890000000  0.3531620000000 1.0
C      1  0.3498480000000  0.3751980000000  0.4089480000000 1.0
C      1  0.3498820000000  0.3748640000000  0.5905140000000 1.0
C      1  0.3498370000000  0.5474360000000  0.6469620000000 1.0
C      1  0.3498660000000  0.6544300000000  0.5002700000000 1.0
C      1  0.3498170000000  0.4519640000000  0.3531660000000 1.0
C      1  0.3498190000000  0.6247530000000  0.4089490000000 1.0
C      1  0.3498360000000  0.6251180000000  0.5905120000000 1.0
C      1  0.3498750000000  0.4525460000000  0.6469580000000 1.0
C      1  0.3498850000000  0.3455310000000  0.5002730000000 1.0
C      1  0.3725940000000  0.2838280000000  0.6228890000000 1.0
C      1  0.3725570000000  0.5500760000000  0.7435370000000 1.0
C      1  0.3725850000000  0.7471050000000  0.5275990000000 1.0
C      1  0.3725650000000  0.6026380000000  0.2734890000000 1.0
C      1  0.3725660000000  0.3162950000000  0.3323650000000 1.0
C      1  0.3725640000000  0.7161540000000  0.6228720000000 1.0
C      1  0.3725790000000  0.4499170000000  0.7435390000000 1.0
C      1  0.3725930000000  0.2528550000000  0.5276190000000 1.0
C      1  0.3725570000000  0.3973370000000  0.2734870000000 1.0
C      1  0.3725640000000  0.6836670000000  0.3323790000000 1.0
C      1  0.6630340000000  0.4526450000000  0.6443390000000 1.0
C      1  0.6630720000000  0.6226360000000  0.5896680000000 1.0
C      1  0.6630570000000  0.6231590000000  0.4111010000000 1.0
C      1  0.6630010000000  0.4535090000000  0.3554240000000 1.0
C      1  0.6630200000000  0.3481270000000  0.4995660000000 1.0
C      1  0.6630150000000  0.5473710000000  0.6443330000000 1.0
C      1  0.6630300000000  0.3773920000000  0.5896600000000 1.0
C      1  0.6629980000000  0.3768780000000  0.4111040000000 1.0
C      1  0.6630540000000  0.5465270000000  0.3554140000000 1.0
C      1  0.6630670000000  0.6519040000000  0.4995730000000 1.0
C      1  0.5458930000000  0.4490450000000  0.2291520000000 1.0
C      1  0.5459310000000  0.2266350000000  0.4648030000000 1.0
C      1  0.5459160000000  0.3820430000000  0.7491200000000 1.0
C      1  0.5459260000000  0.7004620000000  0.6891570000000 1.0
C      1  0.5459350000000  0.7418510000000  0.3678370000000 1.0
C      1  0.5459260000000  0.5510200000000  0.2291540000000 1.0
C      1  0.5459540000000  0.7733730000000  0.4648170000000 1.0
C      1  0.5458900000000  0.6179620000000  0.7491030000000 1.0
C      1  0.5459330000000  0.2995420000000  0.6891810000000 1.0
C      1  0.5459030000000  0.2581560000000  0.3678260000000 1.0
C      1  0.4556410000000  0.2624580000000  0.3312790000000 1.0
C      1  0.4556660000000  0.2661440000000  0.6737540000000 1.0
C      1  0.4556190000000  0.5929920000000  0.7760740000000 1.0
C      1  0.4556790000000  0.7913170000000  0.4969020000000 1.0
C      1  0.4556600000000  0.5870960000000  0.2219710000000 1.0
C      1  0.4556650000000  0.7374560000000  0.3313420000000 1.0
C      1  0.4556570000000  0.7338250000000  0.6737020000000 1.0
C      1  0.4556490000000  0.4070240000000  0.7760960000000 1.0
C      1  0.4556640000000  0.2086150000000  0.4969000000000 1.0
C      1  0.4556310000000  0.4129650000000  0.2219620000000 1.0
C      1  0.6130110000000  0.7013440000000  0.6168040000000 1.0
C      1  0.6129970000000  0.6732940000000  0.3446360000000 1.0
C      1  0.6129220000000  0.4057990000000  0.2872200000000 1.0
C      1  0.6129640000000  0.2685010000000  0.5238710000000 1.0
C      1  0.6129610000000  0.4511530000000  0.7275720000000 1.0
C      1  0.6129760000000  0.2986830000000  0.6167940000000 1.0
C      1  0.6129210000000  0.3267580000000  0.3446480000000 1.0
C      1  0.6129860000000  0.5942530000000  0.2872060000000 1.0
C      1  0.6130100000000  0.7315320000000  0.5238820000000 1.0
C      1  0.6129450000000  0.5488550000000  0.7275620000000 1.0
END
