TITL C-1525613-7943-4962 -0.0645045507459592 3375 -8418.68139057769 0 0 60 (C1) n - 1
REM
REM in /home/nfs/bkarasulu/CARBON/AIRSS/Generating-Clusters/ReaxFF-fromJPCA2015/Units_Real/Try2-Higher-symm/Only-C60
REM
REM
REM
REM
REM
REM ./C.cell (863b2abdce7293c0672fb3ba77bf323a)
REM AIRSS Version 0.9.1 bugfix July 2018 build 013d7b7c2542+ Fri, 06 Jul 2018 19:26:36 +0100
REM compiler GCC version 9.2.1 20190827 (Red Hat 9.2.1-1)
REM options -cpp -mtune=generic -march=x86-64 -g -O0 -fpre-include=/usr/include/finclude/math-vector-fortran.h
REM seed -786716290 524751958 -381505519 -300899824 1566387263 827916426 -392471907 782002026 -2057376122 -1083289157 -1398249512 -1352619300 -1327746395 1699688139 1092024368 151300736 -2072168068 -683137110 -310762360 1112578309 684369485 1901929146 88531748 120032606 295772415 -1610518700 61385383 -590493928 31141979 994838230 -1987935869 -574736310 -468586803
REM
CELL 1.54180   15.00000   15.00000   15.00000   90.00000   90.00000   90.00000
LATT -1
SFAC C  
C      1  0.2549350000000  0.4342090000000  0.6128500000000 1.0
C      1  0.3362960000000  0.3210770000000  0.6079840000000 1.0
C      1  0.4881440000000  0.2439050000000  0.6142560000000 1.0
C      1  0.6535920000000  0.3096810000000  0.6074810000000 1.0
C      1  0.7158450000000  0.3835710000000  0.6046580000000 1.0
C      1  0.7464770000000  0.5642140000000  0.6124400000000 1.0
C      1  0.6578390000000  0.6918740000000  0.6105220000000 1.0
C      1  0.5125460000000  0.7531630000000  0.6124800000000 1.0
C      1  0.3434680000000  0.6879610000000  0.6055900000000 1.0
C      1  0.2902390000000  0.6117870000000  0.5963470000000 1.0
C      1  0.6387610000000  0.4267020000000  0.3244990000000 1.0
C      1  0.6564200000000  0.5220530000000  0.3272530000000 1.0
C      1  0.6166650000000  0.6118660000000  0.3276270000000 1.0
C      1  0.5267140000000  0.6512950000000  0.3273300000000 1.0
C      1  0.4300600000000  0.6369270000000  0.3300450000000 1.0
C      1  0.3558630000000  0.5738620000000  0.3312110000000 1.0
C      1  0.3482440000000  0.4771420000000  0.3314700000000 1.0
C      1  0.3849550000000  0.3868700000000  0.3294430000000 1.0
C      1  0.4734690000000  0.3482580000000  0.3266640000000 1.0
C      1  0.5712530000000  0.3550190000000  0.3227460000000 1.0
C      1  0.7827950000000  0.5719510000000  0.5185450000000 1.0
C      1  0.6723000000000  0.7055970000000  0.5074320000000 1.0
C      1  0.5166360000000  0.7881060000000  0.5175640000000 1.0
C      1  0.3411310000000  0.7421910000000  0.5192340000000 1.0
C      1  0.2650250000000  0.6018220000000  0.5010730000000 1.0
C      1  0.2150570000000  0.4311020000000  0.5164750000000 1.0
C      1  0.3299480000000  0.3080830000000  0.4977210000000 1.0
C      1  0.4771960000000  0.2103560000000  0.5183870000000 1.0
C      1  0.6428040000000  0.2740180000000  0.5095670000000 1.0
C      1  0.7638390000000  0.3909270000000  0.5139650000000 1.0
C      1  0.4141860000000  0.6356730000000  0.6501220000000 1.0
C      1  0.3525340000000  0.5574640000000  0.6437750000000 1.0
C      1  0.3414640000000  0.4597690000000  0.6478740000000 1.0
C      1  0.3993320000000  0.3730320000000  0.6548060000000 1.0
C      1  0.4939930000000  0.3334260000000  0.6490050000000 1.0
C      1  0.5876690000000  0.3648140000000  0.6553570000000 1.0
C      1  0.6456650000000  0.4445450000000  0.6395120000000 1.0
C      1  0.6597900000000  0.5414960000000  0.6496850000000 1.0
C      1  0.6035300000000  0.6267470000000  0.6523380000000 1.0
C      1  0.5073020000000  0.6644840000000  0.6509150000000 1.0
C      1  0.6043510000000  0.7686890000000  0.4725750000000 1.0
C      1  0.4246510000000  0.7850100000000  0.4836730000000 1.0
C      1  0.2675830000000  0.7041720000000  0.4692070000000 1.0
C      1  0.2053080000000  0.5219980000000  0.4820610000000 1.0
C      1  0.2382170000000  0.3437630000000  0.4731900000000 1.0
C      1  0.3890480000000  0.2272570000000  0.4795770000000 1.0
C      1  0.5702790000000  0.2138420000000  0.4803360000000 1.0
C      1  0.7265280000000  0.3125550000000  0.4662550000000 1.0
C      1  0.7939070000000  0.4786580000000  0.4830730000000 1.0
C      1  0.7520060000000  0.6537360000000  0.4724910000000 1.0
C      1  0.3879480000000  0.3870250000000  0.4332540000000 1.0
C      1  0.4772460000000  0.3461020000000  0.4219700000000 1.0
C      1  0.5733940000000  0.3506060000000  0.4222420000000 1.0
C      1  0.6372920000000  0.4241020000000  0.4215820000000 1.0
C      1  0.6538720000000  0.5203760000000  0.4246460000000 1.0
C      1  0.6171940000000  0.6110830000000  0.4271350000000 1.0
C      1  0.5278710000000  0.6489510000000  0.4246570000000 1.0
C      1  0.4328360000000  0.6362160000000  0.4260790000000 1.0
C      1  0.3571710000000  0.5726610000000  0.4339980000000 1.0
C      1  0.3493160000000  0.4761600000000  0.4257500000000 1.0
END
