TITL C-1525613-7943-3618 0.000222082014878614 3375 -9386.69252650096 0 0 60 (C1) n - 1
REM
REM in /home/nfs/bkarasulu/CARBON/AIRSS/Generating-Clusters/ReaxFF-fromJPCA2015/Units_Real/Try2-Higher-symm/Only-C60
REM
REM
REM
REM
REM
REM ./C.cell (863b2abdce7293c0672fb3ba77bf323a)
REM AIRSS Version 0.9.1 bugfix July 2018 build 013d7b7c2542+ Fri, 06 Jul 2018 19:26:36 +0100
REM compiler GCC version 9.2.1 20190827 (Red Hat 9.2.1-1)
REM options -cpp -mtune=generic -march=x86-64 -g -O0 -fpre-include=/usr/include/finclude/math-vector-fortran.h
REM seed 1120487798 -1636103692 1249402712 -67772688 1032806496 -1176420239 947691363 31267724 1017712443 352882848 1902936587 865855541 -2106268858 2033058029 769166555 -425568100 1467633375 1329913958 1837891127 -641620302 -87087103 -1109452059 -731286577 2091675738 804759392 1579111377 2038304958 1807511721 -475376147 -1162978422 836941948 -1986492398 -1187555390
REM
CELL 1.54180   15.00000   15.00000   15.00000   90.00000   90.00000   90.00000
LATT -1
SFAC C  
C      1  0.6877240000000  0.3334700000000  0.5488380000000 1.0
C      1  0.7550790000000  0.4750740000000  0.5529650000000 1.0
C      1  0.7127750000000  0.6450370000000  0.5595570000000 1.0
C      1  0.6107910000000  0.7553320000000  0.5902800000000 1.0
C      1  0.4602150000000  0.7580620000000  0.5630380000000 1.0
C      1  0.3118960000000  0.6657140000000  0.5487680000000 1.0
C      1  0.2493570000000  0.5224440000000  0.5529180000000 1.0
C      1  0.2895680000000  0.3585760000000  0.5592450000000 1.0
C      1  0.3883420000000  0.2454530000000  0.5900610000000 1.0
C      1  0.5386560000000  0.2418660000000  0.5629980000000 1.0
C      1  0.3568390000000  0.4035060000000  0.3105600000000 1.0
C      1  0.4480830000000  0.3614250000000  0.2817880000000 1.0
C      1  0.5318370000000  0.4055500000000  0.2836140000000 1.0
C      1  0.6149160000000  0.4187590000000  0.3164350000000 1.0
C      1  0.6737850000000  0.5044260000000  0.3109140000000 1.0
C      1  0.6426490000000  0.5962560000000  0.3109100000000 1.0
C      1  0.5513410000000  0.6383020000000  0.2820230000000 1.0
C      1  0.4676720000000  0.5941220000000  0.2835370000000 1.0
C      1  0.3844900000000  0.5810590000000  0.3163330000000 1.0
C      1  0.3257750000000  0.4953690000000  0.3106320000000 1.0
C      1  0.3971890000000  0.2638680000000  0.4942680000000 1.0
C      1  0.4932080000000  0.2527730000000  0.4765730000000 1.0
C      1  0.6914180000000  0.3678810000000  0.4561060000000 1.0
C      1  0.7397840000000  0.4534470000000  0.4591170000000 1.0
C      1  0.6696020000000  0.6687660000000  0.4742310000000 1.0
C      1  0.6017000000000  0.7364860000000  0.4943900000000 1.0
C      1  0.5056080000000  0.7470520000000  0.4766070000000 1.0
C      1  0.3077830000000  0.6315520000000  0.4561390000000 1.0
C      1  0.2609470000000  0.5454750000000  0.4596570000000 1.0
C      1  0.3303040000000  0.3324730000000  0.4746300000000 1.0
C      1  0.4742240000000  0.2539480000000  0.6343600000000 1.0
C      1  0.6088230000000  0.3014160000000  0.5945460000000 1.0
C      1  0.7136130000000  0.4059740000000  0.6073640000000 1.0
C      1  0.7203880000000  0.5550480000000  0.5956220000000 1.0
C      1  0.6627770000000  0.6851600000000  0.6323850000000 1.0
C      1  0.5247810000000  0.7464010000000  0.6343740000000 1.0
C      1  0.3903840000000  0.6981880000000  0.5946750000000 1.0
C      1  0.2878270000000  0.5923640000000  0.6066010000000 1.0
C      1  0.2838630000000  0.4458700000000  0.5931430000000 1.0
C      1  0.3376160000000  0.3167170000000  0.6314910000000 1.0
C      1  0.3944640000000  0.3804360000000  0.6792090000000 1.0
C      1  0.4832860000000  0.3406270000000  0.6801390000000 1.0
C      1  0.5739230000000  0.3680400000000  0.6576230000000 1.0
C      1  0.6411730000000  0.4380480000000  0.6653390000000 1.0
C      1  0.6472860000000  0.5351040000000  0.6576970000000 1.0
C      1  0.6055220000000  0.6203540000000  0.6794610000000 1.0
C      1  0.5161320000000  0.6596430000000  0.6801130000000 1.0
C      1  0.4255950000000  0.6318950000000  0.6577880000000 1.0
C      1  0.3592740000000  0.5613930000000  0.6651620000000 1.0
C      1  0.3532990000000  0.4649630000000  0.6555810000000 1.0
C      1  0.3101710000000  0.3851690000000  0.3947440000000 1.0
C      1  0.4781880000000  0.2989460000000  0.3461550000000 1.0
C      1  0.5502370000000  0.2835740000000  0.3994890000000 1.0
C      1  0.6244530000000  0.3523090000000  0.3899500000000 1.0
C      1  0.7295020000000  0.5209480000000  0.3897680000000 1.0
C      1  0.6894380000000  0.6147750000000  0.3948490000000 1.0
C      1  0.5209310000000  0.7007520000000  0.3462680000000 1.0
C      1  0.4486930000000  0.7161000000000  0.3994290000000 1.0
C      1  0.3745080000000  0.6474760000000  0.3898430000000 1.0
C      1  0.2702960000000  0.4787870000000  0.3896980000000 1.0
END
