TITL C-1525613-7943-4331 0.207174593701798 3375 -8327.59609494372 0 0 60 (C1) n - 1
REM
REM in /home/nfs/bkarasulu/CARBON/AIRSS/Generating-Clusters/ReaxFF-fromJPCA2015/Units_Real/Try2-Higher-symm/Only-C60
REM
REM
REM
REM
REM
REM ./C.cell (863b2abdce7293c0672fb3ba77bf323a)
REM AIRSS Version 0.9.1 bugfix July 2018 build 013d7b7c2542+ Fri, 06 Jul 2018 19:26:36 +0100
REM compiler GCC version 9.2.1 20190827 (Red Hat 9.2.1-1)
REM options -cpp -mtune=generic -march=x86-64 -g -O0 -fpre-include=/usr/include/finclude/math-vector-fortran.h
REM seed 87203494 -1724937519 63462762 16417706 2014933677 -721522060 1646302880 958620961 1841064549 -1084890022 686811173 1459267199 904831729 -1876884999 296723685 -1369591073 64711268 46273189 -1639802755 831518227 -529452485 571196964 1078053635 -1555183315 263873353 -80664172 -81403070 -1976802464 -87990437 2128754615 590193728 62829834 2007311449
REM
CELL 1.54180   15.00000   15.00000   15.00000   90.00000   90.00000   90.00000
LATT -1
SFAC C  
C      1  0.6671230000000  0.4693340000000  0.3624500000000 1.0
C      1  0.5544040000000  0.5306880000000  0.2868090000000 1.0
C      1  0.4117150000000  0.4766570000000  0.2964540000000 1.0
C      1  0.3163120000000  0.5295270000000  0.3834430000000 1.0
C      1  0.2791880000000  0.4657210000000  0.5156350000000 1.0
C      1  0.3326850000000  0.5355750000000  0.6370750000000 1.0
C      1  0.4451290000000  0.4698740000000  0.7089950000000 1.0
C      1  0.5887190000000  0.5209990000000  0.7053630000000 1.0
C      1  0.6878560000000  0.4697910000000  0.6216460000000 1.0
C      1  0.7184800000000  0.5297680000000  0.4884840000000 1.0
C      1  0.4419320000000  0.6326910000000  0.3443320000000 1.0
C      1  0.3682120000000  0.3678070000000  0.4001110000000 1.0
C      1  0.3316650000000  0.6323070000000  0.5069710000000 1.0
C      1  0.3661870000000  0.3726200000000  0.5943460000000 1.0
C      1  0.4535530000000  0.6351540000000  0.6631920000000 1.0
C      1  0.5558280000000  0.3668520000000  0.6553770000000 1.0
C      1  0.6305030000000  0.6310960000000  0.5963390000000 1.0
C      1  0.6667910000000  0.3681660000000  0.4929480000000 1.0
C      1  0.6322650000000  0.6301840000000  0.3992060000000 1.0
C      1  0.5461440000000  0.3652180000000  0.3358110000000 1.0
C      1  0.3511090000000  0.3413220000000  0.5031010000000 1.0
C      1  0.3856840000000  0.6600150000000  0.6007280000000 1.0
C      1  0.4630310000000  0.3452310000000  0.6455520000000 1.0
C      1  0.5513210000000  0.6659220000000  0.6371600000000 1.0
C      1  0.6300710000000  0.3423880000000  0.5762210000000 1.0
C      1  0.6501800000000  0.6541880000000  0.4901530000000 1.0
C      1  0.6146520000000  0.3423070000000  0.3978410000000 1.0
C      1  0.5342520000000  0.6564660000000  0.3515210000000 1.0
C      1  0.4493290000000  0.3333130000000  0.3619460000000 1.0
C      1  0.3684050000000  0.6575290000000  0.4235830000000 1.0
C      1  0.5374280000000  0.4330360000000  0.7240600000000 1.0
C      1  0.6658030000000  0.5605000000000  0.6566520000000 1.0
C      1  0.7231470000000  0.4356850000000  0.5340440000000 1.0
C      1  0.7023610000000  0.5627480000000  0.3960850000000 1.0
C      1  0.6005710000000  0.4374620000000  0.2961180000000 1.0
C      1  0.4615430000000  0.5659620000000  0.2761800000000 1.0
C      1  0.3333000000000  0.4408880000000  0.3441240000000 1.0
C      1  0.2767970000000  0.5622450000000  0.4684730000000 1.0
C      1  0.3011920000000  0.4447460000000  0.6088750000000 1.0
C      1  0.4005810000000  0.5632690000000  0.7042960000000 1.0
C      1  0.4643200000000  0.4818080000000  0.6135870000000 1.0
C      1  0.5412680000000  0.5199760000000  0.6209090000000 1.0
C      1  0.6016950000000  0.4832530000000  0.5764260000000 1.0
C      1  0.6225360000000  0.5187350000000  0.5027810000000 1.0
C      1  0.5966770000000  0.4802210000000  0.4301170000000 1.0
C      1  0.5361720000000  0.5190100000000  0.3815780000000 1.0
C      1  0.4592290000000  0.4808270000000  0.3815710000000 1.0
C      1  0.4024170000000  0.5180760000000  0.4355760000000 1.0
C      1  0.3746240000000  0.4740690000000  0.5010640000000 1.0
C      1  0.4027900000000  0.5219810000000  0.5648640000000 1.0
C      1  0.4265240000000  0.7273690000000  0.4569190000000 1.0
C      1  0.4143460000000  0.2676870000000  0.5115440000000 1.0
C      1  0.4353830000000  0.7303000000000  0.5558960000000 1.0
C      1  0.4809080000000  0.2711690000000  0.5849120000000 1.0
C      1  0.5343830000000  0.7349540000000  0.5732130000000 1.0
C      1  0.5728510000000  0.2721710000000  0.5426090000000 1.0
C      1  0.5868160000000  0.7293280000000  0.4885500000000 1.0
C      1  0.5658230000000  0.2710380000000  0.4435150000000 1.0
C      1  0.5186690000000  0.7277770000000  0.4162300000000 1.0
C      1  0.4671200000000  0.2650030000000  0.4264410000000 1.0
END
