TITL C-1525613-7943-5212 0.0489614770542489 3375 -8858.66258605741 0 0 60 (C10) n - 1
REM
REM in /home/nfs/bkarasulu/CARBON/AIRSS/Generating-Clusters/ReaxFF-fromJPCA2015/Units_Real/Try2-Higher-symm/Only-C60
REM
REM
REM
REM
REM
REM ./C.cell (863b2abdce7293c0672fb3ba77bf323a)
REM AIRSS Version 0.9.1 bugfix July 2018 build 013d7b7c2542+ Fri, 06 Jul 2018 19:26:36 +0100
REM compiler GCC version 9.2.1 20190827 (Red Hat 9.2.1-1)
REM options -cpp -mtune=generic -march=x86-64 -g -O0 -fpre-include=/usr/include/finclude/math-vector-fortran.h
REM seed 1115822118 -1847500746 -1629723291 -112991576 -618688867 245336440 -1585149124 -1696172281 795015179 136611359 2084337589 822796369 1331084749 1123324041 147940086 -171159094 -225672530 -1359213920 1313403311 -1778822876 1144414043 1483569181 1006118762 1154725901 -1978103681 -1192060353 -315549985 -1727545268 1235698186 104363905 1261717420 -1934725807 1571833484
REM
CELL 1.54180   15.00000   15.00000   15.00000   90.00000   90.00000   90.00000
LATT -1
SFAC C  
C      1  0.4649750000000  0.4307830000000  0.7592730000000 1.0
C      1  0.4663370000000  0.2932560000000  0.6692750000000 1.0
C      1  0.4660700000000  0.2320880000000  0.5162960000000 1.0
C      1  0.4657230000000  0.2745630000000  0.3558830000000 1.0
C      1  0.4649680000000  0.4041960000000  0.2509450000000 1.0
C      1  0.4645640000000  0.5670570000000  0.2403570000000 1.0
C      1  0.4665420000000  0.7074270000000  0.3322290000000 1.0
C      1  0.4659460000000  0.7667230000000  0.4820860000000 1.0
C      1  0.4660390000000  0.7249890000000  0.6445840000000 1.0
C      1  0.4646200000000  0.5995640000000  0.7486660000000 1.0
C      1  0.3504110000000  0.3663980000000  0.3207810000000 1.0
C      1  0.3500540000000  0.4968310000000  0.2763130000000 1.0
C      1  0.3518360000000  0.6290590000000  0.3172210000000 1.0
C      1  0.3509260000000  0.7113190000000  0.4284460000000 1.0
C      1  0.3515590000000  0.7132370000000  0.5666040000000 1.0
C      1  0.3499150000000  0.6335020000000  0.6793730000000 1.0
C      1  0.3509750000000  0.5029920000000  0.7248780000000 1.0
C      1  0.3516320000000  0.3711200000000  0.6830350000000 1.0
C      1  0.3520840000000  0.2882110000000  0.5718150000000 1.0
C      1  0.3513730000000  0.2871580000000  0.4337250000000 1.0
C      1  0.5572480000000  0.3992320000000  0.2523230000000 1.0
C      1  0.5572970000000  0.5642170000000  0.2389800000000 1.0
C      1  0.5585380000000  0.7058090000000  0.3274090000000 1.0
C      1  0.5582720000000  0.7679130000000  0.4790450000000 1.0
C      1  0.5581710000000  0.7281790000000  0.6417860000000 1.0
C      1  0.5571270000000  0.6015060000000  0.7468210000000 1.0
C      1  0.5576730000000  0.4353950000000  0.7602230000000 1.0
C      1  0.5585920000000  0.2956130000000  0.6739890000000 1.0
C      1  0.5584570000000  0.2308650000000  0.5203190000000 1.0
C      1  0.5578940000000  0.2715280000000  0.3583290000000 1.0
C      1  0.6505640000000  0.6528610000000  0.5368960000000 1.0
C      1  0.6516300000000  0.6017860000000  0.6193870000000 1.0
C      1  0.6511810000000  0.5119130000000  0.6562300000000 1.0
C      1  0.6506770000000  0.4177440000000  0.6328960000000 1.0
C      1  0.6514320000000  0.3543430000000  0.5593850000000 1.0
C      1  0.6502900000000  0.3467200000000  0.4625800000000 1.0
C      1  0.6511080000000  0.3979670000000  0.3802650000000 1.0
C      1  0.6514360000000  0.4878320000000  0.3438660000000 1.0
C      1  0.6504080000000  0.5822700000000  0.3669460000000 1.0
C      1  0.6514330000000  0.6458510000000  0.4402930000000 1.0
C      1  0.3729900000000  0.4142840000000  0.2519430000000 1.0
C      1  0.3727540000000  0.5761910000000  0.2489230000000 1.0
C      1  0.3745360000000  0.7092020000000  0.3425260000000 1.0
C      1  0.3742610000000  0.7614000000000  0.4953080000000 1.0
C      1  0.3740210000000  0.7143270000000  0.6502560000000 1.0
C      1  0.3726870000000  0.5859630000000  0.7482310000000 1.0
C      1  0.3729150000000  0.4233610000000  0.7517260000000 1.0
C      1  0.3744420000000  0.2908560000000  0.6576970000000 1.0
C      1  0.3744860000000  0.2382130000000  0.5044240000000 1.0
C      1  0.3737400000000  0.2857490000000  0.3499960000000 1.0
C      1  0.6008900000000  0.7316150000000  0.5564020000000 1.0
C      1  0.6002080000000  0.6530780000000  0.6803540000000 1.0
C      1  0.5998390000000  0.5174130000000  0.7361190000000 1.0
C      1  0.6009770000000  0.3753210000000  0.7016850000000 1.0
C      1  0.6016250000000  0.2795250000000  0.5906810000000 1.0
C      1  0.6011800000000  0.2675160000000  0.4431520000000 1.0
C      1  0.5994630000000  0.3470780000000  0.3192610000000 1.0
C      1  0.6004700000000  0.4825000000000  0.2638540000000 1.0
C      1  0.6006500000000  0.6256210000000  0.2982630000000 1.0
C      1  0.6018930000000  0.7207700000000  0.4094450000000 1.0
END
