TITL C-1525613-7943-5875 0.0616590897486118 3375 -9002.14011054817 0 0 60 (C1) n - 1
REM
REM in /home/nfs/bkarasulu/CARBON/AIRSS/Generating-Clusters/ReaxFF-fromJPCA2015/Units_Real/Try2-Higher-symm/Only-C60
REM
REM
REM
REM
REM
REM ./C.cell (863b2abdce7293c0672fb3ba77bf323a)
REM AIRSS Version 0.9.1 bugfix July 2018 build 013d7b7c2542+ Fri, 06 Jul 2018 19:26:36 +0100
REM compiler GCC version 9.2.1 20190827 (Red Hat 9.2.1-1)
REM options -cpp -mtune=generic -march=x86-64 -g -O0 -fpre-include=/usr/include/finclude/math-vector-fortran.h
REM seed -1635893899 -1346342299 -1883370505 789154382 -1152051914 489129595 57690377 1551464678 -2033353133 -549085253 -59297410 -1767706110 1809174512 -1079789645 -1729093171 590113626 874225267 1917948595 403626009 -1433791541 1218305675 1934789396 547144608 119704452 648753926 -1280219370 -2017230122 -845426576 266776741 -1736158225 655903490 -1892179618 -1026020894
REM
CELL 1.54180   15.00000   15.00000   15.00000   90.00000   90.00000   90.00000
LATT -1
SFAC C  
C      1  0.3861450000000  0.5767730000000  0.5221860000000 1.0
C      1  0.3795820000000  0.5501640000000  0.4327250000000 1.0
C      1  0.3966350000000  0.4589150000000  0.4305120000000 1.0
C      1  0.4399860000000  0.4258280000000  0.5119180000000 1.0
C      1  0.4097540000000  0.4997400000000  0.5690160000000 1.0
C      1  0.6144560000000  0.5775330000000  0.4756940000000 1.0
C      1  0.6212670000000  0.5509400000000  0.5681570000000 1.0
C      1  0.6015030000000  0.4570280000000  0.5718280000000 1.0
C      1  0.5571770000000  0.4242840000000  0.4881270000000 1.0
C      1  0.5907340000000  0.4979230000000  0.4269000000000 1.0
C      1  0.5429040000000  0.2598000000000  0.6275420000000 1.0
C      1  0.5370830000000  0.5457930000000  0.7651200000000 1.0
C      1  0.5370580000000  0.7644220000000  0.5353340000000 1.0
C      1  0.5389510000000  0.6129680000000  0.2563910000000 1.0
C      1  0.5237870000000  0.3006560000000  0.3121860000000 1.0
C      1  0.4566660000000  0.2608000000000  0.3731960000000 1.0
C      1  0.4633200000000  0.5460660000000  0.2340910000000 1.0
C      1  0.4623000000000  0.7644250000000  0.4643440000000 1.0
C      1  0.4610440000000  0.6120900000000  0.7427560000000 1.0
C      1  0.4757710000000  0.2991380000000  0.6885670000000 1.0
C      1  0.3867100000000  0.3420860000000  0.5470210000000 1.0
C      1  0.3649620000000  0.4908400000000  0.6552180000000 1.0
C      1  0.3537130000000  0.6609090000000  0.5596670000000 1.0
C      1  0.3515550000000  0.6097100000000  0.3615170000000 1.0
C      1  0.3628840000000  0.4071400000000  0.3577370000000 1.0
C      1  0.6099360000000  0.3402280000000  0.4556540000000 1.0
C      1  0.6394690000000  0.4940140000000  0.3415150000000 1.0
C      1  0.6462340000000  0.6626190000000  0.4387420000000 1.0
C      1  0.6497210000000  0.6109960000000  0.6399880000000 1.0
C      1  0.6390790000000  0.4051540000000  0.6444370000000 1.0
C      1  0.6117370000000  0.3179060000000  0.3575340000000 1.0
C      1  0.6291760000000  0.3059760000000  0.6220480000000 1.0
C      1  0.6274590000000  0.5608760000000  0.7271100000000 1.0
C      1  0.6278310000000  0.7320490000000  0.5117740000000 1.0
C      1  0.6274790000000  0.5817320000000  0.2853960000000 1.0
C      1  0.3863780000000  0.3159290000000  0.6450080000000 1.0
C      1  0.3712380000000  0.3077970000000  0.3803010000000 1.0
C      1  0.3732320000000  0.5605930000000  0.2733620000000 1.0
C      1  0.3714820000000  0.7317190000000  0.4879310000000 1.0
C      1  0.3738620000000  0.5787470000000  0.7118240000000 1.0
C      1  0.5128510000000  0.6860290000000  0.3095180000000 1.0
C      1  0.5020380000000  0.3772900000000  0.2654820000000 1.0
C      1  0.5129860000000  0.2371800000000  0.5411360000000 1.0
C      1  0.5172770000000  0.4533580000000  0.7669180000000 1.0
C      1  0.5121010000000  0.7341160000000  0.6203170000000 1.0
C      1  0.4866130000000  0.6856700000000  0.6900360000000 1.0
C      1  0.4979060000000  0.3764380000000  0.7338630000000 1.0
C      1  0.4861040000000  0.2372600000000  0.4595010000000 1.0
C      1  0.4828610000000  0.4535150000000  0.2312060000000 1.0
C      1  0.4873380000000  0.7343610000000  0.3793080000000 1.0
C      1  0.6402180000000  0.4690460000000  0.7156140000000 1.0
C      1  0.6399600000000  0.6943660000000  0.5962310000000 1.0
C      1  0.6382070000000  0.6518230000000  0.3451010000000 1.0
C      1  0.6400890000000  0.4036670000000  0.3343720000000 1.0
C      1  0.6606600000000  0.2947780000000  0.5286950000000 1.0
C      1  0.3613740000000  0.4687670000000  0.2845790000000 1.0
C      1  0.3597830000000  0.6942440000000  0.4033000000000 1.0
C      1  0.3622660000000  0.6494020000000  0.6530330000000 1.0
C      1  0.3605040000000  0.4009960000000  0.6680130000000 1.0
C      1  0.3385970000000  0.2953870000000  0.4734040000000 1.0
END
