TITL C-1525613-7943-1093 -0.00142274018732312 3375 -8963.32483231777 0 0 60 (C1) n - 1
REM
REM in /home/nfs/bkarasulu/CARBON/AIRSS/Generating-Clusters/ReaxFF-fromJPCA2015/Units_Real/Try2-Higher-symm/Only-C60
REM
REM
REM
REM
REM
REM ./C.cell (863b2abdce7293c0672fb3ba77bf323a)
REM AIRSS Version 0.9.1 bugfix July 2018 build 013d7b7c2542+ Fri, 06 Jul 2018 19:26:36 +0100
REM compiler GCC version 9.2.1 20190827 (Red Hat 9.2.1-1)
REM options -cpp -mtune=generic -march=x86-64 -g -O0 -fpre-include=/usr/include/finclude/math-vector-fortran.h
REM seed -598749909 2110137493 -1741957588 900841957 788325540 -2080753820 1763650795 -1685939499 -817514002 712489519 -1490364563 -444120674 845530052 -1207776311 -422363030 -1531852780 -182616321 -1453332860 -419889136 -330368560 -235314207 1754398729 -1160377678 2020986312 -1469821376 -705282552 -319104022 634675675 1680076996 -1252525804 -2086225709 1302192777 -1708202448
REM
CELL 1.54180   15.00000   15.00000   15.00000   90.00000   90.00000   90.00000
LATT -1
SFAC C  
C      1  0.4371460000000  0.2983620000000  0.3818500000000 1.0
C      1  0.4375650000000  0.3252540000000  0.6555710000000 1.0
C      1  0.4363480000000  0.5940620000000  0.7148680000000 1.0
C      1  0.4373350000000  0.7325240000000  0.4771750000000 1.0
C      1  0.4365860000000  0.5502190000000  0.2712130000000 1.0
C      1  0.4372980000000  0.7016050000000  0.3818590000000 1.0
C      1  0.4360950000000  0.6751460000000  0.6558880000000 1.0
C      1  0.4366060000000  0.4061770000000  0.7147250000000 1.0
C      1  0.4360350000000  0.2671000000000  0.4772490000000 1.0
C      1  0.4367550000000  0.4495350000000  0.2713000000000 1.0
C      1  0.3925890000000  0.6581290000000  0.7964770000000 1.0
C      1  0.3940430000000  0.8302180000000  0.4415860000000 1.0
C      1  0.3926430000000  0.5459380000000  0.1675850000000 1.0
C      1  0.3938370000000  0.1984910000000  0.3526730000000 1.0
C      1  0.3939620000000  0.2667340000000  0.7414280000000 1.0
C      1  0.3930380000000  0.3415070000000  0.7959630000000 1.0
C      1  0.3928430000000  0.1698260000000  0.4406830000000 1.0
C      1  0.3928610000000  0.4533960000000  0.1676360000000 1.0
C      1  0.3939510000000  0.8017030000000  0.3535450000000 1.0
C      1  0.3923050000000  0.7329670000000  0.7419670000000 1.0
C      1  0.3740830000000  0.4526460000000  0.6463870000000 1.0
C      1  0.3739190000000  0.6244070000000  0.5905010000000 1.0
C      1  0.3744060000000  0.6239680000000  0.4097830000000 1.0
C      1  0.3743210000000  0.4523580000000  0.3538930000000 1.0
C      1  0.3736070000000  0.3463040000000  0.5002530000000 1.0
C      1  0.3741220000000  0.5474430000000  0.6464760000000 1.0
C      1  0.3748390000000  0.3758690000000  0.5902880000000 1.0
C      1  0.3743660000000  0.3759270000000  0.4097410000000 1.0
C      1  0.3742150000000  0.5475460000000  0.3538350000000 1.0
C      1  0.3745610000000  0.6533780000000  0.5002430000000 1.0
C      1  0.5217070000000  0.3284540000000  0.3438240000000 1.0
C      1  0.5224110000000  0.2980870000000  0.6154040000000 1.0
C      1  0.5223130000000  0.5470830000000  0.7287650000000 1.0
C      1  0.5224530000000  0.7310330000000  0.5261940000000 1.0
C      1  0.5217160000000  0.5981130000000  0.2872150000000 1.0
C      1  0.5215670000000  0.6716450000000  0.3431890000000 1.0
C      1  0.5224290000000  0.7030580000000  0.6152630000000 1.0
C      1  0.5223060000000  0.4536560000000  0.7290510000000 1.0
C      1  0.5222490000000  0.2684770000000  0.5270190000000 1.0
C      1  0.5218850000000  0.4017990000000  0.2875670000000 1.0
C      1  0.6710040000000  0.6281830000000  0.5927020000000 1.0
C      1  0.6706300000000  0.6267700000000  0.4070680000000 1.0
C      1  0.6740260000000  0.4505700000000  0.3487630000000 1.0
C      1  0.6708670000000  0.3420270000000  0.5003210000000 1.0
C      1  0.6709000000000  0.4515600000000  0.6505490000000 1.0
C      1  0.6705090000000  0.3720150000000  0.5923150000000 1.0
C      1  0.6703380000000  0.3734010000000  0.4068630000000 1.0
C      1  0.6738530000000  0.5494970000000  0.3488020000000 1.0
C      1  0.6699370000000  0.6574140000000  0.5006510000000 1.0
C      1  0.6708440000000  0.5482150000000  0.6506600000000 1.0
C      1  0.6015600000000  0.7204690000000  0.4768780000000 1.0
C      1  0.6046610000000  0.5490760000000  0.2781230000000 1.0
C      1  0.6009470000000  0.3076560000000  0.3888440000000 1.0
C      1  0.6016770000000  0.3345490000000  0.6492830000000 1.0
C      1  0.6022390000000  0.5910210000000  0.7043840000000 1.0
C      1  0.6020760000000  0.2785480000000  0.4769030000000 1.0
C      1  0.6047600000000  0.4509030000000  0.2781210000000 1.0
C      1  0.6010830000000  0.6924680000000  0.3885180000000 1.0
C      1  0.6024740000000  0.6662100000000  0.6498020000000 1.0
C      1  0.6023000000000  0.4093070000000  0.7043160000000 1.0
END
