TITL C-1525613-7943-6896 0.435154258312008 3375 -8312.78560395314 0 0 60 (C1) n - 1
REM
REM in /home/nfs/bkarasulu/CARBON/AIRSS/Generating-Clusters/ReaxFF-fromJPCA2015/Units_Real/Try2-Higher-symm/Only-C60
REM
REM
REM
REM
REM
REM ./C.cell (863b2abdce7293c0672fb3ba77bf323a)
REM AIRSS Version 0.9.1 bugfix July 2018 build 013d7b7c2542+ Fri, 06 Jul 2018 19:26:36 +0100
REM compiler GCC version 9.2.1 20190827 (Red Hat 9.2.1-1)
REM options -cpp -mtune=generic -march=x86-64 -g -O0 -fpre-include=/usr/include/finclude/math-vector-fortran.h
REM seed -2094203999 -205111487 -733612430 -1074490809 1433538463 83206661 1235121736 1152751062 -1248426435 -1533115221 -1430627068 2090343931 -1747946184 -1768035347 -851093198 -747584804 -78507907 -666199428 810203783 228994716 161790776 -1199744280 551409495 1170281005 159692540 129304113 529690119 -52652225 117315344 845159331 -1543737257 -494620493 210610675
REM
CELL 1.54180   15.00000   15.00000   15.00000   90.00000   90.00000   90.00000
LATT -1
SFAC C  
C      1  0.3324990000000  0.5592980000000  0.3985530000000 1.0
C      1  0.3769350000000  0.5486350000000  0.6137600000000 1.0
C      1  0.5556960000000  0.5589930000000  0.6689460000000 1.0
C      1  0.6939330000000  0.5606390000000  0.4903690000000 1.0
C      1  0.5463710000000  0.5564680000000  0.3256510000000 1.0
C      1  0.6662200000000  0.5582140000000  0.3995830000000 1.0
C      1  0.6269490000000  0.5474300000000  0.6078350000000 1.0
C      1  0.4472760000000  0.5598810000000  0.6723770000000 1.0
C      1  0.3022630000000  0.5620050000000  0.4860890000000 1.0
C      1  0.4539880000000  0.5559790000000  0.3263110000000 1.0
C      1  0.4115470000000  0.5050200000000  0.7544400000000 1.0
C      1  0.6947250000000  0.5008320000000  0.6633530000000 1.0
C      1  0.7209550000000  0.5065240000000  0.3361480000000 1.0
C      1  0.4312750000000  0.5017690000000  0.2463770000000 1.0
C      1  0.2234630000000  0.5077320000000  0.5079370000000 1.0
C      1  0.5903720000000  0.5038740000000  0.7483060000000 1.0
C      1  0.3061120000000  0.5005460000000  0.6636010000000 1.0
C      1  0.2785650000000  0.5064340000000  0.3351150000000 1.0
C      1  0.5690500000000  0.5019990000000  0.2459070000000 1.0
C      1  0.7772600000000  0.5075120000000  0.5076140000000 1.0
C      1  0.2550120000000  0.3384480000000  0.4729380000000 1.0
C      1  0.4008080000000  0.3334030000000  0.7226150000000 1.0
C      1  0.6785360000000  0.3272910000000  0.6636090000000 1.0
C      1  0.7146460000000  0.3363360000000  0.3782170000000 1.0
C      1  0.4510620000000  0.3289560000000  0.2626750000000 1.0
C      1  0.7455770000000  0.3381920000000  0.4726240000000 1.0
C      1  0.6000340000000  0.3302210000000  0.7221320000000 1.0
C      1  0.3214900000000  0.3266890000000  0.6641050000000 1.0
C      1  0.2851780000000  0.3363200000000  0.3781450000000 1.0
C      1  0.5489650000000  0.3289330000000  0.2624750000000 1.0
C      1  0.7163150000000  0.4118210000000  0.6231120000000 1.0
C      1  0.6857940000000  0.4128230000000  0.3227620000000 1.0
C      1  0.3950010000000  0.4122530000000  0.2717770000000 1.0
C      1  0.2462500000000  0.4134260000000  0.5359790000000 1.0
C      1  0.4526630000000  0.4142860000000  0.7480000000000 1.0
C      1  0.2857880000000  0.4116000000000  0.6236240000000 1.0
C      1  0.3137570000000  0.4127850000000  0.3224880000000 1.0
C      1  0.6050630000000  0.4124230000000  0.2714230000000 1.0
C      1  0.7549880000000  0.4135940000000  0.5355490000000 1.0
C      1  0.5492250000000  0.4140740000000  0.7457210000000 1.0
C      1  0.7253670000000  0.5506720000000  0.2500580000000 1.0
C      1  0.3457530000000  0.5381570000000  0.2203290000000 1.0
C      1  0.1750870000000  0.5509390000000  0.5795090000000 1.0
C      1  0.4547360000000  0.5478250000000  0.8282450000000 1.0
C      1  0.7813320000000  0.5387670000000  0.6404310000000 1.0
C      1  0.2748530000000  0.5502810000000  0.2490720000000 1.0
C      1  0.6548080000000  0.5381930000000  0.2206410000000 1.0
C      1  0.8259200000000  0.5508010000000  0.5783690000000 1.0
C      1  0.5308480000000  0.5373290000000  0.8151580000000 1.0
C      1  0.2203600000000  0.5387060000000  0.6411920000000 1.0
C      1  0.3394640000000  0.6516830000000  0.4993290000000 1.0
C      1  0.4519710000000  0.6577720000000  0.6458340000000 1.0
C      1  0.6221560000000  0.6405240000000  0.5855610000000 1.0
C      1  0.6282790000000  0.6471350000000  0.4064480000000 1.0
C      1  0.4511340000000  0.6492290000000  0.3540090000000 1.0
C      1  0.6596100000000  0.6525650000000  0.4990020000000 1.0
C      1  0.5477420000000  0.6577160000000  0.6442320000000 1.0
C      1  0.3787620000000  0.6395830000000  0.5848580000000 1.0
C      1  0.3712570000000  0.6490220000000  0.4056020000000 1.0
C      1  0.5489560000000  0.6494430000000  0.3538780000000 1.0
END
