TITL C-1525613-7943-1893 0.0271017904178463 3375 -8429.74843988951 0 0 60 (Ci) n - 1
REM
REM in /home/nfs/bkarasulu/CARBON/AIRSS/Generating-Clusters/ReaxFF-fromJPCA2015/Units_Real/Try2-Higher-symm/Only-C60
REM
REM
REM
REM
REM
REM ./C.cell (863b2abdce7293c0672fb3ba77bf323a)
REM AIRSS Version 0.9.1 bugfix July 2018 build 013d7b7c2542+ Fri, 06 Jul 2018 19:26:36 +0100
REM compiler GCC version 9.2.1 20190827 (Red Hat 9.2.1-1)
REM options -cpp -mtune=generic -march=x86-64 -g -O0 -fpre-include=/usr/include/finclude/math-vector-fortran.h
REM seed 1911730321 1111626797 -637003035 -1911753162 673229946 2009870756 1788835392 2104434338 986109249 601143541 -1837378972 -1103448436 650382609 303025438 -2007075169 -1836231840 1053806113 -1698061644 -728157917 -2011006737 -99545041 662760333 1311787262 1709368341 -146766382 1880983486 1880138172 1612511423 565815065 -1168170044 -960536887 234958315 -1802493194
REM
CELL 1.54180   15.00000   15.00000   15.00000   90.00000   90.00000   90.00000
LATT -1
SFAC C  
C      1  0.3080470000000  0.6736230000000  0.4485840000000 1.0
C      1  0.4445650000000  0.7725640000000  0.5291370000000 1.0
C      1  0.6279290000000  0.7522450000000  0.4684830000000 1.0
C      1  0.7420180000000  0.6281190000000  0.5411350000000 1.0
C      1  0.7555640000000  0.4683740000000  0.4433530000000 1.0
C      1  0.6910940000000  0.3257440000000  0.5512200000000 1.0
C      1  0.5562910000000  0.2252630000000  0.4711580000000 1.0
C      1  0.3732110000000  0.2479850000000  0.5314950000000 1.0
C      1  0.2583310000000  0.3714550000000  0.4583890000000 1.0
C      1  0.2443700000000  0.5310190000000  0.5569030000000 1.0
C      1  0.5182570000000  0.6590360000000  0.5100110000000 1.0
C      1  0.6057590000000  0.6218060000000  0.4883750000000 1.0
C      1  0.6487580000000  0.5374950000000  0.5110890000000 1.0
C      1  0.6302300000000  0.4432810000000  0.4844430000000 1.0
C      1  0.5701680000000  0.3694320000000  0.5134760000000 1.0
C      1  0.4812990000000  0.3428800000000  0.4901140000000 1.0
C      1  0.3942330000000  0.3783620000000  0.5111450000000 1.0
C      1  0.3509880000000  0.4624700000000  0.4884200000000 1.0
C      1  0.3695050000000  0.5562660000000  0.5155160000000 1.0
C      1  0.4293990000000  0.6302430000000  0.4860070000000 1.0
C      1  0.5149200000000  0.6143570000000  0.2961410000000 1.0
C      1  0.5484360000000  0.5532110000000  0.6669620000000 1.0
C      1  0.5923490000000  0.5624680000000  0.2952200000000 1.0
C      1  0.5981010000000  0.4854250000000  0.7038870000000 1.0
C      1  0.5368880000000  0.4149740000000  0.3003570000000 1.0
C      1  0.4846280000000  0.3864160000000  0.7029600000000 1.0
C      1  0.4517390000000  0.4468650000000  0.3323230000000 1.0
C      1  0.4068730000000  0.4377050000000  0.7060060000000 1.0
C      1  0.4021380000000  0.5149040000000  0.2960450000000 1.0
C      1  0.4632280000000  0.5851120000000  0.6996420000000 1.0
C      1  0.5216140000000  0.2611060000000  0.3893880000000 1.0
C      1  0.3664380000000  0.3193340000000  0.5971870000000 1.0
C      1  0.3002330000000  0.4384120000000  0.4001610000000 1.0
C      1  0.3250220000000  0.5561420000000  0.6089260000000 1.0
C      1  0.3866700000000  0.6534120000000  0.3927360000000 1.0
C      1  0.4792430000000  0.7396240000000  0.6120820000000 1.0
C      1  0.6332460000000  0.6806720000000  0.4025900000000 1.0
C      1  0.6996580000000  0.5615690000000  0.5993640000000 1.0
C      1  0.6749900000000  0.4432390000000  0.3911700000000 1.0
C      1  0.6123890000000  0.3470060000000  0.6064740000000 1.0
C      1  0.2760650000000  0.5880370000000  0.4827390000000 1.0
C      1  0.3694320000000  0.7099690000000  0.5164310000000 1.0
C      1  0.5298850000000  0.7519730000000  0.4828110000000 1.0
C      1  0.6690390000000  0.6925040000000  0.5343350000000 1.0
C      1  0.7406410000000  0.5615180000000  0.4678400000000 1.0
C      1  0.7236820000000  0.4112540000000  0.5173650000000 1.0
C      1  0.6300610000000  0.2878130000000  0.4839120000000 1.0
C      1  0.4718460000000  0.2499660000000  0.5181940000000 1.0
C      1  0.3311480000000  0.3068290000000  0.4655180000000 1.0
C      1  0.2592200000000  0.4380560000000  0.5317010000000 1.0
C      1  0.5965040000000  0.6550400000000  0.3191070000000 1.0
C      1  0.6440010000000  0.5624230000000  0.6766820000000 1.0
C      1  0.6150090000000  0.4723310000000  0.3214020000000 1.0
C      1  0.5762350000000  0.3974460000000  0.6799390000000 1.0
C      1  0.5249110000000  0.3321660000000  0.3369130000000 1.0
C      1  0.4028710000000  0.3455470000000  0.6806560000000 1.0
C      1  0.3561440000000  0.4379170000000  0.3230210000000 1.0
C      1  0.3848250000000  0.5278640000000  0.6792100000000 1.0
C      1  0.4234220000000  0.6031000000000  0.3196660000000 1.0
C      1  0.4762430000000  0.6686320000000  0.6644850000000 1.0
END
