TITL C-1525613-7943-2204 0.0176092627787479 3375 -8515.38687877676 0 0 60 (C1) n - 1
REM
REM in /home/nfs/bkarasulu/CARBON/AIRSS/Generating-Clusters/ReaxFF-fromJPCA2015/Units_Real/Try2-Higher-symm/Only-C60
REM
REM
REM
REM
REM
REM ./C.cell (863b2abdce7293c0672fb3ba77bf323a)
REM AIRSS Version 0.9.1 bugfix July 2018 build 013d7b7c2542+ Fri, 06 Jul 2018 19:26:36 +0100
REM compiler GCC version 9.2.1 20190827 (Red Hat 9.2.1-1)
REM options -cpp -mtune=generic -march=x86-64 -g -O0 -fpre-include=/usr/include/finclude/math-vector-fortran.h
REM seed 1022423443 -1383307799 -1533123417 1545415790 1359818237 1730470349 140904877 -694111073 1541866570 611790020 -2036265823 650505142 2145069409 -1150370294 1080389784 358588269 755705310 -1674111657 1583087674 1757735046 -1091163154 -2111808091 -1267384427 885986097 1189828219 2137652264 -1087770671 -1308628336 -914186894 2050879042 -2125946173 626795746 -79317902
REM
CELL 1.54180   15.00000   15.00000   15.00000   90.00000   90.00000   90.00000
LATT -1
SFAC C  
C      1  0.5934730000000  0.2241870000000  0.4341800000000 1.0
C      1  0.5940460000000  0.3514010000000  0.7443680000000 1.0
C      1  0.5956090000000  0.6848690000000  0.7201560000000 1.0
C      1  0.5913210000000  0.7627100000000  0.3956220000000 1.0
C      1  0.5910820000000  0.4797630000000  0.2182480000000 1.0
C      1  0.4065110000000  0.2242520000000  0.5658040000000 1.0
C      1  0.4059910000000  0.3512960000000  0.2555370000000 1.0
C      1  0.4043860000000  0.6848670000000  0.2798100000000 1.0
C      1  0.4086910000000  0.7627070000000  0.6044200000000 1.0
C      1  0.4089420000000  0.4797540000000  0.7817950000000 1.0
C      1  0.4042430000000  0.3189700000000  0.3318550000000 1.0
C      1  0.4047030000000  0.2872590000000  0.6198880000000 1.0
C      1  0.4064770000000  0.5504570000000  0.7384790000000 1.0
C      1  0.4048610000000  0.7439760000000  0.5236720000000 1.0
C      1  0.4014830000000  0.6021250000000  0.2727370000000 1.0
C      1  0.5957780000000  0.3190530000000  0.6680820000000 1.0
C      1  0.5952710000000  0.2871720000000  0.3800750000000 1.0
C      1  0.5935280000000  0.5504480000000  0.2615170000000 1.0
C      1  0.5951560000000  0.7439240000000  0.4763400000000 1.0
C      1  0.5984650000000  0.6021050000000  0.7273340000000 1.0
C      1  0.5960880000000  0.2548020000000  0.5113250000000 1.0
C      1  0.5979020000000  0.4341980000000  0.7389750000000 1.0
C      1  0.5973330000000  0.7049760000000  0.6397340000000 1.0
C      1  0.5939130000000  0.6925480000000  0.3513090000000 1.0
C      1  0.5938430000000  0.4156910000000  0.2711100000000 1.0
C      1  0.4038990000000  0.2548390000000  0.4886460000000 1.0
C      1  0.4021100000000  0.4340550000000  0.2608830000000 1.0
C      1  0.4026750000000  0.7050220000000  0.3602840000000 1.0
C      1  0.4060580000000  0.6924340000000  0.6486190000000 1.0
C      1  0.4061570000000  0.4157110000000  0.7289120000000 1.0
C      1  0.6354460000000  0.5082220000000  0.5946690000000 1.0
C      1  0.6316550000000  0.5887760000000  0.5254400000000 1.0
C      1  0.6306640000000  0.5465280000000  0.4233500000000 1.0
C      1  0.6319140000000  0.4412360000000  0.4309210000000 1.0
C      1  0.6313570000000  0.4145440000000  0.5373240000000 1.0
C      1  0.3647480000000  0.5075760000000  0.4051110000000 1.0
C      1  0.3682370000000  0.5888240000000  0.4745550000000 1.0
C      1  0.3689580000000  0.5464610000000  0.5767100000000 1.0
C      1  0.3681200000000  0.4416220000000  0.5692070000000 1.0
C      1  0.3688220000000  0.4146970000000  0.4622160000000 1.0
C      1  0.2690870000000  0.5411460000000  0.5691730000000 1.0
C      1  0.2685820000000  0.5779840000000  0.4795010000000 1.0
C      1  0.2653380000000  0.5047020000000  0.4168670000000 1.0
C      1  0.2690860000000  0.4226210000000  0.4676630000000 1.0
C      1  0.2681590000000  0.4451320000000  0.5616410000000 1.0
C      1  0.7306160000000  0.5411990000000  0.4311370000000 1.0
C      1  0.7315920000000  0.5778380000000  0.5208060000000 1.0
C      1  0.7348350000000  0.5044500000000  0.5833400000000 1.0
C      1  0.7310650000000  0.4224160000000  0.5323630000000 1.0
C      1  0.7318410000000  0.4450980000000  0.4384040000000 1.0
C      1  0.6052110000000  0.5156090000000  0.6960000000000 1.0
C      1  0.6026870000000  0.6878140000000  0.5492420000000 1.0
C      1  0.6002390000000  0.6011970000000  0.3382930000000 1.0
C      1  0.6003680000000  0.3757260000000  0.3540460000000 1.0
C      1  0.6014520000000  0.3214970000000  0.5756230000000 1.0
C      1  0.3947710000000  0.5154390000000  0.3039590000000 1.0
C      1  0.3972720000000  0.6877430000000  0.4507950000000 1.0
C      1  0.3996840000000  0.6010820000000  0.6616580000000 1.0
C      1  0.3996480000000  0.3757760000000  0.6459960000000 1.0
C      1  0.3985480000000  0.3214730000000  0.4242730000000 1.0
END
