TITL C-1525613-7943-2418 -0.00117939040847377 3375 -9085.36727329588 0 0 60 (C2) n - 1
REM
REM in /home/nfs/bkarasulu/CARBON/AIRSS/Generating-Clusters/ReaxFF-fromJPCA2015/Units_Real/Try2-Higher-symm/Only-C60
REM
REM
REM
REM
REM
REM ./C.cell (863b2abdce7293c0672fb3ba77bf323a)
REM AIRSS Version 0.9.1 bugfix July 2018 build 013d7b7c2542+ Fri, 06 Jul 2018 19:26:36 +0100
REM compiler GCC version 9.2.1 20190827 (Red Hat 9.2.1-1)
REM options -cpp -mtune=generic -march=x86-64 -g -O0 -fpre-include=/usr/include/finclude/math-vector-fortran.h
REM seed -162678580 1900475264 -716254573 -1320208362 -359900966 1746078267 -53123430 523633471 129251630 -1129734823 927424261 -1884727256 -915920408 582743599 1899382817 -409914630 -147994824 -161077940 -764716382 1358638863 -629545839 613892210 1032166090 -1676240368 -1081620818 -612628279 -1190098350 -55585859 -1496572315 -1032203320 317171121 -1230906854 -1754916546
REM
CELL 1.54180   15.00000   15.00000   15.00000   90.00000   90.00000   90.00000
LATT -1
SFAC C  
C      1  0.6766640000000  0.5144230000000  0.3316330000000 1.0
C      1  0.6719530000000  0.4230850000000  0.3661000000000 1.0
C      1  0.6770010000000  0.3538230000000  0.4469660000000 1.0
C      1  0.6745600000000  0.3394260000000  0.5432760000000 1.0
C      1  0.6685130000000  0.3939660000000  0.6276050000000 1.0
C      1  0.6770780000000  0.4855270000000  0.6684300000000 1.0
C      1  0.6718520000000  0.5767360000000  0.6337950000000 1.0
C      1  0.6766840000000  0.6462500000000  0.5530440000000 1.0
C      1  0.6745640000000  0.6609200000000  0.4567860000000 1.0
C      1  0.6679300000000  0.6057820000000  0.3727900000000 1.0
C      1  0.3325680000000  0.5589880000000  0.3532470000000 1.0
C      1  0.3527100000000  0.4639330000000  0.3515850000000 1.0
C      1  0.3420480000000  0.3802980000000  0.4002040000000 1.0
C      1  0.3532310000000  0.3479070000000  0.4912710000000 1.0
C      1  0.3323410000000  0.3665630000000  0.5844080000000 1.0
C      1  0.3324790000000  0.4410300000000  0.6467260000000 1.0
C      1  0.3527630000000  0.5360580000000  0.6485590000000 1.0
C      1  0.3419740000000  0.6196600000000  0.5998810000000 1.0
C      1  0.3530600000000  0.6520050000000  0.5087870000000 1.0
C      1  0.3324640000000  0.6334780000000  0.4155700000000 1.0
C      1  0.4247320000000  0.3241090000000  0.7109600000000 1.0
C      1  0.4430820000000  0.4701370000000  0.7664130000000 1.0
C      1  0.4486040000000  0.6421460000000  0.7225460000000 1.0
C      1  0.4499010000000  0.7433440000000  0.5998180000000 1.0
C      1  0.4420740000000  0.7567750000000  0.4227500000000 1.0
C      1  0.4244430000000  0.6759700000000  0.2888850000000 1.0
C      1  0.4429720000000  0.5297800000000  0.2335150000000 1.0
C      1  0.4486050000000  0.3579140000000  0.2773560000000 1.0
C      1  0.4501390000000  0.2567900000000  0.4001230000000 1.0
C      1  0.4419930000000  0.2432240000000  0.5773510000000 1.0
C      1  0.4125020000000  0.4471540000000  0.2758590000000 1.0
C      1  0.3958020000000  0.3172280000000  0.3475640000000 1.0
C      1  0.4134440000000  0.2707640000000  0.4881270000000 1.0
C      1  0.3796840000000  0.2941940000000  0.6317550000000 1.0
C      1  0.3804150000000  0.4076870000000  0.7262200000000 1.0
C      1  0.4126680000000  0.5528090000000  0.7241850000000 1.0
C      1  0.3956780000000  0.6828540000000  0.6524350000000 1.0
C      1  0.4131500000000  0.7292800000000  0.5118890000000 1.0
C      1  0.3796370000000  0.7060030000000  0.3682500000000 1.0
C      1  0.3802180000000  0.5922860000000  0.2735500000000 1.0
C      1  0.6083690000000  0.6028500000000  0.6911880000000 1.0
C      1  0.6121150000000  0.7072830000000  0.5705370000000 1.0
C      1  0.6096240000000  0.7396640000000  0.4380170000000 1.0
C      1  0.6121330000000  0.6553380000000  0.3145070000000 1.0
C      1  0.6122810000000  0.5196850000000  0.2504480000000 1.0
C      1  0.6084250000000  0.3968530000000  0.3087400000000 1.0
C      1  0.6124180000000  0.2927420000000  0.4294680000000 1.0
C      1  0.6096670000000  0.2604240000000  0.5618570000000 1.0
C      1  0.6120710000000  0.3445680000000  0.6854560000000 1.0
C      1  0.6128040000000  0.4802540000000  0.7497220000000 1.0
C      1  0.5304580000000  0.4265760000000  0.7601120000000 1.0
C      1  0.5432580000000  0.6675440000000  0.7069440000000 1.0
C      1  0.5442460000000  0.7328000000000  0.6292400000000 1.0
C      1  0.5294460000000  0.7428140000000  0.3810470000000 1.0
C      1  0.5265370000000  0.6827640000000  0.2808950000000 1.0
C      1  0.5302250000000  0.5736520000000  0.2398570000000 1.0
C      1  0.5432410000000  0.3323280000000  0.2929400000000 1.0
C      1  0.5444790000000  0.2672270000000  0.3707600000000 1.0
C      1  0.5294450000000  0.2571030000000  0.6188390000000 1.0
C      1  0.5265770000000  0.3172220000000  0.7192160000000 1.0
END
