TITL C-1525613-7943-794 0.323221804443489 3375 -8387.39388555211 0 0 60 (C2) n - 1
REM
REM in /home/nfs/bkarasulu/CARBON/AIRSS/Generating-Clusters/ReaxFF-fromJPCA2015/Units_Real/Try2-Higher-symm/Only-C60
REM
REM
REM
REM
REM
REM ./C.cell (863b2abdce7293c0672fb3ba77bf323a)
REM AIRSS Version 0.9.1 bugfix July 2018 build 013d7b7c2542+ Fri, 06 Jul 2018 19:26:36 +0100
REM compiler GCC version 9.2.1 20190827 (Red Hat 9.2.1-1)
REM options -cpp -mtune=generic -march=x86-64 -g -O0 -fpre-include=/usr/include/finclude/math-vector-fortran.h
REM seed 2076092537 -1831526013 628861057 -61345102 -1009912531 -1727196246 -1065789210 987337664 1779799325 -1952130393 478638452 1132400850 1442508957 -2068127243 -1405987375 -529471398 -1648137619 -316838472 -1573936518 384619315 241641812 627181035 167527607 1559729358 -1249629903 1397475024 -324612048 -1794809632 -1037782748 -1640311250 -1914239844 326080240 566593304
REM
CELL 1.54180   15.00000   15.00000   15.00000   90.00000   90.00000   90.00000
LATT -1
SFAC C  
C      1  0.5522930000000  0.5845420000000  0.7345380000000 1.0
C      1  0.4083550000000  0.5773160000000  0.7451000000000 1.0
C      1  0.3054480000000  0.5889080000000  0.6227890000000 1.0
C      1  0.2390550000000  0.5771910000000  0.4787960000000 1.0
C      1  0.3097260000000  0.5863060000000  0.3507760000000 1.0
C      1  0.4476680000000  0.5843210000000  0.2652990000000 1.0
C      1  0.5916230000000  0.5773080000000  0.2548780000000 1.0
C      1  0.6945310000000  0.5888030000000  0.3772250000000 1.0
C      1  0.7609820000000  0.5772150000000  0.5211630000000 1.0
C      1  0.6902350000000  0.5862930000000  0.6491880000000 1.0
C      1  0.7089990000000  0.6316530000000  0.4634230000000 1.0
C      1  0.6935830000000  0.6344110000000  0.5652110000000 1.0
C      1  0.6096420000000  0.6234920000000  0.6740650000000 1.0
C      1  0.4748890000000  0.6330450000000  0.6996110000000 1.0
C      1  0.3752360000000  0.6322270000000  0.6742540000000 1.0
C      1  0.2909630000000  0.6316910000000  0.5365390000000 1.0
C      1  0.3063010000000  0.6345190000000  0.4347380000000 1.0
C      1  0.3904020000000  0.6235240000000  0.3259130000000 1.0
C      1  0.5250970000000  0.6329740000000  0.3004110000000 1.0
C      1  0.6246750000000  0.6321640000000  0.3258290000000 1.0
C      1  0.5864370000000  0.3662290000000  0.6279830000000 1.0
C      1  0.4939750000000  0.3665410000000  0.6573950000000 1.0
C      1  0.4002910000000  0.3678300000000  0.6264690000000 1.0
C      1  0.3466090000000  0.3677420000000  0.5452210000000 1.0
C      1  0.3520400000000  0.3673790000000  0.4460050000000 1.0
C      1  0.4136800000000  0.3660280000000  0.3721130000000 1.0
C      1  0.5059860000000  0.3664460000000  0.3426450000000 1.0
C      1  0.5996060000000  0.3680460000000  0.3735610000000 1.0
C      1  0.6533470000000  0.3679110000000  0.4548160000000 1.0
C      1  0.6479420000000  0.3676610000000  0.5540240000000 1.0
C      1  0.5839600000000  0.5068970000000  0.3989030000000 1.0
C      1  0.6120840000000  0.5080020000000  0.4797660000000 1.0
C      1  0.6283480000000  0.5099350000000  0.5564590000000 1.0
C      1  0.5758370000000  0.5033920000000  0.6263480000000 1.0
C      1  0.4959500000000  0.5066270000000  0.6095860000000 1.0
C      1  0.4160200000000  0.5068880000000  0.6008950000000 1.0
C      1  0.3876000000000  0.5082350000000  0.5201470000000 1.0
C      1  0.3719980000000  0.5101950000000  0.4433410000000 1.0
C      1  0.4238510000000  0.5031480000000  0.3737050000000 1.0
C      1  0.5038440000000  0.5065180000000  0.3901900000000 1.0
C      1  0.4890160000000  0.4277430000000  0.7384160000000 1.0
C      1  0.3478360000000  0.4282530000000  0.6883680000000 1.0
C      1  0.2724090000000  0.4316000000000  0.5638450000000 1.0
C      1  0.2731070000000  0.4252880000000  0.4148450000000 1.0
C      1  0.3694870000000  0.4338110000000  0.2995000000000 1.0
C      1  0.5108540000000  0.4278740000000  0.2614240000000 1.0
C      1  0.6521920000000  0.4283010000000  0.3115880000000 1.0
C      1  0.7276000000000  0.4316740000000  0.4362290000000 1.0
C      1  0.7273350000000  0.4251100000000  0.5853820000000 1.0
C      1  0.6308520000000  0.4334480000000  0.7006370000000 1.0
C      1  0.7070290000000  0.4839670000000  0.6606180000000 1.0
C      1  0.5648620000000  0.4838720000000  0.7548670000000 1.0
C      1  0.4068660000000  0.4773950000000  0.7482870000000 1.0
C      1  0.2865560000000  0.4907010000000  0.6404000000000 1.0
C      1  0.2351870000000  0.4775780000000  0.4877950000000 1.0
C      1  0.2929260000000  0.4840870000000  0.3395140000000 1.0
C      1  0.4353800000000  0.4840020000000  0.2453020000000 1.0
C      1  0.5930830000000  0.4774240000000  0.2517600000000 1.0
C      1  0.7134870000000  0.4906910000000  0.3596250000000 1.0
C      1  0.7648280000000  0.4776260000000  0.5122820000000 1.0
END
