TITL C-1525613-7943-6989 0.424426227073498 3375 -8174.81061769701 0 0 60 (C1) n - 1
REM
REM in /home/nfs/bkarasulu/CARBON/AIRSS/Generating-Clusters/ReaxFF-fromJPCA2015/Units_Real/Try2-Higher-symm/Only-C60
REM
REM
REM
REM
REM
REM ./C.cell (863b2abdce7293c0672fb3ba77bf323a)
REM AIRSS Version 0.9.1 bugfix July 2018 build 013d7b7c2542+ Fri, 06 Jul 2018 19:26:36 +0100
REM compiler GCC version 9.2.1 20190827 (Red Hat 9.2.1-1)
REM options -cpp -mtune=generic -march=x86-64 -g -O0 -fpre-include=/usr/include/finclude/math-vector-fortran.h
REM seed -1861837277 907510104 1352412522 -1071265666 1645898496 1775522795 779009986 1701367697 1037295595 -2022734429 -322548455 -281778923 175625505 150484116 2132882554 2134086151 219727350 350788035 54239226 1689158104 -458191096 1449330683 -1242218961 -781199103 -862576756 490353980 -1675265660 122521200 -299335500 1181230172 1653306992 2003480396 1462859293
REM
CELL 1.54180   15.00000   15.00000   15.00000   90.00000   90.00000   90.00000
LATT -1
SFAC C  
C      1  0.6248140000000  0.2933570000000  0.3939660000000 1.0
C      1  0.4390890000000  0.2922340000000  0.3502810000000 1.0
C      1  0.3393930000000  0.2941000000000  0.5118120000000 1.0
C      1  0.4600820000000  0.2962250000000  0.6588530000000 1.0
C      1  0.6377620000000  0.2947400000000  0.5850300000000 1.0
C      1  0.6222600000000  0.7114930000000  0.6103620000000 1.0
C      1  0.4292120000000  0.6982600000000  0.6516290000000 1.0
C      1  0.3349380000000  0.6926190000000  0.4849820000000 1.0
C      1  0.4606880000000  0.7096620000000  0.3396810000000 1.0
C      1  0.6361130000000  0.7061900000000  0.4168850000000 1.0
C      1  0.7320360000000  0.5413750000000  0.5016830000000 1.0
C      1  0.5737580000000  0.5462170000000  0.2953290000000 1.0
C      1  0.3315680000000  0.5479660000000  0.3716260000000 1.0
C      1  0.3271240000000  0.5507190000000  0.6215750000000 1.0
C      1  0.5576840000000  0.5457450000000  0.7069770000000 1.0
C      1  0.7189720000000  0.4483050000000  0.4914500000000 1.0
C      1  0.5731620000000  0.4533070000000  0.6979070000000 1.0
C      1  0.3339090000000  0.4572020000000  0.6332710000000 1.0
C      1  0.3222790000000  0.4547190000000  0.3850890000000 1.0
C      1  0.5553090000000  0.4533840000000  0.2955320000000 1.0
C      1  0.4276810000000  0.3903940000000  0.5322090000000 1.0
C      1  0.5111650000000  0.3865160000000  0.5758620000000 1.0
C      1  0.5792200000000  0.3876970000000  0.5099300000000 1.0
C      1  0.5384510000000  0.3873800000000  0.4249790000000 1.0
C      1  0.4449260000000  0.3883540000000  0.4397970000000 1.0
C      1  0.4425340000000  0.6177280000000  0.4537560000000 1.0
C      1  0.5163840000000  0.6043440000000  0.4019590000000 1.0
C      1  0.6146110000000  0.6054650000000  0.5025100000000 1.0
C      1  0.5264180000000  0.6229720000000  0.6053570000000 1.0
C      1  0.4532910000000  0.6177970000000  0.5453330000000 1.0
C      1  0.6180250000000  0.3935740000000  0.3573740000000 1.0
C      1  0.4003660000000  0.3960490000000  0.3478630000000 1.0
C      1  0.3253190000000  0.3962450000000  0.5465010000000 1.0
C      1  0.4856890000000  0.3937920000000  0.6866950000000 1.0
C      1  0.6767100000000  0.3940070000000  0.5721150000000 1.0
C      1  0.6156370000000  0.6122890000000  0.6419470000000 1.0
C      1  0.3940030000000  0.6074710000000  0.6704840000000 1.0
C      1  0.3073900000000  0.6048390000000  0.4527650000000 1.0
C      1  0.4814050000000  0.6076430000000  0.3085570000000 1.0
C      1  0.6757910000000  0.6080740000000  0.4259030000000 1.0
C      1  0.4133680000000  0.4591090000000  0.6868250000000 1.0
C      1  0.6408330000000  0.4621930000000  0.6309330000000 1.0
C      1  0.6745180000000  0.4589120000000  0.4050810000000 1.0
C      1  0.4594170000000  0.4604410000000  0.3019850000000 1.0
C      1  0.2960400000000  0.4586210000000  0.4763940000000 1.0
C      1  0.4105360000000  0.5411870000000  0.3148410000000 1.0
C      1  0.6417540000000  0.5390200000000  0.3643990000000 1.0
C      1  0.6635440000000  0.5510960000000  0.5758040000000 1.0
C      1  0.4591650000000  0.5439280000000  0.7010350000000 1.0
C      1  0.2959460000000  0.5433510000000  0.5254150000000 1.0
C      1  0.5302430000000  0.2882200000000  0.3810410000000 1.0
C      1  0.3968520000000  0.2879550000000  0.4348010000000 1.0
C      1  0.4077250000000  0.2882460000000  0.5779160000000 1.0
C      1  0.5433960000000  0.2908340000000  0.6098160000000 1.0
C      1  0.6203300000000  0.2910180000000  0.4907200000000 1.0
C      1  0.5283310000000  0.7154140000000  0.6346730000000 1.0
C      1  0.3987130000000  0.7007210000000  0.5600170000000 1.0
C      1  0.4081080000000  0.7076700000000  0.4214470000000 1.0
C      1  0.5444810000000  0.7006360000000  0.3879050000000 1.0
C      1  0.6215310000000  0.7009780000000  0.5131320000000 1.0
END
