TITL C-1525613-7943-7549 0.0937523247253792 3375 -8751.43853879407 0 0 60 (C1) n - 1
REM
REM in /home/nfs/bkarasulu/CARBON/AIRSS/Generating-Clusters/ReaxFF-fromJPCA2015/Units_Real/Try2-Higher-symm/Only-C60
REM
REM
REM
REM
REM
REM ./C.cell (863b2abdce7293c0672fb3ba77bf323a)
REM AIRSS Version 0.9.1 bugfix July 2018 build 013d7b7c2542+ Fri, 06 Jul 2018 19:26:36 +0100
REM compiler GCC version 9.2.1 20190827 (Red Hat 9.2.1-1)
REM options -cpp -mtune=generic -march=x86-64 -g -O0 -fpre-include=/usr/include/finclude/math-vector-fortran.h
REM seed 102626084 -1662827699 -1534267663 1974203793 -1621165413 -1514419291 -195180974 622119302 1474031656 -1083707818 2080853804 193556998 888256001 2121799253 2081354505 -1488419143 1316893369 749208444 -1362907852 -1717886868 -796806816 -1255244123 337909815 546392194 -1802215728 -412234630 -463507763 804427292 117026131 218642347 1379097091 770648665 -779955872
REM
CELL 1.54180   15.00000   15.00000   15.00000   90.00000   90.00000   90.00000
LATT -1
SFAC C  
C      1  0.7077990000000  0.3764650000000  0.5656930000000 1.0
C      1  0.6274620000000  0.3751120000000  0.3227330000000 1.0
C      1  0.3707320000000  0.3763820000000  0.3248720000000 1.0
C      1  0.2928630000000  0.3754540000000  0.5682890000000 1.0
C      1  0.5017000000000  0.3770140000000  0.7181000000000 1.0
C      1  0.7076300000000  0.6238510000000  0.5653190000000 1.0
C      1  0.6185800000000  0.6261310000000  0.3253510000000 1.0
C      1  0.3727240000000  0.6234290000000  0.3251190000000 1.0
C      1  0.3019040000000  0.6260580000000  0.5712830000000 1.0
C      1  0.4993750000000  0.6225260000000  0.7170580000000 1.0
C      1  0.5817200000000  0.7610800000000  0.5266270000000 1.0
C      1  0.5506060000000  0.7610350000000  0.4331560000000 1.0
C      1  0.4514570000000  0.7602470000000  0.4325630000000 1.0
C      1  0.4215810000000  0.7608360000000  0.5264660000000 1.0
C      1  0.5015160000000  0.7601860000000  0.5849980000000 1.0
C      1  0.5811000000000  0.2395660000000  0.5250360000000 1.0
C      1  0.5484020000000  0.2394860000000  0.4314240000000 1.0
C      1  0.4493070000000  0.2397240000000  0.4335730000000 1.0
C      1  0.4206590000000  0.2393990000000  0.5284970000000 1.0
C      1  0.5021740000000  0.2397130000000  0.5849510000000 1.0
C      1  0.6596720000000  0.4413020000000  0.4011160000000 1.0
C      1  0.4563190000000  0.4411970000000  0.3169520000000 1.0
C      1  0.3124570000000  0.4415970000000  0.4858590000000 1.0
C      1  0.4280950000000  0.4413970000000  0.6730020000000 1.0
C      1  0.6430200000000  0.4418890000000  0.6214070000000 1.0
C      1  0.6569790000000  0.5586400000000  0.4013280000000 1.0
C      1  0.4576090000000  0.5577520000000  0.3203310000000 1.0
C      1  0.3154490000000  0.5591080000000  0.4866180000000 1.0
C      1  0.4289860000000  0.5577730000000  0.6691950000000 1.0
C      1  0.6413210000000  0.5589960000000  0.6205670000000 1.0
C      1  0.3376840000000  0.7153630000000  0.5513160000000 1.0
C      1  0.5030690000000  0.7093480000000  0.6702320000000 1.0
C      1  0.6644160000000  0.7106990000000  0.5499540000000 1.0
C      1  0.6028800000000  0.7154260000000  0.3631060000000 1.0
C      1  0.3989690000000  0.7092650000000  0.3653460000000 1.0
C      1  0.3398280000000  0.2895570000000  0.5568680000000 1.0
C      1  0.5045680000000  0.2916770000000  0.6694850000000 1.0
C      1  0.6630070000000  0.2905560000000  0.5487250000000 1.0
C      1  0.5965640000000  0.2896880000000  0.3605990000000 1.0
C      1  0.3978650000000  0.2918790000000  0.3667840000000 1.0
C      1  0.5414400000000  0.4012520000000  0.2973350000000 1.0
C      1  0.3193060000000  0.4022270000000  0.3986460000000 1.0
C      1  0.3475230000000  0.4015120000000  0.6394120000000 1.0
C      1  0.5863940000000  0.4027400000000  0.6880850000000 1.0
C      1  0.7050990000000  0.4017840000000  0.4757850000000 1.0
C      1  0.5416370000000  0.5945260000000  0.2755550000000 1.0
C      1  0.3210380000000  0.5986150000000  0.3991260000000 1.0
C      1  0.3341720000000  0.5936930000000  0.6566980000000 1.0
C      1  0.5847820000000  0.5980880000000  0.6876790000000 1.0
C      1  0.7032520000000  0.5981220000000  0.4757360000000 1.0
C      1  0.4692130000000  0.5740020000000  0.5757920000000 1.0
C      1  0.5611630000000  0.5754740000000  0.5521990000000 1.0
C      1  0.5673780000000  0.5733900000000  0.4563450000000 1.0
C      1  0.4800930000000  0.5730630000000  0.4190450000000 1.0
C      1  0.4199890000000  0.5731430000000  0.4937550000000 1.0
C      1  0.4701560000000  0.4235560000000  0.5755110000000 1.0
C      1  0.5627510000000  0.4244920000000  0.5518250000000 1.0
C      1  0.5685050000000  0.4249110000000  0.4561140000000 1.0
C      1  0.4794990000000  0.4240890000000  0.4206970000000 1.0
C      1  0.4185660000000  0.4245200000000  0.4947660000000 1.0
END
