TITL C-1525613-7943-4520 0.003894442087857 3375 -8607.3114539441 0 0 60 (C2) n - 1
REM
REM in /home/nfs/bkarasulu/CARBON/AIRSS/Generating-Clusters/ReaxFF-fromJPCA2015/Units_Real/Try2-Higher-symm/Only-C60
REM
REM
REM
REM
REM
REM ./C.cell (863b2abdce7293c0672fb3ba77bf323a)
REM AIRSS Version 0.9.1 bugfix July 2018 build 013d7b7c2542+ Fri, 06 Jul 2018 19:26:36 +0100
REM compiler GCC version 9.2.1 20190827 (Red Hat 9.2.1-1)
REM options -cpp -mtune=generic -march=x86-64 -g -O0 -fpre-include=/usr/include/finclude/math-vector-fortran.h
REM seed 1046067721 -47777577 -199360448 -1587211109 -1231308862 850500156 -259836913 1816215994 -306499646 -1439574729 -290109424 55415967 1596016037 -441509330 1330275286 1087443983 -1990409985 -1375382890 240335399 -364700593 -1664357670 -20428004 -1620650273 983382566 402334917 1266797248 422679227 -27893061 -1518922669 1138676554 1736744167 1791553613 -1151155201
REM
CELL 1.54180   15.00000   15.00000   15.00000   90.00000   90.00000   90.00000
LATT -1
SFAC C  
C      1  0.6727610000000  0.4846410000000  0.6993840000000 1.0
C      1  0.7542040000000  0.4826070000000  0.5589480000000 1.0
C      1  0.7402210000000  0.4827790000000  0.3979900000000 1.0
C      1  0.6368400000000  0.4837360000000  0.2732070000000 1.0
C      1  0.4767150000000  0.4824880000000  0.2397610000000 1.0
C      1  0.3282260000000  0.4847740000000  0.3030620000000 1.0
C      1  0.2456380000000  0.4821800000000  0.4407410000000 1.0
C      1  0.2599430000000  0.4830350000000  0.6019150000000 1.0
C      1  0.3626920000000  0.4837950000000  0.7275740000000 1.0
C      1  0.5232060000000  0.4825510000000  0.7599190000000 1.0
C      1  0.4075100000000  0.4309820000000  0.2792510000000 1.0
C      1  0.2928580000000  0.4296890000000  0.3771160000000 1.0
C      1  0.2616520000000  0.4302960000000  0.5194470000000 1.0
C      1  0.3203270000000  0.4309170000000  0.6577280000000 1.0
C      1  0.4458760000000  0.4305290000000  0.7353680000000 1.0
C      1  0.5929260000000  0.4315530000000  0.7206220000000 1.0
C      1  0.7068360000000  0.4303030000000  0.6238800000000 1.0
C      1  0.7384300000000  0.4304250000000  0.4806500000000 1.0
C      1  0.6802550000000  0.4301860000000  0.3421190000000 1.0
C      1  0.5537060000000  0.4303500000000  0.2649220000000 1.0
C      1  0.6605560000000  0.5870630000000  0.6874440000000 1.0
C      1  0.7384940000000  0.5837660000000  0.5561160000000 1.0
C      1  0.7246100000000  0.5856430000000  0.4063600000000 1.0
C      1  0.6272630000000  0.5857380000000  0.2908330000000 1.0
C      1  0.4795860000000  0.5838120000000  0.2558610000000 1.0
C      1  0.3397180000000  0.5878900000000  0.3128220000000 1.0
C      1  0.2617480000000  0.5836650000000  0.4438640000000 1.0
C      1  0.2750490000000  0.5860780000000  0.5936880000000 1.0
C      1  0.3724480000000  0.5854540000000  0.7094170000000 1.0
C      1  0.5204730000000  0.5837410000000  0.7440170000000 1.0
C      1  0.6587070000000  0.3710770000000  0.4855900000000 1.0
C      1  0.6201160000000  0.3711460000000  0.3938700000000 1.0
C      1  0.5349600000000  0.3710230000000  0.3443210000000 1.0
C      1  0.4372030000000  0.3714050000000  0.3531710000000 1.0
C      1  0.3624600000000  0.3721240000000  0.4185570000000 1.0
C      1  0.3412470000000  0.3712060000000  0.5144190000000 1.0
C      1  0.3801300000000  0.3714120000000  0.6059450000000 1.0
C      1  0.4650420000000  0.3715530000000  0.6555730000000 1.0
C      1  0.5627890000000  0.3716510000000  0.6464910000000 1.0
C      1  0.6368730000000  0.3721650000000  0.5810780000000 1.0
C      1  0.7148450000000  0.6198270000000  0.4825350000000 1.0
C      1  0.6647800000000  0.6226700000000  0.3579200000000 1.0
C      1  0.5501440000000  0.6208840000000  0.2892320000000 1.0
C      1  0.4163980000000  0.6197280000000  0.3002980000000 1.0
C      1  0.3142320000000  0.6216940000000  0.3867550000000 1.0
C      1  0.2851000000000  0.6197880000000  0.5173850000000 1.0
C      1  0.3352770000000  0.6222370000000  0.6419210000000 1.0
C      1  0.4499240000000  0.6203940000000  0.7105290000000 1.0
C      1  0.5837230000000  0.6194560000000  0.6994350000000 1.0
C      1  0.6857840000000  0.6212330000000  0.6132570000000 1.0
C      1  0.3843530000000  0.5095520000000  0.5674410000000 1.0
C      1  0.4427940000000  0.5065220000000  0.6256700000000 1.0
C      1  0.5221140000000  0.5073060000000  0.6127080000000 1.0
C      1  0.6019790000000  0.5087630000000  0.5952010000000 1.0
C      1  0.6177450000000  0.5102590000000  0.5113410000000 1.0
C      1  0.6157300000000  0.5107030000000  0.4321780000000 1.0
C      1  0.5571300000000  0.5070330000000  0.3742430000000 1.0
C      1  0.4773540000000  0.5076270000000  0.3864740000000 1.0
C      1  0.3980580000000  0.5088780000000  0.4044150000000 1.0
C      1  0.3822410000000  0.5100140000000  0.4880220000000 1.0
END
