TITL C-1525613-7943-2520 -7.50500394054024e-05 3375 -8815.2724635047 0 0 60 (C2v) n - 1
REM
REM in /home/nfs/bkarasulu/CARBON/AIRSS/Generating-Clusters/ReaxFF-fromJPCA2015/Units_Real/Try2-Higher-symm/Only-C60
REM
REM
REM
REM
REM
REM ./C.cell (863b2abdce7293c0672fb3ba77bf323a)
REM AIRSS Version 0.9.1 bugfix July 2018 build 013d7b7c2542+ Fri, 06 Jul 2018 19:26:36 +0100
REM compiler GCC version 9.2.1 20190827 (Red Hat 9.2.1-1)
REM options -cpp -mtune=generic -march=x86-64 -g -O0 -fpre-include=/usr/include/finclude/math-vector-fortran.h
REM seed -515839397 -442726510 -1461212729 -1772007442 -1663170691 -1755679729 647824032 -754507139 -1865843400 2127461820 168932625 -1104448205 610834512 1407026504 1267767094 -1051761769 617904600 -1962841043 -1456997747 -1304912568 543346122 1541687911 -827497516 -1947167977 1281087575 1655396390 1583098020 -828807596 2045537081 476799307 954011331 432249209 -891144731
REM
CELL 1.54180   15.00000   15.00000   15.00000   90.00000   90.00000   90.00000
LATT -1
SFAC C  
C      1  0.4907330000000  0.6674590000000  0.7293520000000 1.0
C      1  0.6093640000000  0.6771960000000  0.6739090000000 1.0
C      1  0.6766220000000  0.6770390000000  0.5605490000000 1.0
C      1  0.6930350000000  0.6772010000000  0.4297640000000 1.0
C      1  0.6333690000000  0.6674620000000  0.3132000000000 1.0
C      1  0.5092670000000  0.6674580000000  0.2706480000000 1.0
C      1  0.3906370000000  0.6771960000000  0.3260910000000 1.0
C      1  0.3233780000000  0.6770390000000  0.4394510000000 1.0
C      1  0.3069650000000  0.6772010000000  0.5702360000000 1.0
C      1  0.3666310000000  0.6674620000000  0.6868000000000 1.0
C      1  0.4050910000000  0.3289690000000  0.6276160000000 1.0
C      1  0.4966610000000  0.3289670000000  0.6590050000000 1.0
C      1  0.5890060000000  0.3276080000000  0.6292620000000 1.0
C      1  0.6452080000000  0.3312570000000  0.5497750000000 1.0
C      1  0.6495870000000  0.3276100000000  0.4525240000000 1.0
C      1  0.5949090000000  0.3289690000000  0.3723840000000 1.0
C      1  0.5033390000000  0.3289670000000  0.3409950000000 1.0
C      1  0.4109940000000  0.3276080000000  0.3707380000000 1.0
C      1  0.3547920000000  0.3312570000000  0.4502250000000 1.0
C      1  0.3504130000000  0.3276100000000  0.5474760000000 1.0
C      1  0.5781000000000  0.4463560000000  0.2721530000000 1.0
C      1  0.4282140000000  0.4478530000000  0.2632590000000 1.0
C      1  0.3148550000000  0.4573300000000  0.3565990000000 1.0
C      1  0.2658210000000  0.4573350000000  0.4996600000000 1.0
C      1  0.2980800000000  0.4478590000000  0.6429140000000 1.0
C      1  0.4219000000000  0.4463560000000  0.7278480000000 1.0
C      1  0.5717860000000  0.4478530000000  0.7367410000000 1.0
C      1  0.6851450000000  0.4573300000000  0.6434010000000 1.0
C      1  0.7341790000000  0.4573340000000  0.5003400000000 1.0
C      1  0.7019200000000  0.4478590000000  0.3570860000000 1.0
C      1  0.4366020000000  0.6261510000000  0.2766860000000 1.0
C      1  0.3364710000000  0.6265550000000  0.3714130000000 1.0
C      1  0.2919850000000  0.6265580000000  0.5012200000000 1.0
C      1  0.3129520000000  0.6261570000000  0.6374520000000 1.0
C      1  0.4219140000000  0.6128870000000  0.7278100000000 1.0
C      1  0.5633980000000  0.6261510000000  0.7233140000000 1.0
C      1  0.6635290000000  0.6265550000000  0.6285880000000 1.0
C      1  0.7080150000000  0.6265580000000  0.4987800000000 1.0
C      1  0.6870480000000  0.6261570000000  0.3625480000000 1.0
C      1  0.5780860000000  0.6128870000000  0.2721900000000 1.0
C      1  0.5623960000000  0.5259450000000  0.3179570000000 1.0
C      1  0.4461440000000  0.5307490000000  0.3178580000000 1.0
C      1  0.3705520000000  0.5325620000000  0.3840440000000 1.0
C      1  0.3266460000000  0.5325640000000  0.5121530000000 1.0
C      1  0.3457370000000  0.5307510000000  0.6107940000000 1.0
C      1  0.4376040000000  0.5259460000000  0.6820430000000 1.0
C      1  0.5538570000000  0.5307490000000  0.6821430000000 1.0
C      1  0.6294480000000  0.5325620000000  0.6159550000000 1.0
C      1  0.6733540000000  0.5325640000000  0.4878460000000 1.0
C      1  0.6542630000000  0.5307510000000  0.3892060000000 1.0
C      1  0.7144760000000  0.3974610000000  0.5735190000000 1.0
C      1  0.7229930000000  0.3904920000000  0.4306610000000 1.0
C      1  0.6401360000000  0.3915930000000  0.3107180000000 1.0
C      1  0.5054530000000  0.3915890000000  0.2645490000000 1.0
C      1  0.3664360000000  0.3904870000000  0.3084370000000 1.0
C      1  0.2855240000000  0.3974610000000  0.4264810000000 1.0
C      1  0.2770070000000  0.3904920000000  0.5693390000000 1.0
C      1  0.3598640000000  0.3915920000000  0.6892820000000 1.0
C      1  0.4945470000000  0.3915890000000  0.7354510000000 1.0
C      1  0.6335640000000  0.3904870000000  0.6915630000000 1.0
END
