TITL C-1525613-7943-840 -0.00236494225637139 3375 -9574.12505102912 0 0 60 (D10) n - 1
REM
REM in /home/nfs/bkarasulu/CARBON/AIRSS/Generating-Clusters/ReaxFF-fromJPCA2015/Units_Real/Try2-Higher-symm/Only-C60
REM
REM
REM
REM
REM
REM ./C.cell (863b2abdce7293c0672fb3ba77bf323a)
REM AIRSS Version 0.9.1 bugfix July 2018 build 013d7b7c2542+ Fri, 06 Jul 2018 19:26:36 +0100
REM compiler GCC version 9.2.1 20190827 (Red Hat 9.2.1-1)
REM options -cpp -mtune=generic -march=x86-64 -g -O0 -fpre-include=/usr/include/finclude/math-vector-fortran.h
REM seed 759043664 1819362265 -1176415597 503036695 -720580857 884433087 -123347563 -1902415713 -1391086112 -98548309 -919681940 -1163376872 -1013882085 5893638 -1242401347 1513694811 343379472 -1233737863 -480449800 660683715 -1517181999 109575845 -1924538956 -861108533 -1180177968 498323480 -2120505240 -1620519444 -962957154 735229102 1202201120 -1270971162 -986106386
REM
CELL 1.54180   15.00000   15.00000   15.00000   90.00000   90.00000   90.00000
LATT -1
SFAC C  
C      1  0.6237650000000  0.5953250000000  0.3562470000000 1.0
C      1  0.6292200000000  0.4115530000000  0.3562440000000 1.0
C      1  0.4558170000000  0.3499190000000  0.3563070000000 1.0
C      1  0.3435350000000  0.4956480000000  0.3562650000000 1.0
C      1  0.4472420000000  0.6475240000000  0.3562860000000 1.0
C      1  0.6240150000000  0.5955750000000  0.6436530000000 1.0
C      1  0.6290450000000  0.4116620000000  0.6436900000000 1.0
C      1  0.4557880000000  0.3499340000000  0.6437080000000 1.0
C      1  0.3434180000000  0.4955620000000  0.6437490000000 1.0
C      1  0.4474050000000  0.6473010000000  0.6438120000000 1.0
C      1  0.7367540000000  0.5066420000000  0.4072520000000 1.0
C      1  0.5790900000000  0.2770420000000  0.4076790000000 1.0
C      1  0.3121990000000  0.3559840000000  0.4077350000000 1.0
C      1  0.3043610000000  0.6339070000000  0.4071720000000 1.0
C      1  0.5671850000000  0.7266880000000  0.4077630000000 1.0
C      1  0.7367830000000  0.5066400000000  0.5929110000000 1.0
C      1  0.5795730000000  0.2769560000000  0.5927400000000 1.0
C      1  0.3127220000000  0.3551400000000  0.5922670000000 1.0
C      1  0.3044730000000  0.6333570000000  0.5923360000000 1.0
C      1  0.5660920000000  0.7270900000000  0.5921790000000 1.0
C      1  0.4925170000000  0.7657670000000  0.4516140000000 1.0
C      1  0.7505070000000  0.5893140000000  0.4507730000000 1.0
C      1  0.6623010000000  0.2892420000000  0.4508310000000 1.0
C      1  0.3498880000000  0.2806720000000  0.4517960000000 1.0
C      1  0.2447440000000  0.5749580000000  0.4516070000000 1.0
C      1  0.4922420000000  0.7646210000000  0.5495780000000 1.0
C      1  0.7508200000000  0.5892480000000  0.5493630000000 1.0
C      1  0.6625870000000  0.2891890000000  0.5494210000000 1.0
C      1  0.3504550000000  0.2815850000000  0.5496240000000 1.0
C      1  0.2459660000000  0.5748840000000  0.5495570000000 1.0
C      1  0.5524800000000  0.3525700000000  0.6436300000000 1.0
C      1  0.3758960000000  0.4044640000000  0.6437810000000 1.0
C      1  0.3707890000000  0.5883220000000  0.6438410000000 1.0
C      1  0.5440880000000  0.6500580000000  0.6436720000000 1.0
C      1  0.6563790000000  0.5044380000000  0.6437070000000 1.0
C      1  0.5525000000000  0.3526870000000  0.3562300000000 1.0
C      1  0.3760010000000  0.4045320000000  0.3562620000000 1.0
C      1  0.3706070000000  0.5885140000000  0.3562700000000 1.0
C      1  0.5439430000000  0.6499640000000  0.3563560000000 1.0
C      1  0.6564680000000  0.5043230000000  0.3562410000000 1.0
C      1  0.2633590000000  0.4939020000000  0.5921670000000 1.0
C      1  0.4207680000000  0.7229300000000  0.5923450000000 1.0
C      1  0.6876660000000  0.6444940000000  0.5926920000000 1.0
C      1  0.6954750000000  0.3662800000000  0.5929290000000 1.0
C      1  0.4326660000000  0.2731550000000  0.5922900000000 1.0
C      1  0.2633960000000  0.4927930000000  0.4076770000000 1.0
C      1  0.4202970000000  0.7231780000000  0.4071840000000 1.0
C      1  0.6871060000000  0.6445660000000  0.4076220000000 1.0
C      1  0.6954780000000  0.3661870000000  0.4072800000000 1.0
C      1  0.4337760000000  0.2728900000000  0.4078240000000 1.0
C      1  0.3373040000000  0.7110350000000  0.4505770000000 1.0
C      1  0.6496000000000  0.7183220000000  0.4503490000000 1.0
C      1  0.7552860000000  0.4249130000000  0.4507700000000 1.0
C      1  0.5076310000000  0.2353790000000  0.4504180000000 1.0
C      1  0.2506340000000  0.4111610000000  0.4503520000000 1.0
C      1  0.3376090000000  0.7106230000000  0.5491300000000 1.0
C      1  0.6500130000000  0.7194410000000  0.5483060000000 1.0
C      1  0.7553450000000  0.4249150000000  0.5494010000000 1.0
C      1  0.5073940000000  0.2342300000000  0.5483610000000 1.0
C      1  0.2495410000000  0.4108060000000  0.5481800000000 1.0
END
