TITL C-1525613-7943-4012 -0.0982468865568588 3375 -8646.53596554753 0 0 60 (C1) n - 1
REM
REM in /home/nfs/bkarasulu/CARBON/AIRSS/Generating-Clusters/ReaxFF-fromJPCA2015/Units_Real/Try2-Higher-symm/Only-C60
REM
REM
REM
REM
REM
REM ./C.cell (863b2abdce7293c0672fb3ba77bf323a)
REM AIRSS Version 0.9.1 bugfix July 2018 build 013d7b7c2542+ Fri, 06 Jul 2018 19:26:36 +0100
REM compiler GCC version 9.2.1 20190827 (Red Hat 9.2.1-1)
REM options -cpp -mtune=generic -march=x86-64 -g -O0 -fpre-include=/usr/include/finclude/math-vector-fortran.h
REM seed -568878646 1760200302 1586977443 -504407341 -1327365464 -235696131 -2100310783 -761947944 -1538842683 -626403511 1849868186 -1111021568 84966990 90825488 1875629434 -1583000924 493175672 1027921577 2047588774 78147951 -1343883452 128444206 370037140 -1973126666 116988816 728983118 644873081 1081690214 135278041 608270881 1598021635 -1288631858 -1942797558
REM
CELL 1.54180   15.00000   15.00000   15.00000   90.00000   90.00000   90.00000
LATT -1
SFAC C  
C      1  0.6221760000000  0.4827360000000  0.6104120000000 1.0
C      1  0.6630190000000  0.5282790000000  0.5134100000000 1.0
C      1  0.6399530000000  0.4738900000000  0.4162110000000 1.0
C      1  0.5634700000000  0.5254880000000  0.3503170000000 1.0
C      1  0.4649630000000  0.4690180000000  0.3408960000000 1.0
C      1  0.3775640000000  0.5175610000000  0.3888650000000 1.0
C      1  0.3372150000000  0.4710430000000  0.4871000000000 1.0
C      1  0.3610200000000  0.5240030000000  0.5839550000000 1.0
C      1  0.4360040000000  0.4741250000000  0.6493400000000 1.0
C      1  0.5347130000000  0.5315360000000  0.6589430000000 1.0
C      1  0.4800740000000  0.2389600000000  0.5944970000000 1.0
C      1  0.5352300000000  0.7382540000000  0.5624260000000 1.0
C      1  0.5512540000000  0.2152110000000  0.5368490000000 1.0
C      1  0.5852270000000  0.7462100000000  0.4815420000000 1.0
C      1  0.5658930000000  0.2360760000000  0.4449230000000 1.0
C      1  0.5225900000000  0.7613920000000  0.4049420000000 1.0
C      1  0.4653330000000  0.2608960000000  0.4362600000000 1.0
C      1  0.4520690000000  0.7867950000000  0.4619940000000 1.0
C      1  0.4167870000000  0.2536890000000  0.5197360000000 1.0
C      1  0.4260740000000  0.7651950000000  0.5521100000000 1.0
C      1  0.3223890000000  0.6217000000000  0.6002300000000 1.0
C      1  0.4181140000000  0.3790920000000  0.6859920000000 1.0
C      1  0.5383090000000  0.6250250000000  0.6985900000000 1.0
C      1  0.6511300000000  0.3966310000000  0.6639410000000 1.0
C      1  0.7020440000000  0.6221910000000  0.5219160000000 1.0
C      1  0.6778690000000  0.3791870000000  0.3993500000000 1.0
C      1  0.5816840000000  0.6198330000000  0.3138580000000 1.0
C      1  0.4612480000000  0.3749490000000  0.3010730000000 1.0
C      1  0.3487760000000  0.6036320000000  0.3357960000000 1.0
C      1  0.3002150000000  0.3765770000000  0.4786480000000 1.0
C      1  0.4274760000000  0.6575680000000  0.3275640000000 1.0
C      1  0.3258140000000  0.3300410000000  0.3962260000000 1.0
C      1  0.2830280000000  0.6663270000000  0.5282840000000 1.0
C      1  0.3455780000000  0.3342030000000  0.6369520000000 1.0
C      1  0.4564260000000  0.6624190000000  0.6809460000000 1.0
C      1  0.5726850000000  0.3427730000000  0.6723580000000 1.0
C      1  0.6744370000000  0.6697640000000  0.6030180000000 1.0
C      1  0.7124690000000  0.3299840000000  0.4747850000000 1.0
C      1  0.6533310000000  0.6658000000000  0.3636190000000 1.0
C      1  0.5433730000000  0.3376050000000  0.3187400000000 1.0
C      1  0.4165550000000  0.3035270000000  0.3616950000000 1.0
C      1  0.3415370000000  0.7273600000000  0.5106690000000 1.0
C      1  0.3349020000000  0.3072180000000  0.5417120000000 1.0
C      1  0.3835120000000  0.6902760000000  0.6353930000000 1.0
C      1  0.4886520000000  0.3072560000000  0.6705150000000 1.0
C      1  0.5830140000000  0.6970650000000  0.6361250000000 1.0
C      1  0.6595750000000  0.2783410000000  0.4936980000000 1.0
C      1  0.6670090000000  0.6917960000000  0.4585290000000 1.0
C      1  0.6157740000000  0.3101540000000  0.3666440000000 1.0
C      1  0.5121380000000  0.6924360000000  0.3294520000000 1.0
C      1  0.5163620000000  0.5787120000000  0.5741630000000 1.0
C      1  0.5664410000000  0.4252390000000  0.5552080000000 1.0
C      1  0.5772260000000  0.5738400000000  0.5043520000000 1.0
C      1  0.5686960000000  0.4275630000000  0.4631250000000 1.0
C      1  0.5255210000000  0.5730630000000  0.4270930000000 1.0
C      1  0.4833400000000  0.4212290000000  0.4254160000000 1.0
C      1  0.4332430000000  0.5743420000000  0.4448400000000 1.0
C      1  0.4239850000000  0.4279470000000  0.4952210000000 1.0
C      1  0.4313930000000  0.5712530000000  0.5368090000000 1.0
C      1  0.4741020000000  0.4257240000000  0.5727250000000 1.0
END
