TITL C-1525613-7943-4736 -0.000132379329924228 3375 -9506.41303385552 0 0 60 (C2h) n - 1
REM
REM in /home/nfs/bkarasulu/CARBON/AIRSS/Generating-Clusters/ReaxFF-fromJPCA2015/Units_Real/Try2-Higher-symm/Only-C60
REM
REM
REM
REM
REM
REM ./C.cell (863b2abdce7293c0672fb3ba77bf323a)
REM AIRSS Version 0.9.1 bugfix July 2018 build 013d7b7c2542+ Fri, 06 Jul 2018 19:26:36 +0100
REM compiler GCC version 9.2.1 20190827 (Red Hat 9.2.1-1)
REM options -cpp -mtune=generic -march=x86-64 -g -O0 -fpre-include=/usr/include/finclude/math-vector-fortran.h
REM seed 1572920198 -1269459789 373007840 1770044666 1320000921 -540902548 1585994275 -669972964 710346577 1880913778 1439429178 -1981892070 -2088096340 895204885 -1298440834 609620742 170052620 -701441562 1053587826 2107729046 2132103297 273656686 -745781426 -902823942 -867047996 -1554943641 828042384 -932159795 2119105903 747333650 1421563702 -642506873 69648717
REM
CELL 1.54180   15.00000   15.00000   15.00000   90.00000   90.00000   90.00000
LATT -1
SFAC C  
C      1  0.5254840000000  0.4595320000000  0.2621290000000 1.0
C      1  0.7340570000000  0.4592480000000  0.4508820000000 1.0
C      1  0.6182070000000  0.4592200000000  0.7076490000000 1.0
C      1  0.3383310000000  0.4593760000000  0.6767500000000 1.0
C      1  0.2834790000000  0.4597600000000  0.4022130000000 1.0
C      1  0.5256330000000  0.4592680000000  0.7377800000000 1.0
C      1  0.7340170000000  0.4592080000000  0.5482360000000 1.0
C      1  0.6181200000000  0.4593490000000  0.2916180000000 1.0
C      1  0.3400710000000  0.4597550000000  0.3243140000000 1.0
C      1  0.2816510000000  0.4595560000000  0.5977660000000 1.0
C      1  0.3826920000000  0.5409970000000  0.2959270000000 1.0
C      1  0.6607290000000  0.5412890000000  0.3222720000000 1.0
C      1  0.7178310000000  0.5412080000000  0.5980800000000 1.0
C      1  0.4732550000000  0.5412850000000  0.7378450000000 1.0
C      1  0.2669710000000  0.5411890000000  0.5476290000000 1.0
C      1  0.3806600000000  0.5413160000000  0.7077900000000 1.0
C      1  0.6606120000000  0.5412140000000  0.6768420000000 1.0
C      1  0.7179340000000  0.5412610000000  0.4010420000000 1.0
C      1  0.4732690000000  0.5411690000000  0.2636580000000 1.0
C      1  0.2696610000000  0.5410090000000  0.4515130000000 1.0
C      1  0.6157750000000  0.6257980000000  0.3010350000000 1.0
C      1  0.7239540000000  0.6257580000000  0.5486960000000 1.0
C      1  0.5221790000000  0.6258090000000  0.7284680000000 1.0
C      1  0.2895550000000  0.6255360000000  0.5916580000000 1.0
C      1  0.3508480000000  0.6209460000000  0.3343990000000 1.0
C      1  0.6155440000000  0.6257690000000  0.6979210000000 1.0
C      1  0.7241450000000  0.6257900000000  0.4504610000000 1.0
C      1  0.5221280000000  0.6255130000000  0.2715200000000 1.0
C      1  0.2964120000000  0.6209510000000  0.4093300000000 1.0
C      1  0.3465730000000  0.6258240000000  0.6715950000000 1.0
C      1  0.4987760000000  0.6928960000000  0.6588190000000 1.0
C      1  0.3482540000000  0.6929310000000  0.5487850000000 1.0
C      1  0.4083080000000  0.6893010000000  0.3723770000000 1.0
C      1  0.5939380000000  0.6931530000000  0.3709570000000 1.0
C      1  0.6503470000000  0.6927380000000  0.5491720000000 1.0
C      1  0.4995030000000  0.6929150000000  0.3405910000000 1.0
C      1  0.3502950000000  0.6893080000000  0.4522300000000 1.0
C      1  0.4063250000000  0.6931720000000  0.6292070000000 1.0
C      1  0.5932490000000  0.6927430000000  0.6277660000000 1.0
C      1  0.6506780000000  0.6928820000000  0.4497260000000 1.0
C      1  0.6509230000000  0.3075810000000  0.4509440000000 1.0
C      1  0.5923400000000  0.3076130000000  0.6285690000000 1.0
C      1  0.4053820000000  0.3075730000000  0.6280040000000 1.0
C      1  0.3485600000000  0.3075960000000  0.4499940000000 1.0
C      1  0.5001270000000  0.3072920000000  0.3404470000000 1.0
C      1  0.6508050000000  0.3076070000000  0.5480930000000 1.0
C      1  0.5924760000000  0.3075550000000  0.3704660000000 1.0
C      1  0.4056200000000  0.3075910000000  0.3714510000000 1.0
C      1  0.3482860000000  0.3073060000000  0.5494570000000 1.0
C      1  0.4999840000000  0.3075960000000  0.6587110000000 1.0
C      1  0.6522040000000  0.3747960000000  0.3278350000000 1.0
C      1  0.7099350000000  0.3746650000000  0.5918120000000 1.0
C      1  0.4767060000000  0.3747480000000  0.7283820000000 1.0
C      1  0.2753010000000  0.3749680000000  0.5487120000000 1.0
C      1  0.3837590000000  0.3751990000000  0.3020330000000 1.0
C      1  0.6521990000000  0.3746710000000  0.6712850000000 1.0
C      1  0.7099910000000  0.3747250000000  0.4072640000000 1.0
C      1  0.4768630000000  0.3749490000000  0.2712600000000 1.0
C      1  0.2757870000000  0.3752100000000  0.4506550000000 1.0
C      1  0.3833050000000  0.3748210000000  0.6979780000000 1.0
END
