TITL C-1525613-7943-5898 -0.164416454395425 3375 -8947.05044910445 0 0 60 (C2) n - 1
REM
REM in /home/nfs/bkarasulu/CARBON/AIRSS/Generating-Clusters/ReaxFF-fromJPCA2015/Units_Real/Try2-Higher-symm/Only-C60
REM
REM
REM
REM
REM
REM ./C.cell (863b2abdce7293c0672fb3ba77bf323a)
REM AIRSS Version 0.9.1 bugfix July 2018 build 013d7b7c2542+ Fri, 06 Jul 2018 19:26:36 +0100
REM compiler GCC version 9.2.1 20190827 (Red Hat 9.2.1-1)
REM options -cpp -mtune=generic -march=x86-64 -g -O0 -fpre-include=/usr/include/finclude/math-vector-fortran.h
REM seed 1149951281 2005767045 -589538991 -210244923 1401148318 -1546768527 -47999914 659912616 -549812934 -1452839103 1971290997 1655530542 -1026424848 -1952202977 257014340 -1578810433 -2083646728 723940747 -1855967440 10721009 -1797083114 1970304075 1447897940 2006541353 -181108101 2115193070 -1156479336 594573288 1590881627 1054811278 121976505 196910866 1846374973
REM
CELL 1.54180   15.00000   15.00000   15.00000   90.00000   90.00000   90.00000
LATT -1
SFAC C  
C      1  0.7140520000000  0.4519210000000  0.4484730000000 1.0
C      1  0.5172340000000  0.4520110000000  0.2805250000000 1.0
C      1  0.2964110000000  0.4519630000000  0.4157750000000 1.0
C      1  0.3571250000000  0.4520310000000  0.6674180000000 1.0
C      1  0.6151640000000  0.4519820000000  0.6879170000000 1.0
C      1  0.7140520000000  0.5480790000000  0.5515270000000 1.0
C      1  0.5172340000000  0.5479890000000  0.7194750000000 1.0
C      1  0.2964110000000  0.5480370000000  0.5842250000000 1.0
C      1  0.3571250000000  0.5479690000000  0.3325820000000 1.0
C      1  0.6151640000000  0.5480180000000  0.3120830000000 1.0
C      1  0.6340220000000  0.6909000000000  0.5937660000000 1.0
C      1  0.6306960000000  0.6909320000000  0.4015360000000 1.0
C      1  0.4467730000000  0.6909660000000  0.3453840000000 1.0
C      1  0.3364290000000  0.6909310000000  0.5028600000000 1.0
C      1  0.4522000000000  0.6908690000000  0.6562990000000 1.0
C      1  0.6340220000000  0.3091000000000  0.4062340000000 1.0
C      1  0.6306960000000  0.3090680000000  0.5984640000000 1.0
C      1  0.4467730000000  0.3090340000000  0.6546160000000 1.0
C      1  0.3364290000000  0.3090690000000  0.4971400000000 1.0
C      1  0.4522000000000  0.3091310000000  0.3437010000000 1.0
C      1  0.3849310000000  0.6736300000000  0.4195100000000 1.0
C      1  0.3880880000000  0.6736670000000  0.5845600000000 1.0
C      1  0.5458590000000  0.6737590000000  0.6325610000000 1.0
C      1  0.6402470000000  0.6736930000000  0.4974020000000 1.0
C      1  0.5408060000000  0.6738280000000  0.3659960000000 1.0
C      1  0.3849310000000  0.3263700000000  0.5804900000000 1.0
C      1  0.3880880000000  0.3263330000000  0.4154400000000 1.0
C      1  0.5458590000000  0.3262410000000  0.3674390000000 1.0
C      1  0.6402470000000  0.3263070000000  0.5025980000000 1.0
C      1  0.5408060000000  0.3261720000000  0.6340040000000 1.0
C      1  0.5802680000000  0.5943690000000  0.4993120000000 1.0
C      1  0.5241130000000  0.5943620000000  0.4233940000000 1.0
C      1  0.4345480000000  0.5942240000000  0.4534070000000 1.0
C      1  0.4354810000000  0.5943870000000  0.5478900000000 1.0
C      1  0.5255520000000  0.5943730000000  0.5762070000000 1.0
C      1  0.5802680000000  0.4056310000000  0.5006880000000 1.0
C      1  0.5241130000000  0.4056380000000  0.5766060000000 1.0
C      1  0.4345480000000  0.4057760000000  0.5465930000000 1.0
C      1  0.4354810000000  0.4056130000000  0.4521100000000 1.0
C      1  0.5255520000000  0.4056270000000  0.4237930000000 1.0
C      1  0.2942870000000  0.6026240000000  0.5002270000000 1.0
C      1  0.4367500000000  0.6026530000000  0.6956730000000 1.0
C      1  0.6665270000000  0.6027140000000  0.6207200000000 1.0
C      1  0.6662250000000  0.6025880000000  0.3789650000000 1.0
C      1  0.4362230000000  0.6027080000000  0.3044610000000 1.0
C      1  0.2942870000000  0.3973760000000  0.4997730000000 1.0
C      1  0.4367500000000  0.3973470000000  0.3043270000000 1.0
C      1  0.6665270000000  0.3972860000000  0.3792800000000 1.0
C      1  0.6662250000000  0.3974120000000  0.6210350000000 1.0
C      1  0.4362230000000  0.3972920000000  0.6955390000000 1.0
C      1  0.6142380000000  0.5486940000000  0.6869630000000 1.0
C      1  0.7130300000000  0.5486800000000  0.4491090000000 1.0
C      1  0.5175230000000  0.5486320000000  0.2816360000000 1.0
C      1  0.2977250000000  0.5486400000000  0.4159540000000 1.0
C      1  0.3574740000000  0.5486060000000  0.6663940000000 1.0
C      1  0.6142380000000  0.4513060000000  0.3130370000000 1.0
C      1  0.7130300000000  0.4513200000000  0.5508910000000 1.0
C      1  0.5175230000000  0.4513680000000  0.7183640000000 1.0
C      1  0.2977250000000  0.4513600000000  0.5840460000000 1.0
C      1  0.3574740000000  0.4513940000000  0.3336060000000 1.0
END
