TITL C-1525613-7943-584 -0.24191070969738 3375 -8444.03441074135 0 0 60 (C2) n - 1
REM
REM in /home/nfs/bkarasulu/CARBON/AIRSS/Generating-Clusters/ReaxFF-fromJPCA2015/Units_Real/Try2-Higher-symm/Only-C60
REM
REM
REM
REM
REM
REM ./C.cell (863b2abdce7293c0672fb3ba77bf323a)
REM AIRSS Version 0.9.1 bugfix July 2018 build 013d7b7c2542+ Fri, 06 Jul 2018 19:26:36 +0100
REM compiler GCC version 9.2.1 20190827 (Red Hat 9.2.1-1)
REM options -cpp -mtune=generic -march=x86-64 -g -O0 -fpre-include=/usr/include/finclude/math-vector-fortran.h
REM seed -831608249 967849825 1284376218 -468493876 -765161288 -823230933 -1072870566 -399007014 -888469467 1744550838 1265369804 1951101863 -1990488448 1137497862 -211272123 -751635713 114165817 -1855671113 -393051915 1422320877 -1267044855 -1961590959 146047934 -175164541 2094840444 1870101649 -100172610 -2084867407 -555247134 509465086 -673274809 -331045186 962651671
REM
CELL 1.54180   15.00000   15.00000   15.00000   90.00000   90.00000   90.00000
LATT -1
SFAC C  
C      1  0.7106650000000  0.4806260000000  0.3765780000000 1.0
C      1  0.5809780000000  0.6932620000000  0.3784070000000 1.0
C      1  0.3405300000000  0.6384720000000  0.3764880000000 1.0
C      1  0.3185880000000  0.3917430000000  0.3771040000000 1.0
C      1  0.5470890000000  0.2941970000000  0.3764120000000 1.0
C      1  0.2893350000000  0.4806260000000  0.6234220000000 1.0
C      1  0.4190210000000  0.6932630000000  0.6215920000000 1.0
C      1  0.6594710000000  0.6384720000000  0.6235120000000 1.0
C      1  0.6814120000000  0.3917430000000  0.6228960000000 1.0
C      1  0.4529110000000  0.2941970000000  0.6235880000000 1.0
C      1  0.4687800000000  0.6737980000000  0.4650050000000 1.0
C      1  0.3249830000000  0.5241240000000  0.4659990000000 1.0
C      1  0.4243810000000  0.3401590000000  0.4658140000000 1.0
C      1  0.6285750000000  0.3786500000000  0.4661860000000 1.0
C      1  0.6540010000000  0.5850360000000  0.4665820000000 1.0
C      1  0.5312170000000  0.6737990000000  0.5349950000000 1.0
C      1  0.6750170000000  0.5241250000000  0.5340010000000 1.0
C      1  0.5756190000000  0.3401590000000  0.5341860000000 1.0
C      1  0.3714250000000  0.3786500000000  0.5338140000000 1.0
C      1  0.3459990000000  0.5850350000000  0.5334180000000 1.0
C      1  0.4151760000000  0.3623890000000  0.6838950000000 1.0
C      1  0.6042440000000  0.3770510000000  0.6826910000000 1.0
C      1  0.6488530000000  0.5610000000000  0.6827390000000 1.0
C      1  0.4882750000000  0.6611850000000  0.6838060000000 1.0
C      1  0.3429430000000  0.5378390000000  0.6833150000000 1.0
C      1  0.5848240000000  0.3623890000000  0.3161050000000 1.0
C      1  0.3957560000000  0.3770510000000  0.3173090000000 1.0
C      1  0.3511470000000  0.5610000000000  0.3172610000000 1.0
C      1  0.5117250000000  0.6611850000000  0.3161940000000 1.0
C      1  0.6570570000000  0.5378390000000  0.3166850000000 1.0
C      1  0.5102180000000  0.3398710000000  0.6881610000000 1.0
C      1  0.6547800000000  0.4601610000000  0.6876590000000 1.0
C      1  0.5856780000000  0.6354500000000  0.6876910000000 1.0
C      1  0.3983210000000  0.6226340000000  0.6856740000000 1.0
C      1  0.3510680000000  0.4407240000000  0.6880970000000 1.0
C      1  0.4897820000000  0.3398710000000  0.3118390000000 1.0
C      1  0.3452200000000  0.4601610000000  0.3123410000000 1.0
C      1  0.4143220000000  0.6354500000000  0.3123090000000 1.0
C      1  0.6016790000000  0.6226340000000  0.3143260000000 1.0
C      1  0.6489320000000  0.4407240000000  0.3119030000000 1.0
C      1  0.5713330000000  0.5439840000000  0.4301280000000 1.0
C      1  0.4804670000000  0.5796610000000  0.4307120000000 1.0
C      1  0.4185850000000  0.5059310000000  0.4312880000000 1.0
C      1  0.4691270000000  0.4235390000000  0.4316760000000 1.0
C      1  0.5634240000000  0.4467670000000  0.4308190000000 1.0
C      1  0.4286660000000  0.5439840000000  0.5698720000000 1.0
C      1  0.5195320000000  0.5796610000000  0.5692880000000 1.0
C      1  0.5814150000000  0.5059300000000  0.5687120000000 1.0
C      1  0.5308730000000  0.4235390000000  0.5683240000000 1.0
C      1  0.4365760000000  0.4467670000000  0.5691810000000 1.0
C      1  0.7040230000000  0.3913060000000  0.5251250000000 1.0
C      1  0.6670870000000  0.6596280000000  0.5248790000000 1.0
C      1  0.4011620000000  0.7098110000000  0.5236780000000 1.0
C      1  0.2703920000000  0.4698050000000  0.5254220000000 1.0
C      1  0.4581790000000  0.2711920000000  0.5252420000000 1.0
C      1  0.2959770000000  0.3913060000000  0.4748750000000 1.0
C      1  0.3329130000000  0.6596290000000  0.4751210000000 1.0
C      1  0.5988420000000  0.7098130000000  0.4763220000000 1.0
C      1  0.7296080000000  0.4698050000000  0.4745780000000 1.0
C      1  0.5418210000000  0.2711920000000  0.4747580000000 1.0
END
