TITL C-1525613-7943-2225 0.822226774060284 3375 -7789.15229161536 0 0 60 (C1) n - 1
REM
REM in /home/nfs/bkarasulu/CARBON/AIRSS/Generating-Clusters/ReaxFF-fromJPCA2015/Units_Real/Try2-Higher-symm/Only-C60
REM
REM
REM
REM
REM
REM ./C.cell (863b2abdce7293c0672fb3ba77bf323a)
REM AIRSS Version 0.9.1 bugfix July 2018 build 013d7b7c2542+ Fri, 06 Jul 2018 19:26:36 +0100
REM compiler GCC version 9.2.1 20190827 (Red Hat 9.2.1-1)
REM options -cpp -mtune=generic -march=x86-64 -g -O0 -fpre-include=/usr/include/finclude/math-vector-fortran.h
REM seed 1819455254 -2056129501 -1488558522 -665295103 -48770687 1730606342 184436877 -515611738 -1820460725 485427072 1319993295 428986746 283281084 1775725335 -255220499 1861366536 515740735 -140304410 -1115728014 424199898 -304867484 932686419 1790908598 -1027638107 1738633399 797670269 -1298725415 -986621570 1471715054 -684071764 -1336616870 1928668569 1519254254
REM
CELL 1.54180   15.00000   15.00000   15.00000   90.00000   90.00000   90.00000
LATT -1
SFAC C  
C      1  0.4460150000000  0.6293100000000  0.4584850000000 1.0
C      1  0.4444290000000  0.5846750000000  0.6166760000000 1.0
C      1  0.4438020000000  0.4168460000000  0.6153880000000 1.0
C      1  0.4464250000000  0.3678770000000  0.4577090000000 1.0
C      1  0.4470260000000  0.5004870000000  0.3591690000000 1.0
C      1  0.4457180000000  0.6295550000000  0.5438140000000 1.0
C      1  0.4425070000000  0.5841380000000  0.3837030000000 1.0
C      1  0.4448240000000  0.4174820000000  0.3852340000000 1.0
C      1  0.4477290000000  0.3665060000000  0.5441370000000 1.0
C      1  0.4485240000000  0.5020360000000  0.6427270000000 1.0
C      1  0.6875690000000  0.4082200000000  0.3746420000000 1.0
C      1  0.6865100000000  0.5912340000000  0.3735140000000 1.0
C      1  0.6851170000000  0.6498310000000  0.5495310000000 1.0
C      1  0.6874660000000  0.4996390000000  0.6563020000000 1.0
C      1  0.6853590000000  0.3512460000000  0.5482420000000 1.0
C      1  0.6876980000000  0.4082130000000  0.6253630000000 1.0
C      1  0.6861460000000  0.5929240000000  0.6258290000000 1.0
C      1  0.6867570000000  0.6489750000000  0.4513720000000 1.0
C      1  0.6871360000000  0.4999270000000  0.3441110000000 1.0
C      1  0.6853780000000  0.3510880000000  0.4519750000000 1.0
C      1  0.3047940000000  0.4084020000000  0.3777670000000 1.0
C      1  0.3045770000000  0.5885490000000  0.3810170000000 1.0
C      1  0.3172960000000  0.6560490000000  0.5545540000000 1.0
C      1  0.3183680000000  0.4985550000000  0.6637290000000 1.0
C      1  0.3181810000000  0.3443750000000  0.5520770000000 1.0
C      1  0.3048370000000  0.4080460000000  0.6223770000000 1.0
C      1  0.3046700000000  0.5886810000000  0.6192880000000 1.0
C      1  0.3166970000000  0.6550640000000  0.4458180000000 1.0
C      1  0.3178510000000  0.4981410000000  0.3358010000000 1.0
C      1  0.3172670000000  0.3435160000000  0.4474450000000 1.0
C      1  0.5210170000000  0.7488590000000  0.4528190000000 1.0
C      1  0.5250000000000  0.6229950000000  0.7199900000000 1.0
C      1  0.5243200000000  0.3254610000000  0.6858290000000 1.0
C      1  0.5192110000000  0.2705860000000  0.3950250000000 1.0
C      1  0.5208320000000  0.5308480000000  0.2506100000000 1.0
C      1  0.5204040000000  0.7480380000000  0.5487140000000 1.0
C      1  0.5242690000000  0.6246570000000  0.2765950000000 1.0
C      1  0.5239350000000  0.3259220000000  0.3144720000000 1.0
C      1  0.5184970000000  0.2720170000000  0.6038500000000 1.0
C      1  0.5177230000000  0.5290920000000  0.7501950000000 1.0
C      1  0.4365830000000  0.7135020000000  0.4074880000000 1.0
C      1  0.4476400000000  0.6629040000000  0.6752140000000 1.0
C      1  0.4468000000000  0.3822970000000  0.7069270000000 1.0
C      1  0.4363280000000  0.2704180000000  0.4485780000000 1.0
C      1  0.4356540000000  0.4775440000000  0.2648600000000 1.0
C      1  0.4361790000000  0.7152390000000  0.5914220000000 1.0
C      1  0.4482310000000  0.6623370000000  0.3236680000000 1.0
C      1  0.4474630000000  0.3832950000000  0.2935920000000 1.0
C      1  0.4356230000000  0.2691270000000  0.5500630000000 1.0
C      1  0.4339660000000  0.4758170000000  0.7364740000000 1.0
C      1  0.5956630000000  0.3848160000000  0.6447490000000 1.0
C      1  0.5920690000000  0.3269240000000  0.4316970000000 1.0
C      1  0.5927570000000  0.5065390000000  0.3134600000000 1.0
C      1  0.5928500000000  0.6819700000000  0.4517720000000 1.0
C      1  0.5949260000000  0.5978130000000  0.6559830000000 1.0
C      1  0.5946010000000  0.3843940000000  0.3550070000000 1.0
C      1  0.5914530000000  0.3271090000000  0.5682890000000 1.0
C      1  0.5924440000000  0.5082240000000  0.6855960000000 1.0
C      1  0.5938130000000  0.6835560000000  0.5454970000000 1.0
C      1  0.5930750000000  0.5981100000000  0.3437700000000 1.0
END
