TITL C-1525613-7943-7388 0.155338825164154 3375 -8087.72891447297 0 0 60 (C1) n - 1
REM
REM in /home/nfs/bkarasulu/CARBON/AIRSS/Generating-Clusters/ReaxFF-fromJPCA2015/Units_Real/Try2-Higher-symm/Only-C60
REM
REM
REM
REM
REM
REM ./C.cell (863b2abdce7293c0672fb3ba77bf323a)
REM AIRSS Version 0.9.1 bugfix July 2018 build 013d7b7c2542+ Fri, 06 Jul 2018 19:26:36 +0100
REM compiler GCC version 9.2.1 20190827 (Red Hat 9.2.1-1)
REM options -cpp -mtune=generic -march=x86-64 -g -O0 -fpre-include=/usr/include/finclude/math-vector-fortran.h
REM seed 1339221934 182550094 -752008956 -2005715406 -666851882 -1271721514 682569651 137278891 -2054046228 1063528062 1001370793 -1961131728 355803967 183782186 926187227 756647629 -149475871 626630091 181631228 -1468018148 -1698425739 -767276385 -1460478763 -1416895470 -1939511902 -744746799 1183938724 1926938925 1036110310 1845015234 -553292313 1442629808 1833383896
REM
CELL 1.54180   15.00000   15.00000   15.00000   90.00000   90.00000   90.00000
LATT -1
SFAC C  
C      1  0.6052230000000  0.2962350000000  0.6042660000000 1.0
C      1  0.6847620000000  0.3504860000000  0.5090780000000 1.0
C      1  0.6541600000000  0.3214890000000  0.4250400000000 1.0
C      1  0.5512530000000  0.3542990000000  0.3155980000000 1.0
C      1  0.4790830000000  0.2974620000000  0.3310510000000 1.0
C      1  0.3963330000000  0.3002010000000  0.3699290000000 1.0
C      1  0.2888240000000  0.3528580000000  0.5022550000000 1.0
C      1  0.3245680000000  0.2959580000000  0.5709160000000 1.0
C      1  0.4513750000000  0.3104270000000  0.6868890000000 1.0
C      1  0.5383240000000  0.2734640000000  0.6626430000000 1.0
C      1  0.2213200000000  0.5323290000000  0.5793380000000 1.0
C      1  0.3327730000000  0.5356890000000  0.7279310000000 1.0
C      1  0.5189160000000  0.5326340000000  0.7677890000000 1.0
C      1  0.6668190000000  0.5332430000000  0.7326190000000 1.0
C      1  0.7845640000000  0.5517380000000  0.5998530000000 1.0
C      1  0.7634830000000  0.5124200000000  0.4271800000000 1.0
C      1  0.6614710000000  0.4956450000000  0.2853960000000 1.0
C      1  0.5012770000000  0.5427090000000  0.2025410000000 1.0
C      1  0.3288580000000  0.5480560000000  0.2567520000000 1.0
C      1  0.2602040000000  0.4734890000000  0.4045760000000 1.0
C      1  0.6101780000000  0.6446500000000  0.6110440000000 1.0
C      1  0.6547860000000  0.6503880000000  0.5266710000000 1.0
C      1  0.6424410000000  0.6475940000000  0.4297800000000 1.0
C      1  0.5755800000000  0.6320330000000  0.3607150000000 1.0
C      1  0.4818860000000  0.6483220000000  0.3395360000000 1.0
C      1  0.3939630000000  0.6487440000000  0.3813080000000 1.0
C      1  0.3531400000000  0.6639580000000  0.4723100000000 1.0
C      1  0.3563010000000  0.6526280000000  0.5729250000000 1.0
C      1  0.4227850000000  0.6521810000000  0.6405000000000 1.0
C      1  0.5214070000000  0.6678700000000  0.6514000000000 1.0
C      1  0.5214200000000  0.6215620000000  0.7346820000000 1.0
C      1  0.6698270000000  0.6106840000000  0.6810960000000 1.0
C      1  0.7463850000000  0.6122060000000  0.5371400000000 1.0
C      1  0.7254890000000  0.6028520000000  0.4011980000000 1.0
C      1  0.6133630000000  0.5800310000000  0.2851740000000 1.0
C      1  0.4635500000000  0.6115710000000  0.2506210000000 1.0
C      1  0.3234060000000  0.6126530000000  0.3235190000000 1.0
C      1  0.2883720000000  0.5988980000000  0.4595700000000 1.0
C      1  0.2784210000000  0.6033330000000  0.6097390000000 1.0
C      1  0.3870490000000  0.6079150000000  0.7228500000000 1.0
C      1  0.6396750000000  0.3772360000000  0.3474870000000 1.0
C      1  0.4744570000000  0.4006210000000  0.3303800000000 1.0
C      1  0.3889680000000  0.3849430000000  0.3809100000000 1.0
C      1  0.3024410000000  0.3873870000000  0.4134620000000 1.0
C      1  0.3506990000000  0.3845000000000  0.5677120000000 1.0
C      1  0.3728530000000  0.3331070000000  0.6420310000000 1.0
C      1  0.5256390000000  0.3616290000000  0.7058830000000 1.0
C      1  0.5781370000000  0.4216440000000  0.6544580000000 1.0
C      1  0.6426430000000  0.3729640000000  0.5941220000000 1.0
C      1  0.6855570000000  0.4055940000000  0.4322030000000 1.0
C      1  0.2734270000000  0.5308710000000  0.3283070000000 1.0
C      1  0.2286330000000  0.5308590000000  0.4799880000000 1.0
C      1  0.2811930000000  0.5155350000000  0.6527290000000 1.0
C      1  0.4268100000000  0.5195790000000  0.7393810000000 1.0
C      1  0.5938150000000  0.4760380000000  0.7321110000000 1.0
C      1  0.7441320000000  0.5489880000000  0.6824360000000 1.0
C      1  0.7565790000000  0.5156760000000  0.5204600000000 1.0
C      1  0.6975240000000  0.5210740000000  0.3680330000000 1.0
C      1  0.5773910000000  0.5045210000000  0.2388240000000 1.0
C      1  0.4160890000000  0.5263300000000  0.2356690000000 1.0
END
