TITL C-1525613-7943-3865 0.18077837181871 3375 -9082.67841585824 0 0 60 (C1) n - 1
REM
REM in /home/nfs/bkarasulu/CARBON/AIRSS/Generating-Clusters/ReaxFF-fromJPCA2015/Units_Real/Try2-Higher-symm/Only-C60
REM
REM
REM
REM
REM
REM ./C.cell (863b2abdce7293c0672fb3ba77bf323a)
REM AIRSS Version 0.9.1 bugfix July 2018 build 013d7b7c2542+ Fri, 06 Jul 2018 19:26:36 +0100
REM compiler GCC version 9.2.1 20190827 (Red Hat 9.2.1-1)
REM options -cpp -mtune=generic -march=x86-64 -g -O0 -fpre-include=/usr/include/finclude/math-vector-fortran.h
REM seed 1194794975 -1933666629 1616258341 -1317223588 -761330427 1493235001 -1275327928 2011869880 183255066 -1161553600 1279213451 1698864335 859431052 912777048 -2093217001 -980954691 -2137543400 -32484696 760533986 -1266841920 -1265685191 1139339912 -1602497906 552694220 -1772384319 -1790299438 -797899543 -351546453 -446488720 -1571571667 -1278653075 -89628698 -1483999904
REM
CELL 1.54180   15.00000   15.00000   15.00000   90.00000   90.00000   90.00000
LATT -1
SFAC C  
C      1  0.5285880000000  0.4619190000000  0.2362500000000 1.0
C      1  0.2369450000000  0.4666250000000  0.3848110000000 1.0
C      1  0.3140560000000  0.4558210000000  0.7019220000000 1.0
C      1  0.6416820000000  0.4733130000000  0.7228660000000 1.0
C      1  0.7845470000000  0.4581320000000  0.4440390000000 1.0
C      1  0.5280870000000  0.5360680000000  0.7615410000000 1.0
C      1  0.2367180000000  0.5341880000000  0.6159740000000 1.0
C      1  0.3141560000000  0.5444080000000  0.2982780000000 1.0
C      1  0.6397120000000  0.5258050000000  0.2778140000000 1.0
C      1  0.7837120000000  0.5401770000000  0.5561630000000 1.0
C      1  0.7028360000000  0.5497780000000  0.6104570000000 1.0
C      1  0.6872720000000  0.5364030000000  0.3548070000000 1.0
C      1  0.4111380000000  0.5500060000000  0.2904940000000 1.0
C      1  0.2499230000000  0.5463520000000  0.5197090000000 1.0
C      1  0.4375390000000  0.5418180000000  0.7270590000000 1.0
C      1  0.7059980000000  0.4481280000000  0.3866600000000 1.0
C      1  0.6853670000000  0.4635090000000  0.6442350000000 1.0
C      1  0.4113090000000  0.4495030000000  0.7075380000000 1.0
C      1  0.2505630000000  0.4545870000000  0.4811150000000 1.0
C      1  0.4372880000000  0.4566790000000  0.2704930000000 1.0
C      1  0.5841790000000  0.7145370000000  0.4137470000000 1.0
C      1  0.4198350000000  0.6839360000000  0.4213280000000 1.0
C      1  0.3765150000000  0.7025730000000  0.5517560000000 1.0
C      1  0.4990890000000  0.6853910000000  0.6140390000000 1.0
C      1  0.6187300000000  0.7172610000000  0.5020220000000 1.0
C      1  0.5845430000000  0.2895510000000  0.5860750000000 1.0
C      1  0.4205040000000  0.3153910000000  0.5777940000000 1.0
C      1  0.3759770000000  0.2953960000000  0.4485290000000 1.0
C      1  0.4988500000000  0.3138850000000  0.3878160000000 1.0
C      1  0.6190190000000  0.2874420000000  0.4992800000000 1.0
C      1  0.7892030000000  0.5561780000000  0.4594840000000 1.0
C      1  0.5546460000000  0.5554960000000  0.2521070000000 1.0
C      1  0.2522400000000  0.5642690000000  0.3725530000000 1.0
C      1  0.2973310000000  0.5534030000000  0.6911890000000 1.0
C      1  0.6138530000000  0.5658220000000  0.7265020000000 1.0
C      1  0.7864170000000  0.4426110000000  0.5406860000000 1.0
C      1  0.5546980000000  0.4430640000000  0.7482040000000 1.0
C      1  0.2518140000000  0.4364680000000  0.6279380000000 1.0
C      1  0.2969700000000  0.4464630000000  0.3092580000000 1.0
C      1  0.6143280000000  0.4336790000000  0.2744940000000 1.0
C      1  0.6776440000000  0.6899770000000  0.4287470000000 1.0
C      1  0.4971550000000  0.6739770000000  0.3734080000000 1.0
C      1  0.3364700000000  0.6893200000000  0.4667160000000 1.0
C      1  0.4079710000000  0.6872780000000  0.6405050000000 1.0
C      1  0.5881040000000  0.6784720000000  0.5933660000000 1.0
C      1  0.6734390000000  0.3149160000000  0.5707340000000 1.0
C      1  0.4986220000000  0.3259070000000  0.6256950000000 1.0
C      1  0.3366900000000  0.3107590000000  0.5341190000000 1.0
C      1  0.4083620000000  0.3118410000000  0.3601630000000 1.0
C      1  0.5885400000000  0.3218370000000  0.4092170000000 1.0
C      1  0.3757920000000  0.6084850000000  0.6992400000000 1.0
C      1  0.6426770000000  0.6148160000000  0.6475910000000 1.0
C      1  0.7258420000000  0.6075760000000  0.4063580000000 1.0
C      1  0.4873220000000  0.6083360000000  0.2986200000000 1.0
C      1  0.2660080000000  0.6139000000000  0.4542620000000 1.0
C      1  0.3751610000000  0.3907010000000  0.3005450000000 1.0
C      1  0.6437550000000  0.3839340000000  0.3525150000000 1.0
C      1  0.7204050000000  0.3941000000000  0.5931860000000 1.0
C      1  0.4874330000000  0.3908890000000  0.7015690000000 1.0
C      1  0.2664300000000  0.3869480000000  0.5464160000000 1.0
END
