TITL C-1525613-7943-1444 0.343101607017315 3375 -8176.20425763909 0 0 60 (C2) n - 1
REM
REM in /home/nfs/bkarasulu/CARBON/AIRSS/Generating-Clusters/ReaxFF-fromJPCA2015/Units_Real/Try2-Higher-symm/Only-C60
REM
REM
REM
REM
REM
REM ./C.cell (863b2abdce7293c0672fb3ba77bf323a)
REM AIRSS Version 0.9.1 bugfix July 2018 build 013d7b7c2542+ Fri, 06 Jul 2018 19:26:36 +0100
REM compiler GCC version 9.2.1 20190827 (Red Hat 9.2.1-1)
REM options -cpp -mtune=generic -march=x86-64 -g -O0 -fpre-include=/usr/include/finclude/math-vector-fortran.h
REM seed -624958803 -1087278735 -1960087147 1258128157 1132311873 403066700 296762948 -903725638 -712600511 797601103 -712236947 384511639 759785958 -1158067612 -953156416 -1446143051 -1331232435 1664324608 -47509417 1303617394 -1130636651 496555977 1104369337 2037110343 1514910184 -946015668 -638707646 1847162529 -284701698 2002042805 1496532772 -1614506305 1443936778
REM
CELL 1.54180   15.00000   15.00000   15.00000   90.00000   90.00000   90.00000
LATT -1
SFAC C  
C      1  0.4008010000000  0.3993780000000  0.4829100000000 1.0
C      1  0.4795590000000  0.3603190000000  0.4845830000000 1.0
C      1  0.5661430000000  0.3750750000000  0.4808430000000 1.0
C      1  0.6269910000000  0.4364780000000  0.4815320000000 1.0
C      1  0.6398340000000  0.5227180000000  0.4849590000000 1.0
C      1  0.5991950000000  0.6006220000000  0.4829120000000 1.0
C      1  0.5204400000000  0.6396790000000  0.4845870000000 1.0
C      1  0.4338650000000  0.6249300000000  0.4808470000000 1.0
C      1  0.3730220000000  0.5635140000000  0.4815130000000 1.0
C      1  0.3601650000000  0.4772710000000  0.4849630000000 1.0
C      1  0.5542510000000  0.3703660000000  0.3481670000000 1.0
C      1  0.6225390000000  0.4287580000000  0.3487890000000 1.0
C      1  0.6600540000000  0.5160570000000  0.3537340000000 1.0
C      1  0.6026600000000  0.5906140000000  0.3490260000000 1.0
C      1  0.5357010000000  0.6575820000000  0.3535200000000 1.0
C      1  0.4457520000000  0.6296370000000  0.3481600000000 1.0
C      1  0.3774470000000  0.5712450000000  0.3488290000000 1.0
C      1  0.3399440000000  0.4839440000000  0.3537270000000 1.0
C      1  0.3973410000000  0.4093880000000  0.3490250000000 1.0
C      1  0.4643000000000  0.3424190000000  0.3535200000000 1.0
C      1  0.3349010000000  0.3314750000000  0.4477850000000 1.0
C      1  0.4641880000000  0.2692600000000  0.4411890000000 1.0
C      1  0.6091860000000  0.2922810000000  0.4470660000000 1.0
C      1  0.7101770000000  0.3950570000000  0.4478930000000 1.0
C      1  0.7308340000000  0.5360660000000  0.4408150000000 1.0
C      1  0.6651010000000  0.6685270000000  0.4477840000000 1.0
C      1  0.5358120000000  0.7307360000000  0.4411870000000 1.0
C      1  0.3908160000000  0.7077250000000  0.4470670000000 1.0
C      1  0.2898240000000  0.6049440000000  0.4478680000000 1.0
C      1  0.2691660000000  0.4639300000000  0.4408160000000 1.0
C      1  0.3362270000000  0.5081370000000  0.6399370000000 1.0
C      1  0.3626120000000  0.4110230000000  0.6399120000000 1.0
C      1  0.4411530000000  0.3471470000000  0.6404030000000 1.0
C      1  0.5420360000000  0.3413550000000  0.6395350000000 1.0
C      1  0.6266100000000  0.3966930000000  0.6407260000000 1.0
C      1  0.6637730000000  0.4918630000000  0.6399370000000 1.0
C      1  0.6373880000000  0.5889780000000  0.6399120000000 1.0
C      1  0.5588470000000  0.6528540000000  0.6404020000000 1.0
C      1  0.4579650000000  0.6586450000000  0.6395340000000 1.0
C      1  0.3733900000000  0.6033070000000  0.6407260000000 1.0
C      1  0.7156210000000  0.6209350000000  0.5876380000000 1.0
C      1  0.6021910000000  0.7256870000000  0.5890240000000 1.0
C      1  0.4507800000000  0.7432930000000  0.5876990000000 1.0
C      1  0.3180560000000  0.6671590000000  0.5901530000000 1.0
C      1  0.2533070000000  0.5268640000000  0.5887790000000 1.0
C      1  0.2843780000000  0.3790650000000  0.5876380000000 1.0
C      1  0.3978090000000  0.2743130000000  0.5890250000000 1.0
C      1  0.5492200000000  0.2567070000000  0.5877000000000 1.0
C      1  0.6819440000000  0.3328420000000  0.5901510000000 1.0
C      1  0.7466930000000  0.4731360000000  0.5887790000000 1.0
C      1  0.2306800000000  0.5406510000000  0.4932520000000 1.0
C      1  0.2599150000000  0.3754370000000  0.4914920000000 1.0
C      1  0.3790070000000  0.2562140000000  0.4932800000000 1.0
C      1  0.5454980000000  0.2332620000000  0.4915860000000 1.0
C      1  0.6948290000000  0.3094580000000  0.4937790000000 1.0
C      1  0.7693140000000  0.4593430000000  0.4932490000000 1.0
C      1  0.7400850000000  0.6245650000000  0.4914920000000 1.0
C      1  0.6209930000000  0.7437850000000  0.4932790000000 1.0
C      1  0.4545000000000  0.7667370000000  0.4915850000000 1.0
C      1  0.3051710000000  0.6905520000000  0.4937810000000 1.0
END
