TITL C-1525613-7943-5814 0.23276723324105 3375 -8451.17132079521 0 0 60 (Cs) n - 1
REM
REM in /home/nfs/bkarasulu/CARBON/AIRSS/Generating-Clusters/ReaxFF-fromJPCA2015/Units_Real/Try2-Higher-symm/Only-C60
REM
REM
REM
REM
REM
REM ./C.cell (863b2abdce7293c0672fb3ba77bf323a)
REM AIRSS Version 0.9.1 bugfix July 2018 build 013d7b7c2542+ Fri, 06 Jul 2018 19:26:36 +0100
REM compiler GCC version 9.2.1 20190827 (Red Hat 9.2.1-1)
REM options -cpp -mtune=generic -march=x86-64 -g -O0 -fpre-include=/usr/include/finclude/math-vector-fortran.h
REM seed 1410353987 877747215 -1531826872 1110711700 -187606988 -1420593831 -1917535455 2095880587 -1251736397 -1078476112 1741860655 560247893 401005676 -2036940253 -2137059395 981898246 -1559875783 -815185011 260697087 -1189795966 1560128613 825723663 -1561724824 775965541 -1529806597 298285258 256400132 772195270 -1656659938 2002243746 1681006032 -1164454414 502573374
REM
CELL 1.54180   15.00000   15.00000   15.00000   90.00000   90.00000   90.00000
LATT -1
SFAC C  
C      1  0.4564200000000  0.2217820000000  0.6403930000000 1.0
C      1  0.4558280000000  0.2815620000000  0.2802310000000 1.0
C      1  0.4568000000000  0.6468290000000  0.2283850000000 1.0
C      1  0.4637370000000  0.7894470000000  0.5424070000000 1.0
C      1  0.4560250000000  0.5545690000000  0.8046250000000 1.0
C      1  0.4564220000000  0.2217800000000  0.3596310000000 1.0
C      1  0.4558220000000  0.2815470000000  0.7197750000000 1.0
C      1  0.4567800000000  0.6468410000000  0.7715990000000 1.0
C      1  0.4636970000000  0.7894860000000  0.4576030000000 1.0
C      1  0.4560320000000  0.5545700000000  0.1953610000000 1.0
C      1  0.3414980000000  0.5886400000000  0.3729090000000 1.0
C      1  0.3294090000000  0.6439890000000  0.5489390000000 1.0
C      1  0.3353730000000  0.4978070000000  0.6553060000000 1.0
C      1  0.3397320000000  0.3513030000000  0.5478150000000 1.0
C      1  0.3447670000000  0.4079240000000  0.3750200000000 1.0
C      1  0.3414940000000  0.5886600000000  0.6270670000000 1.0
C      1  0.3294120000000  0.6439750000000  0.4510480000000 1.0
C      1  0.3354170000000  0.4977960000000  0.3446790000000 1.0
C      1  0.3398750000000  0.3512900000000  0.4521720000000 1.0
C      1  0.3449360000000  0.4079540000000  0.6249330000000 1.0
C      1  0.4409330000000  0.4999180000000  0.6577150000000 1.0
C      1  0.4429330000000  0.3494070000000  0.5479190000000 1.0
C      1  0.4480170000000  0.4093370000000  0.3749420000000 1.0
C      1  0.4489530000000  0.5917060000000  0.3792770000000 1.0
C      1  0.4282660000000  0.6547810000000  0.5481500000000 1.0
C      1  0.4409830000000  0.4999060000000  0.3423180000000 1.0
C      1  0.4430630000000  0.3494730000000  0.4521040000000 1.0
C      1  0.4481650000000  0.4093530000000  0.6250170000000 1.0
C      1  0.4489680000000  0.5917110000000  0.6207320000000 1.0
C      1  0.4282590000000  0.6547610000000  0.4518740000000 1.0
C      1  0.5973770000000  0.7261020000000  0.5496880000000 1.0
C      1  0.5924690000000  0.5240710000000  0.7294710000000 1.0
C      1  0.5947500000000  0.2879850000000  0.5935540000000 1.0
C      1  0.5952680000000  0.3452940000000  0.3270280000000 1.0
C      1  0.5950410000000  0.6165930000000  0.3018260000000 1.0
C      1  0.5973420000000  0.7262220000000  0.4503690000000 1.0
C      1  0.5925100000000  0.5240960000000  0.2705250000000 1.0
C      1  0.5947660000000  0.2879360000000  0.4064430000000 1.0
C      1  0.5953130000000  0.3452870000000  0.6729560000000 1.0
C      1  0.5950250000000  0.6166120000000  0.6981680000000 1.0
C      1  0.6611710000000  0.5937890000000  0.3714770000000 1.0
C      1  0.6617040000000  0.6506480000000  0.5497820000000 1.0
C      1  0.6589280000000  0.4985370000000  0.6594220000000 1.0
C      1  0.6596920000000  0.3480300000000  0.5485490000000 1.0
C      1  0.6607370000000  0.4063340000000  0.3701140000000 1.0
C      1  0.6611820000000  0.5937970000000  0.6285220000000 1.0
C      1  0.6617240000000  0.6506110000000  0.4502630000000 1.0
C      1  0.6588950000000  0.4985720000000  0.3405480000000 1.0
C      1  0.6597470000000  0.3480160000000  0.4514960000000 1.0
C      1  0.6607110000000  0.4062730000000  0.6298610000000 1.0
C      1  0.5021800000000  0.4859760000000  0.2543610000000 1.0
C      1  0.5161780000000  0.7398020000000  0.3969710000000 1.0
C      1  0.5051690000000  0.6602760000000  0.6821220000000 1.0
C      1  0.5051320000000  0.3683100000000  0.7084230000000 1.0
C      1  0.5051500000000  0.2591990000000  0.4390590000000 1.0
C      1  0.5021790000000  0.4860030000000  0.7456440000000 1.0
C      1  0.5162790000000  0.7397550000000  0.6029830000000 1.0
C      1  0.5051560000000  0.6602770000000  0.3178730000000 1.0
C      1  0.5051070000000  0.3682950000000  0.2916120000000 1.0
C      1  0.5050990000000  0.2591950000000  0.5609450000000 1.0
END
