TITL C-1525613-7943-2371 0.21529122903054 3375 -9296.09945671953 0 0 60 (C1) n - 1
REM
REM in /home/nfs/bkarasulu/CARBON/AIRSS/Generating-Clusters/ReaxFF-fromJPCA2015/Units_Real/Try2-Higher-symm/Only-C60
REM
REM
REM
REM
REM
REM ./C.cell (863b2abdce7293c0672fb3ba77bf323a)
REM AIRSS Version 0.9.1 bugfix July 2018 build 013d7b7c2542+ Fri, 06 Jul 2018 19:26:36 +0100
REM compiler GCC version 9.2.1 20190827 (Red Hat 9.2.1-1)
REM options -cpp -mtune=generic -march=x86-64 -g -O0 -fpre-include=/usr/include/finclude/math-vector-fortran.h
REM seed 2116046849 959577246 -247529833 -749871296 -851036533 900066862 1157858196 -1219169208 1466414639 -607329233 577555252 -372758682 -282992625 460850320 -652468724 -844105943 -340986358 -1474472479 215093858 1742844393 803031293 -1357500725 -1171126456 556484108 1830274813 -704444940 762018288 -1017446332 1487966921 1838344870 -1738629572 -1105174945 672197705
REM
CELL 1.54180   15.00000   15.00000   15.00000   90.00000   90.00000   90.00000
LATT -1
SFAC C  
C      1  0.5484220000000  0.6479900000000  0.6976380000000 1.0
C      1  0.6544950000000  0.4997070000000  0.6967560000000 1.0
C      1  0.5480340000000  0.3521380000000  0.6992760000000 1.0
C      1  0.3734800000000  0.4077400000000  0.7020310000000 1.0
C      1  0.3712670000000  0.5931030000000  0.7001530000000 1.0
C      1  0.4526200000000  0.6482090000000  0.6968960000000 1.0
C      1  0.3459860000000  0.5005590000000  0.6949700000000 1.0
C      1  0.4508490000000  0.3519880000000  0.6993340000000 1.0
C      1  0.6263580000000  0.4064700000000  0.7011170000000 1.0
C      1  0.6294530000000  0.5922140000000  0.6998060000000 1.0
C      1  0.4547740000000  0.3200750000000  0.6071460000000 1.0
C      1  0.3118640000000  0.4813540000000  0.6066950000000 1.0
C      1  0.4188060000000  0.6877630000000  0.6151470000000 1.0
C      1  0.6564710000000  0.6343380000000  0.6162570000000 1.0
C      1  0.6652120000000  0.3946930000000  0.6121820000000 1.0
C      1  0.5447890000000  0.3198900000000  0.6083480000000 1.0
C      1  0.6916970000000  0.4817600000000  0.6099030000000 1.0
C      1  0.5814250000000  0.6872720000000  0.6155530000000 1.0
C      1  0.3417860000000  0.6374060000000  0.6181070000000 1.0
C      1  0.3365210000000  0.3942840000000  0.6124180000000 1.0
C      1  0.7433380000000  0.4712220000000  0.4591280000000 1.0
C      1  0.5490590000000  0.2581850000000  0.4592550000000 1.0
C      1  0.2841800000000  0.3781950000000  0.4583590000000 1.0
C      1  0.3180070000000  0.6649810000000  0.4602830000000 1.0
C      1  0.6019030000000  0.7215240000000  0.4592100000000 1.0
C      1  0.2557170000000  0.4709790000000  0.4586330000000 1.0
C      1  0.4512570000000  0.2573370000000  0.4587710000000 1.0
C      1  0.7157770000000  0.3777330000000  0.4584320000000 1.0
C      1  0.6812500000000  0.6652820000000  0.4600260000000 1.0
C      1  0.3976260000000  0.7209750000000  0.4593520000000 1.0
C      1  0.4502130000000  0.6509280000000  0.3144060000000 1.0
C      1  0.6283790000000  0.5939880000000  0.3146300000000 1.0
C      1  0.6290440000000  0.4069750000000  0.3141630000000 1.0
C      1  0.4513820000000  0.3486160000000  0.3142360000000 1.0
C      1  0.3409390000000  0.4993610000000  0.3143370000000 1.0
C      1  0.5497130000000  0.6510890000000  0.3142080000000 1.0
C      1  0.3714960000000  0.5938550000000  0.3145270000000 1.0
C      1  0.3709520000000  0.4068750000000  0.3141770000000 1.0
C      1  0.5486030000000  0.3486370000000  0.3144030000000 1.0
C      1  0.6589350000000  0.4994840000000  0.3147520000000 1.0
C      1  0.3208680000000  0.3353750000000  0.5379190000000 1.0
C      1  0.2919160000000  0.6178420000000  0.5400240000000 1.0
C      1  0.5472470000000  0.7287370000000  0.5380740000000 1.0
C      1  0.7327370000000  0.5257920000000  0.5377030000000 1.0
C      1  0.5991070000000  0.2821900000000  0.5386750000000 1.0
C      1  0.6791580000000  0.3354830000000  0.5377100000000 1.0
C      1  0.7074900000000  0.6168410000000  0.5390280000000 1.0
C      1  0.4524870000000  0.7282640000000  0.5380530000000 1.0
C      1  0.2666850000000  0.5258270000000  0.5375280000000 1.0
C      1  0.4004470000000  0.2805340000000  0.5378970000000 1.0
C      1  0.5492980000000  0.7275630000000  0.3771680000000 1.0
C      1  0.7317940000000  0.5235280000000  0.3775130000000 1.0
C      1  0.5939600000000  0.2868620000000  0.3773400000000 1.0
C      1  0.3258480000000  0.3444120000000  0.3768160000000 1.0
C      1  0.2982860000000  0.6169770000000  0.3775230000000 1.0
C      1  0.4505520000000  0.7272840000000  0.3775300000000 1.0
C      1  0.2680490000000  0.5231050000000  0.3773440000000 1.0
C      1  0.4061670000000  0.2865430000000  0.3769940000000 1.0
C      1  0.6742960000000  0.3443140000000  0.3765910000000 1.0
C      1  0.7015220000000  0.6173510000000  0.3775470000000 1.0
END
