TITL C-1525613-7943-5978 0.0130458016084043 3375 -8235.26650579212 0 0 60 (C1) n - 1
REM
REM in /home/nfs/bkarasulu/CARBON/AIRSS/Generating-Clusters/ReaxFF-fromJPCA2015/Units_Real/Try2-Higher-symm/Only-C60
REM
REM
REM
REM
REM
REM ./C.cell (863b2abdce7293c0672fb3ba77bf323a)
REM AIRSS Version 0.9.1 bugfix July 2018 build 013d7b7c2542+ Fri, 06 Jul 2018 19:26:36 +0100
REM compiler GCC version 9.2.1 20190827 (Red Hat 9.2.1-1)
REM options -cpp -mtune=generic -march=x86-64 -g -O0 -fpre-include=/usr/include/finclude/math-vector-fortran.h
REM seed 1285808950 848802547 1011825979 -750724133 2126768138 2139792503 1951314660 2080843552 -680170100 510726862 465475765 -643696179 213925242 1768555829 -1444796032 -1117684503 -368305149 -1098703715 -767254862 1474671761 2074570836 1836539522 660037649 323643711 1269164976 -1805754783 -749470486 -456608111 1834837882 -1744066643 1722420417 -64530399 1657447163
REM
CELL 1.54180   15.00000   15.00000   15.00000   90.00000   90.00000   90.00000
LATT -1
SFAC C  
C      1  0.4806810000000  0.5844590000000  0.6650310000000 1.0
C      1  0.3281810000000  0.5822970000000  0.5333490000000 1.0
C      1  0.4164470000000  0.5863110000000  0.3536000000000 1.0
C      1  0.6146720000000  0.5815450000000  0.3770870000000 1.0
C      1  0.6582200000000  0.5797300000000  0.5729540000000 1.0
C      1  0.4785540000000  0.4170930000000  0.6681870000000 1.0
C      1  0.3275220000000  0.4196730000000  0.5344460000000 1.0
C      1  0.4141200000000  0.4182550000000  0.3526150000000 1.0
C      1  0.6124100000000  0.4157170000000  0.3768020000000 1.0
C      1  0.6573520000000  0.4164310000000  0.5735410000000 1.0
C      1  0.6331540000000  0.3360080000000  0.3519240000000 1.0
C      1  0.6857870000000  0.3354490000000  0.5878270000000 1.0
C      1  0.4743690000000  0.3347350000000  0.6964100000000 1.0
C      1  0.3023170000000  0.3405570000000  0.5375090000000 1.0
C      1  0.4010330000000  0.3393960000000  0.3263390000000 1.0
C      1  0.6378100000000  0.6594680000000  0.3542160000000 1.0
C      1  0.6819900000000  0.6592360000000  0.5843070000000 1.0
C      1  0.4794960000000  0.6636310000000  0.6967450000000 1.0
C      1  0.3018750000000  0.6630970000000  0.5334020000000 1.0
C      1  0.4045020000000  0.6657650000000  0.3240710000000 1.0
C      1  0.6369800000000  0.2731770000000  0.4745450000000 1.0
C      1  0.5646200000000  0.2757820000000  0.6131770000000 1.0
C      1  0.4105480000000  0.2775530000000  0.5896150000000 1.0
C      1  0.3865480000000  0.2616070000000  0.4354590000000 1.0
C      1  0.5199390000000  0.2669430000000  0.3946950000000 1.0
C      1  0.6310170000000  0.7355570000000  0.4842450000000 1.0
C      1  0.5467850000000  0.7339550000000  0.5955100000000 1.0
C      1  0.4056820000000  0.7271870000000  0.5983620000000 1.0
C      1  0.3856630000000  0.7286400000000  0.4444300000000 1.0
C      1  0.5208040000000  0.7240470000000  0.3721380000000 1.0
C      1  0.3624650000000  0.4599930000000  0.4378690000000 1.0
C      1  0.5146590000000  0.4592190000000  0.3555040000000 1.0
C      1  0.6452750000000  0.4567400000000  0.4714660000000 1.0
C      1  0.5713880000000  0.4575280000000  0.6295560000000 1.0
C      1  0.3983240000000  0.4597450000000  0.6090180000000 1.0
C      1  0.3630810000000  0.5422630000000  0.4368570000000 1.0
C      1  0.5154120000000  0.5417630000000  0.3555340000000 1.0
C      1  0.6457480000000  0.5391900000000  0.4713970000000 1.0
C      1  0.5722950000000  0.5398280000000  0.6287500000000 1.0
C      1  0.3988880000000  0.5421270000000  0.6082780000000 1.0
C      1  0.4684250000000  0.4566200000000  0.7591810000000 1.0
C      1  0.2482290000000  0.4624520000000  0.5491370000000 1.0
C      1  0.3716940000000  0.4592350000000  0.2726550000000 1.0
C      1  0.6726420000000  0.4593240000000  0.3125430000000 1.0
C      1  0.7313010000000  0.4603440000000  0.6079840000000 1.0
C      1  0.4709010000000  0.5394660000000  0.7484580000000 1.0
C      1  0.2485670000000  0.5392280000000  0.5482710000000 1.0
C      1  0.3759520000000  0.5423900000000  0.2782260000000 1.0
C      1  0.6740850000000  0.5372570000000  0.3127630000000 1.0
C      1  0.7317840000000  0.5370180000000  0.6078010000000 1.0
C      1  0.4332290000000  0.7372260000000  0.3701390000000 1.0
C      1  0.6059580000000  0.7303630000000  0.3974800000000 1.0
C      1  0.6326340000000  0.7328660000000  0.5699320000000 1.0
C      1  0.4775350000000  0.7385250000000  0.6487850000000 1.0
C      1  0.3529900000000  0.7355110000000  0.5261080000000 1.0
C      1  0.4346670000000  0.2671760000000  0.3645900000000 1.0
C      1  0.6075910000000  0.2622430000000  0.3915760000000 1.0
C      1  0.6379750000000  0.2649050000000  0.5641860000000 1.0
C      1  0.4812090000000  0.2656180000000  0.6432740000000 1.0
C      1  0.3560180000000  0.2705370000000  0.5201390000000 1.0
END
