TITL C-1525613-7943-6628 -0.0591736658546564 3375 -9237.04967154325 0 0 60 (C1) n - 1
REM
REM in /home/nfs/bkarasulu/CARBON/AIRSS/Generating-Clusters/ReaxFF-fromJPCA2015/Units_Real/Try2-Higher-symm/Only-C60
REM
REM
REM
REM
REM
REM ./C.cell (863b2abdce7293c0672fb3ba77bf323a)
REM AIRSS Version 0.9.1 bugfix July 2018 build 013d7b7c2542+ Fri, 06 Jul 2018 19:26:36 +0100
REM compiler GCC version 9.2.1 20190827 (Red Hat 9.2.1-1)
REM options -cpp -mtune=generic -march=x86-64 -g -O0 -fpre-include=/usr/include/finclude/math-vector-fortran.h
REM seed -951477285 75422283 -1719004981 772442651 -1601690372 -885071169 -706362230 -1040930977 -1539769275 1574450945 -1769982223 -1136169792 -766829654 -1298927309 1212576818 2075469376 354315325 1228610603 1118847878 -554970845 2080938802 42040970 1249844307 1524811370 -1973050327 -899190699 -677005 -1430529766 1439952443 -1087245842 -433073954 -1588117042 2138378746
REM
CELL 1.54180   15.00000   15.00000   15.00000   90.00000   90.00000   90.00000
LATT -1
SFAC C  
C      1  0.6987420000000  0.3341040000000  0.5456760000000 1.0
C      1  0.4037980000000  0.2594880000000  0.5445570000000 1.0
C      1  0.2419660000000  0.5172750000000  0.5447310000000 1.0
C      1  0.4378510000000  0.7506050000000  0.5459010000000 1.0
C      1  0.7160350000000  0.6349350000000  0.5422650000000 1.0
C      1  0.6985710000000  0.6654140000000  0.4540660000000 1.0
C      1  0.4031780000000  0.7396080000000  0.4537480000000 1.0
C      1  0.2461100000000  0.4820610000000  0.4555830000000 1.0
C      1  0.4389710000000  0.2531610000000  0.4552340000000 1.0
C      1  0.7161380000000  0.3649720000000  0.4573110000000 1.0
C      1  0.6463640000000  0.4343120000000  0.6788140000000 1.0
C      1  0.4831150000000  0.3397320000000  0.6773540000000 1.0
C      1  0.3427300000000  0.4657260000000  0.6772650000000 1.0
C      1  0.4197060000000  0.6378090000000  0.6777720000000 1.0
C      1  0.6072310000000  0.6186750000000  0.6744390000000 1.0
C      1  0.6469650000000  0.5651890000000  0.3205910000000 1.0
C      1  0.4836250000000  0.6596360000000  0.3209010000000 1.0
C      1  0.3427640000000  0.5341180000000  0.3237820000000 1.0
C      1  0.4192280000000  0.3615480000000  0.3238970000000 1.0
C      1  0.6070810000000  0.3808700000000  0.3250110000000 1.0
C      1  0.6176560000000  0.2565160000000  0.4444890000000 1.0
C      1  0.3043450000000  0.3133770000000  0.4441150000000 1.0
C      1  0.2606610000000  0.6283750000000  0.4438070000000 1.0
C      1  0.5499900000000  0.7715620000000  0.4418140000000 1.0
C      1  0.7713930000000  0.5359920000000  0.4407590000000 1.0
C      1  0.6186590000000  0.7438590000000  0.5552640000000 1.0
C      1  0.3001160000000  0.6903780000000  0.5576190000000 1.0
C      1  0.2568650000000  0.3687880000000  0.5580710000000 1.0
C      1  0.5495930000000  0.2281680000000  0.5579020000000 1.0
C      1  0.7712860000000  0.4637610000000  0.5591700000000 1.0
C      1  0.3816150000000  0.7043710000000  0.6066530000000 1.0
C      1  0.6562940000000  0.6724650000000  0.6017790000000 1.0
C      1  0.7159700000000  0.4028670000000  0.6084950000000 1.0
C      1  0.4748990000000  0.2634750000000  0.6070760000000 1.0
C      1  0.2676000000000  0.4506710000000  0.6072010000000 1.0
C      1  0.3833200000000  0.2991720000000  0.3969080000000 1.0
C      1  0.6561370000000  0.3275890000000  0.3980400000000 1.0
C      1  0.7160420000000  0.5966380000000  0.3912150000000 1.0
C      1  0.4756680000000  0.7352700000000  0.3927380000000 1.0
C      1  0.2722570000000  0.5490510000000  0.3967240000000 1.0
C      1  0.5313260000000  0.7784330000000  0.5382870000000 1.0
C      1  0.7713990000000  0.5588090000000  0.5356380000000 1.0
C      1  0.6413580000000  0.2560410000000  0.5365080000000 1.0
C      1  0.3118860000000  0.2904060000000  0.5359280000000 1.0
C      1  0.2435030000000  0.6133520000000  0.5355680000000 1.0
C      1  0.5303450000000  0.2246760000000  0.4617870000000 1.0
C      1  0.7715310000000  0.4410260000000  0.4642800000000 1.0
C      1  0.6413720000000  0.7427080000000  0.4632440000000 1.0
C      1  0.3110680000000  0.7077250000000  0.4613060000000 1.0
C      1  0.2470210000000  0.3865100000000  0.4621470000000 1.0
C      1  0.5119970000000  0.3830980000000  0.3168820000000 1.0
C      1  0.3918510000000  0.4527690000000  0.3162400000000 1.0
C      1  0.4210170000000  0.5885250000000  0.3152160000000 1.0
C      1  0.5595600000000  0.6026920000000  0.3140710000000 1.0
C      1  0.6157800000000  0.4753840000000  0.3157260000000 1.0
C      1  0.5121390000000  0.6170140000000  0.6830900000000 1.0
C      1  0.3915010000000  0.5471750000000  0.6838980000000 1.0
C      1  0.4203400000000  0.4109000000000  0.6835210000000 1.0
C      1  0.5589310000000  0.3969400000000  0.6843620000000 1.0
C      1  0.6155430000000  0.5242320000000  0.6835680000000 1.0
END
