TITL C-1525613-7943-3768 0.414498920067971 3375 -8705.33097067265 0 0 60 (C1) n - 1
REM
REM in /home/nfs/bkarasulu/CARBON/AIRSS/Generating-Clusters/ReaxFF-fromJPCA2015/Units_Real/Try2-Higher-symm/Only-C60
REM
REM
REM
REM
REM
REM ./C.cell (863b2abdce7293c0672fb3ba77bf323a)
REM AIRSS Version 0.9.1 bugfix July 2018 build 013d7b7c2542+ Fri, 06 Jul 2018 19:26:36 +0100
REM compiler GCC version 9.2.1 20190827 (Red Hat 9.2.1-1)
REM options -cpp -mtune=generic -march=x86-64 -g -O0 -fpre-include=/usr/include/finclude/math-vector-fortran.h
REM seed 541816848 -264729937 -1434122497 529278710 -1894385156 191882951 779069205 -11110227 1649439580 -1123753980 -2091698962 -1999221960 433412673 -839543202 1428737204 1978512482 -1793067439 -404917640 35217174 1921711117 -399141808 1225242351 -1589134079 1918618696 -44968120 986408474 1173521891 299168324 -107618840 666613790 261145225 676100466 1949282112
REM
CELL 1.54180   15.00000   15.00000   15.00000   90.00000   90.00000   90.00000
LATT -1
SFAC C  
C      1  0.3038660000000  0.5541270000000  0.5584320000000 1.0
C      1  0.3108870000000  0.5745700000000  0.4687520000000 1.0
C      1  0.3203770000000  0.4936900000000  0.4221270000000 1.0
C      1  0.3208280000000  0.4263340000000  0.4843900000000 1.0
C      1  0.3118650000000  0.4632910000000  0.5672080000000 1.0
C      1  0.6934240000000  0.5530280000000  0.5585980000000 1.0
C      1  0.6891650000000  0.5734050000000  0.4693230000000 1.0
C      1  0.6788950000000  0.4924750000000  0.4219760000000 1.0
C      1  0.6793190000000  0.4244280000000  0.4832940000000 1.0
C      1  0.6869570000000  0.4609450000000  0.5676530000000 1.0
C      1  0.4532860000000  0.5986320000000  0.6841310000000 1.0
C      1  0.4530420000000  0.7053630000000  0.4638330000000 1.0
C      1  0.4534540000000  0.5276530000000  0.2946570000000 1.0
C      1  0.4531670000000  0.3092080000000  0.4085240000000 1.0
C      1  0.4534630000000  0.3539550000000  0.6517430000000 1.0
C      1  0.5468580000000  0.5991550000000  0.6845580000000 1.0
C      1  0.5466140000000  0.7060920000000  0.4639470000000 1.0
C      1  0.5467420000000  0.5278000000000  0.2946640000000 1.0
C      1  0.5466780000000  0.3092740000000  0.4081730000000 1.0
C      1  0.5468610000000  0.3547950000000  0.6509450000000 1.0
C      1  0.3270470000000  0.5368260000000  0.6954010000000 1.0
C      1  0.3246030000000  0.6983610000000  0.5230440000000 1.0
C      1  0.3252280000000  0.5833840000000  0.3202870000000 1.0
C      1  0.3275460000000  0.3555500000000  0.3643580000000 1.0
C      1  0.3272350000000  0.3260880000000  0.5958440000000 1.0
C      1  0.6731850000000  0.5369670000000  0.6952540000000 1.0
C      1  0.6753680000000  0.6971240000000  0.5241050000000 1.0
C      1  0.6749340000000  0.5832490000000  0.3207740000000 1.0
C      1  0.6724060000000  0.3548090000000  0.3629250000000 1.0
C      1  0.6754710000000  0.3283940000000  0.5952020000000 1.0
C      1  0.5902700000000  0.6206360000000  0.3102430000000 1.0
C      1  0.5895590000000  0.3547570000000  0.3242050000000 1.0
C      1  0.5910700000000  0.2900690000000  0.5829350000000 1.0
C      1  0.5901280000000  0.5135440000000  0.7260180000000 1.0
C      1  0.5907940000000  0.7188220000000  0.5568220000000 1.0
C      1  0.4100050000000  0.6206610000000  0.3097710000000 1.0
C      1  0.4100900000000  0.3546030000000  0.3248270000000 1.0
C      1  0.4099430000000  0.2882050000000  0.5832410000000 1.0
C      1  0.4102720000000  0.5132120000000  0.7254970000000 1.0
C      1  0.4088980000000  0.7188130000000  0.5567100000000 1.0
C      1  0.6898780000000  0.4052780000000  0.6518080000000 1.0
C      1  0.6907030000000  0.6120790000000  0.6374810000000 1.0
C      1  0.6901950000000  0.6670050000000  0.4334960000000 1.0
C      1  0.6879680000000  0.4874930000000  0.3224160000000 1.0
C      1  0.6877970000000  0.3301810000000  0.4548250000000 1.0
C      1  0.3109520000000  0.4054900000000  0.6482210000000 1.0
C      1  0.3086450000000  0.6123420000000  0.6384790000000 1.0
C      1  0.3096040000000  0.6679350000000  0.4330230000000 1.0
C      1  0.3121490000000  0.4877320000000  0.3224840000000 1.0
C      1  0.3128530000000  0.3311920000000  0.4567710000000 1.0
C      1  0.3954530000000  0.4183140000000  0.7000680000000 1.0
C      1  0.3948280000000  0.6636720000000  0.6377370000000 1.0
C      1  0.3961680000000  0.6829540000000  0.3855790000000 1.0
C      1  0.3963440000000  0.4465120000000  0.2889910000000 1.0
C      1  0.3960040000000  0.2832290000000  0.4850170000000 1.0
C      1  0.6044180000000  0.4183390000000  0.7010520000000 1.0
C      1  0.6048290000000  0.6648450000000  0.6385020000000 1.0
C      1  0.6038590000000  0.6826560000000  0.3862640000000 1.0
C      1  0.6036760000000  0.4464590000000  0.2882860000000 1.0
C      1  0.6038780000000  0.2840010000000  0.4851100000000 1.0
END
