TITL C-1525613-7943-2572 0.0135470494245722 3375 -8921.30213660361 0 0 60 (C2) n - 1
REM
REM in /home/nfs/bkarasulu/CARBON/AIRSS/Generating-Clusters/ReaxFF-fromJPCA2015/Units_Real/Try2-Higher-symm/Only-C60
REM
REM
REM
REM
REM
REM ./C.cell (863b2abdce7293c0672fb3ba77bf323a)
REM AIRSS Version 0.9.1 bugfix July 2018 build 013d7b7c2542+ Fri, 06 Jul 2018 19:26:36 +0100
REM compiler GCC version 9.2.1 20190827 (Red Hat 9.2.1-1)
REM options -cpp -mtune=generic -march=x86-64 -g -O0 -fpre-include=/usr/include/finclude/math-vector-fortran.h
REM seed -805999841 2135492953 -994121129 1918072608 78031549 252314045 -1545597133 -367152149 -323776764 273501243 372417106 -751808536 -1689087226 1281332067 -1955408758 824830247 1164613450 -2091090186 1501768604 270358406 -877249330 489185954 -1496360610 156531817 1043475365 -121727612 466431054 -502431176 813933753 -1860993495 -821578501 -995911660 -448633513
REM
CELL 1.54180   15.00000   15.00000   15.00000   90.00000   90.00000   90.00000
LATT -1
SFAC C  
C      1  0.4569860000000  0.2837940000000  0.3779610000000 1.0
C      1  0.4667480000000  0.3882530000000  0.2659890000000 1.0
C      1  0.4547670000000  0.5486710000000  0.2574910000000 1.0
C      1  0.4931360000000  0.6725760000000  0.3440630000000 1.0
C      1  0.4762050000000  0.7539320000000  0.4618600000000 1.0
C      1  0.4569910000000  0.7162050000000  0.6220420000000 1.0
C      1  0.4667470000000  0.6117470000000  0.7340110000000 1.0
C      1  0.4547690000000  0.4513280000000  0.7425160000000 1.0
C      1  0.4931330000000  0.3274230000000  0.6559300000000 1.0
C      1  0.4762050000000  0.2460640000000  0.5381370000000 1.0
C      1  0.4347860000000  0.6162790000000  0.3879110000000 1.0
C      1  0.4316520000000  0.6669460000000  0.4699700000000 1.0
C      1  0.3984530000000  0.6479610000000  0.5766890000000 1.0
C      1  0.4307350000000  0.5792200000000  0.6494360000000 1.0
C      1  0.3993830000000  0.4771460000000  0.6630260000000 1.0
C      1  0.4347870000000  0.3837400000000  0.6121080000000 1.0
C      1  0.4316510000000  0.3330480000000  0.5300280000000 1.0
C      1  0.3984550000000  0.3520330000000  0.4233130000000 1.0
C      1  0.4307320000000  0.4207830000000  0.3505570000000 1.0
C      1  0.3993740000000  0.5228430000000  0.3369610000000 1.0
C      1  0.6582090000000  0.3950620000000  0.3844460000000 1.0
C      1  0.6568680000000  0.4836560000000  0.3435670000000 1.0
C      1  0.6582210000000  0.5788990000000  0.3621590000000 1.0
C      1  0.6678230000000  0.6451530000000  0.4336880000000 1.0
C      1  0.6585310000000  0.6526150000000  0.5309500000000 1.0
C      1  0.6582050000000  0.6049400000000  0.6155530000000 1.0
C      1  0.6568610000000  0.5163490000000  0.6564400000000 1.0
C      1  0.6582170000000  0.4211050000000  0.6378460000000 1.0
C      1  0.6678300000000  0.3548480000000  0.5663170000000 1.0
C      1  0.6585320000000  0.3473840000000  0.4690510000000 1.0
C      1  0.5515040000000  0.4456300000000  0.7599390000000 1.0
C      1  0.5771020000000  0.2931830000000  0.6838440000000 1.0
C      1  0.5761900000000  0.2275830000000  0.5336440000000 1.0
C      1  0.5547320000000  0.2693110000000  0.3696930000000 1.0
C      1  0.5676470000000  0.3869530000000  0.2517250000000 1.0
C      1  0.5515070000000  0.5543720000000  0.2400630000000 1.0
C      1  0.5771030000000  0.7068180000000  0.3161570000000 1.0
C      1  0.5761800000000  0.7724140000000  0.4663550000000 1.0
C      1  0.5547310000000  0.7306900000000  0.6303070000000 1.0
C      1  0.5676530000000  0.6130390000000  0.7482730000000 1.0
C      1  0.2585710000000  0.4214590000000  0.5888210000000 1.0
C      1  0.2585340000000  0.3818990000000  0.5129070000000 1.0
C      1  0.2903850000000  0.3623750000000  0.4276670000000 1.0
C      1  0.2646360000000  0.4442580000000  0.3921790000000 1.0
C      1  0.2916510000000  0.5205420000000  0.3462080000000 1.0
C      1  0.2585680000000  0.5785430000000  0.4111800000000 1.0
C      1  0.2585330000000  0.6181050000000  0.4870920000000 1.0
C      1  0.2903860000000  0.6376240000000  0.5723300000000 1.0
C      1  0.2646360000000  0.5557430000000  0.6078230000000 1.0
C      1  0.2916530000000  0.4794590000000  0.6537920000000 1.0
C      1  0.6285450000000  0.2731210000000  0.6016990000000 1.0
C      1  0.6105760000000  0.2646770000000  0.4512170000000 1.0
C      1  0.6091580000000  0.3375560000000  0.3231350000000 1.0
C      1  0.6067570000000  0.4744900000000  0.2603480000000 1.0
C      1  0.6115230000000  0.6199320000000  0.2859210000000 1.0
C      1  0.6285440000000  0.7268790000000  0.3982990000000 1.0
C      1  0.6105760000000  0.7353210000000  0.5487850000000 1.0
C      1  0.6091580000000  0.6624410000000  0.6768650000000 1.0
C      1  0.6067560000000  0.5255110000000  0.7396490000000 1.0
C      1  0.6115130000000  0.3800670000000  0.7140670000000 1.0
END
