TITL C-1525613-7943-4458 -0.0191658790643879 3375 -8359.855881106 0 0 60 (C1) n - 1
REM
REM in /home/nfs/bkarasulu/CARBON/AIRSS/Generating-Clusters/ReaxFF-fromJPCA2015/Units_Real/Try2-Higher-symm/Only-C60
REM
REM
REM
REM
REM
REM ./C.cell (863b2abdce7293c0672fb3ba77bf323a)
REM AIRSS Version 0.9.1 bugfix July 2018 build 013d7b7c2542+ Fri, 06 Jul 2018 19:26:36 +0100
REM compiler GCC version 9.2.1 20190827 (Red Hat 9.2.1-1)
REM options -cpp -mtune=generic -march=x86-64 -g -O0 -fpre-include=/usr/include/finclude/math-vector-fortran.h
REM seed -216669903 -1680061706 296595887 -214249362 528667150 -1097244245 1179366542 -1753854637 -1257673728 1603285792 -223665490 1185215833 519827430 -410996644 575367356 -1477780824 -1921370421 -817671225 -179040958 -831353794 1946254180 288105645 -207742824 449658525 -885686579 -323688110 1929992189 110524923 -654395701 -1235005145 1610675682 222418410 1936151432
REM
CELL 1.54180   15.00000   15.00000   15.00000   90.00000   90.00000   90.00000
LATT -1
SFAC C  
C      1  0.3531470000000  0.3904250000000  0.5889600000000 1.0
C      1  0.5644650000000  0.3990330000000  0.7522830000000 1.0
C      1  0.6782490000000  0.3609830000000  0.5332410000000 1.0
C      1  0.5408930000000  0.3945800000000  0.2535790000000 1.0
C      1  0.3436550000000  0.3811600000000  0.3760050000000 1.0
C      1  0.3622560000000  0.6062550000000  0.5860430000000 1.0
C      1  0.5646580000000  0.6038520000000  0.7461100000000 1.0
C      1  0.6878840000000  0.6454760000000  0.5303510000000 1.0
C      1  0.5277650000000  0.6128090000000  0.2774440000000 1.0
C      1  0.3694600000000  0.5904820000000  0.3899510000000 1.0
C      1  0.4485060000000  0.7571490000000  0.4891180000000 1.0
C      1  0.4727590000000  0.7384780000000  0.5854520000000 1.0
C      1  0.5549160000000  0.7091400000000  0.6277610000000 1.0
C      1  0.5809190000000  0.6940220000000  0.4085770000000 1.0
C      1  0.5090980000000  0.7599740000000  0.4094630000000 1.0
C      1  0.4409490000000  0.2421780000000  0.5014860000000 1.0
C      1  0.4673470000000  0.2614380000000  0.5939040000000 1.0
C      1  0.5514130000000  0.2959250000000  0.6303340000000 1.0
C      1  0.5878830000000  0.3092610000000  0.3936690000000 1.0
C      1  0.4857560000000  0.2895490000000  0.4132820000000 1.0
C      1  0.4664750000000  0.2945020000000  0.3167900000000 1.0
C      1  0.3548340000000  0.2645700000000  0.4779480000000 1.0
C      1  0.3924290000000  0.3084640000000  0.6337740000000 1.0
C      1  0.5722760000000  0.3071420000000  0.7227810000000 1.0
C      1  0.6648080000000  0.3073040000000  0.4542930000000 1.0
C      1  0.4783990000000  0.7346620000000  0.3223490000000 1.0
C      1  0.3724700000000  0.7124140000000  0.4571510000000 1.0
C      1  0.3969220000000  0.6939460000000  0.6256260000000 1.0
C      1  0.5689450000000  0.6971600000000  0.7210220000000 1.0
C      1  0.6676910000000  0.6953250000000  0.4510170000000 1.0
C      1  0.4676310000000  0.3403600000000  0.2409660000000 1.0
C      1  0.3041060000000  0.3221220000000  0.4364860000000 1.0
C      1  0.3854930000000  0.3871510000000  0.6847510000000 1.0
C      1  0.6435000000000  0.3700090000000  0.7416200000000 1.0
C      1  0.7078330000000  0.3969510000000  0.4503670000000 1.0
C      1  0.4709370000000  0.6788150000000  0.2578380000000 1.0
C      1  0.3178010000000  0.6588300000000  0.4255750000000 1.0
C      1  0.3843550000000  0.6197750000000  0.6820560000000 1.0
C      1  0.6415000000000  0.6385380000000  0.7475160000000 1.0
C      1  0.7029350000000  0.6006800000000  0.4465340000000 1.0
C      1  0.5519900000000  0.5966260000000  0.3855010000000 1.0
C      1  0.4628290000000  0.5693890000000  0.4298700000000 1.0
C      1  0.4503410000000  0.5698970000000  0.5235070000000 1.0
C      1  0.5336880000000  0.5891670000000  0.5460950000000 1.0
C      1  0.6095200000000  0.6224210000000  0.5941840000000 1.0
C      1  0.5968530000000  0.3879780000000  0.3416960000000 1.0
C      1  0.4318510000000  0.3800780000000  0.4220460000000 1.0
C      1  0.4313650000000  0.4146560000000  0.5123540000000 1.0
C      1  0.5136940000000  0.4033470000000  0.5484050000000 1.0
C      1  0.5959860000000  0.3856050000000  0.5928150000000 1.0
C      1  0.6194810000000  0.4487050000000  0.6900430000000 1.0
C      1  0.6572270000000  0.4517010000000  0.3839070000000 1.0
C      1  0.4923020000000  0.4663060000000  0.2155740000000 1.0
C      1  0.2828050000000  0.4473990000000  0.4015670000000 1.0
C      1  0.3324290000000  0.4569880000000  0.6571850000000 1.0
C      1  0.6315290000000  0.5596760000000  0.6915300000000 1.0
C      1  0.6390520000000  0.5449350000000  0.4005940000000 1.0
C      1  0.4879020000000  0.5530910000000  0.2212710000000 1.0
C      1  0.2943340000000  0.5330830000000  0.4019840000000 1.0
C      1  0.3315060000000  0.5480610000000  0.6563990000000 1.0
END
