TITL C-1525613-7943-2920 0.362237287789749 3375 -9194.08909006352 0 0 60 (C1) n - 1
REM
REM in /home/nfs/bkarasulu/CARBON/AIRSS/Generating-Clusters/ReaxFF-fromJPCA2015/Units_Real/Try2-Higher-symm/Only-C60
REM
REM
REM
REM
REM
REM ./C.cell (863b2abdce7293c0672fb3ba77bf323a)
REM AIRSS Version 0.9.1 bugfix July 2018 build 013d7b7c2542+ Fri, 06 Jul 2018 19:26:36 +0100
REM compiler GCC version 9.2.1 20190827 (Red Hat 9.2.1-1)
REM options -cpp -mtune=generic -march=x86-64 -g -O0 -fpre-include=/usr/include/finclude/math-vector-fortran.h
REM seed -401547543 640821109 73887651 -1121702755 -1797968076 -164524631 -146646416 -200428779 -231767045 410744115 1777455423 1616436215 -1718037524 1371131074 36343011 670595842 285530639 -816973476 1403427854 1844378221 914667124 -113520762 -209484381 -1326872282 1374560698 -282585449 -853686889 1578817874 1690261568 -1989163566 -1173352036 -101830097 943566567
REM
CELL 1.54180   15.00000   15.00000   15.00000   90.00000   90.00000   90.00000
LATT -1
SFAC C  
C      1  0.4881440000000  0.3542070000000  0.4544430000000 1.0
C      1  0.5155030000000  0.4142530000000  0.3856190000000 1.0
C      1  0.4882260000000  0.4982860000000  0.3495050000000 1.0
C      1  0.5202760000000  0.5821520000000  0.3870600000000 1.0
C      1  0.4933920000000  0.6422820000000  0.4488560000000 1.0
C      1  0.5124860000000  0.6453770000000  0.5411710000000 1.0
C      1  0.4927700000000  0.5894520000000  0.6189520000000 1.0
C      1  0.5141330000000  0.4992080000000  0.6472220000000 1.0
C      1  0.4748900000000  0.4162080000000  0.6106130000000 1.0
C      1  0.5120900000000  0.3644030000000  0.5400220000000 1.0
C      1  0.2183100000000  0.5811150000000  0.4841800000000 1.0
C      1  0.7890010000000  0.5748530000000  0.5342590000000 1.0
C      1  0.2175670000000  0.5424800000000  0.5715390000000 1.0
C      1  0.7886490000000  0.4903860000000  0.5813780000000 1.0
C      1  0.2105050000000  0.4467880000000  0.5615550000000 1.0
C      1  0.7861060000000  0.4197150000000  0.5155030000000 1.0
C      1  0.2101060000000  0.4264280000000  0.4671360000000 1.0
C      1  0.7869710000000  0.4607000000000  0.4278650000000 1.0
C      1  0.2134140000000  0.5099760000000  0.4194450000000 1.0
C      1  0.7877970000000  0.5568570000000  0.4392640000000 1.0
C      1  0.6686580000000  0.6302630000000  0.6363200000000 1.0
C      1  0.3305950000000  0.5254110000000  0.6878540000000 1.0
C      1  0.6667090000000  0.4149390000000  0.6670730000000 1.0
C      1  0.3268640000000  0.3314410000000  0.5860320000000 1.0
C      1  0.6658140000000  0.3141300000000  0.4650790000000 1.0
C      1  0.3311080000000  0.3663000000000  0.3699750000000 1.0
C      1  0.6691670000000  0.4768920000000  0.3103280000000 1.0
C      1  0.3323210000000  0.5815480000000  0.3302680000000 1.0
C      1  0.6692040000000  0.6725210000000  0.4179610000000 1.0
C      1  0.3357300000000  0.6839110000000  0.5293090000000 1.0
C      1  0.3323210000000  0.6449720000000  0.6182820000000 1.0
C      1  0.6713190000000  0.5496300000000  0.6834710000000 1.0
C      1  0.3243870000000  0.4304650000000  0.6800780000000 1.0
C      1  0.6642270000000  0.3446450000000  0.6007960000000 1.0
C      1  0.3253740000000  0.3111810000000  0.4945440000000 1.0
C      1  0.6696870000000  0.3543230000000  0.3769180000000 1.0
C      1  0.3288470000000  0.4460330000000  0.3215570000000 1.0
C      1  0.6698080000000  0.5725110000000  0.3227240000000 1.0
C      1  0.3324490000000  0.6545140000000  0.3940300000000 1.0
C      1  0.6721280000000  0.6913790000000  0.5124560000000 1.0
C      1  0.4050230000000  0.6675390000000  0.4598250000000 1.0
C      1  0.6020560000000  0.6563250000000  0.5694910000000 1.0
C      1  0.4033830000000  0.5825130000000  0.6483520000000 1.0
C      1  0.6025940000000  0.4872090000000  0.6794210000000 1.0
C      1  0.3915790000000  0.3829380000000  0.6362050000000 1.0
C      1  0.5965560000000  0.3340600000000  0.5316140000000 1.0
C      1  0.3967000000000  0.3328120000000  0.4355820000000 1.0
C      1  0.5996590000000  0.4194530000000  0.3490610000000 1.0
C      1  0.3982230000000  0.5087120000000  0.3207010000000 1.0
C      1  0.6022090000000  0.6178960000000  0.3748350000000 1.0
C      1  0.2563120000000  0.3878200000000  0.6248080000000 1.0
C      1  0.7315430000000  0.3395290000000  0.5316400000000 1.0
C      1  0.2597700000000  0.3484670000000  0.4346090000000 1.0
C      1  0.7364120000000  0.4212360000000  0.3535270000000 1.0
C      1  0.2620010000000  0.5136960000000  0.3365840000000 1.0
C      1  0.7363800000000  0.6145790000000  0.3788850000000 1.0
C      1  0.2688540000000  0.6592960000000  0.4658530000000 1.0
C      1  0.7385120000000  0.6507040000000  0.5710540000000 1.0
C      1  0.2668530000000  0.5803920000000  0.6424130000000 1.0
C      1  0.7383260000000  0.4826880000000  0.6649010000000 1.0
END
