TITL C-1525613-7943-2866 0.396239558465024 3375 -8596.9091480487 0 0 60 (C1) n - 1
REM
REM in /home/nfs/bkarasulu/CARBON/AIRSS/Generating-Clusters/ReaxFF-fromJPCA2015/Units_Real/Try2-Higher-symm/Only-C60
REM
REM
REM
REM
REM
REM ./C.cell (863b2abdce7293c0672fb3ba77bf323a)
REM AIRSS Version 0.9.1 bugfix July 2018 build 013d7b7c2542+ Fri, 06 Jul 2018 19:26:36 +0100
REM compiler GCC version 9.2.1 20190827 (Red Hat 9.2.1-1)
REM options -cpp -mtune=generic -march=x86-64 -g -O0 -fpre-include=/usr/include/finclude/math-vector-fortran.h
REM seed -495706698 -1358063361 1492324057 44320186 -1698657993 -2000701458 1908110772 1725822643 1302514742 -1272847477 -675526262 -221304960 -1559208312 -1023850124 261646206 -1518443091 14060923 -1202547757 704332829 -294876103 -546685527 -328021666 1758357184 -810649193 1630601039 -1807802225 1642489661 -278513675 1997429927 -1254671732 -2029488739 932823555 1936232413
REM
CELL 1.54180   15.00000   15.00000   15.00000   90.00000   90.00000   90.00000
LATT -1
SFAC C  
C      1  0.6281060000000  0.4086000000000  0.6926050000000 1.0
C      1  0.4509660000000  0.3494140000000  0.6961300000000 1.0
C      1  0.3407410000000  0.5016420000000  0.6975350000000 1.0
C      1  0.4509510000000  0.6542260000000  0.6978470000000 1.0
C      1  0.6273860000000  0.5953190000000  0.6934490000000 1.0
C      1  0.3717820000000  0.4086720000000  0.6927180000000 1.0
C      1  0.5490790000000  0.3492150000000  0.6963170000000 1.0
C      1  0.6591340000000  0.5015390000000  0.6979030000000 1.0
C      1  0.5492460000000  0.6543960000000  0.6980580000000 1.0
C      1  0.3729450000000  0.5953870000000  0.6931370000000 1.0
C      1  0.4524300000000  0.6470770000000  0.5063440000000 1.0
C      1  0.6266340000000  0.5918730000000  0.4992020000000 1.0
C      1  0.6247280000000  0.4076060000000  0.5001710000000 1.0
C      1  0.4524700000000  0.3511030000000  0.5024150000000 1.0
C      1  0.3483770000000  0.4998630000000  0.5063670000000 1.0
C      1  0.5472940000000  0.6471700000000  0.5068750000000 1.0
C      1  0.3733700000000  0.5919880000000  0.4980170000000 1.0
C      1  0.3759090000000  0.4080570000000  0.5017530000000 1.0
C      1  0.5477020000000  0.3509450000000  0.5020930000000 1.0
C      1  0.6516400000000  0.4996570000000  0.5060350000000 1.0
C      1  0.6290600000000  0.4056140000000  0.2572790000000 1.0
C      1  0.4505900000000  0.3488470000000  0.2574990000000 1.0
C      1  0.3417070000000  0.5009320000000  0.2573530000000 1.0
C      1  0.4510800000000  0.6515140000000  0.2575970000000 1.0
C      1  0.6292420000000  0.5934020000000  0.2563190000000 1.0
C      1  0.3710090000000  0.4069410000000  0.2568620000000 1.0
C      1  0.5487780000000  0.3483250000000  0.2577830000000 1.0
C      1  0.6580980000000  0.4996230000000  0.2570020000000 1.0
C      1  0.5494310000000  0.6511050000000  0.2572770000000 1.0
C      1  0.3705640000000  0.5946150000000  0.2570370000000 1.0
C      1  0.2650120000000  0.5250270000000  0.6376260000000 1.0
C      1  0.4510350000000  0.7311320000000  0.6363560000000 1.0
C      1  0.7044630000000  0.6182800000000  0.6358590000000 1.0
C      1  0.6754630000000  0.3414060000000  0.6361260000000 1.0
C      1  0.4038090000000  0.2833110000000  0.6383600000000 1.0
C      1  0.7347060000000  0.5245990000000  0.6375260000000 1.0
C      1  0.5491010000000  0.7313230000000  0.6367210000000 1.0
C      1  0.2957240000000  0.6183680000000  0.6353530000000 1.0
C      1  0.3243820000000  0.3413600000000  0.6364900000000 1.0
C      1  0.5961490000000  0.2832560000000  0.6382690000000 1.0
C      1  0.7334750000000  0.4738490000000  0.5535070000000 1.0
C      1  0.5491300000000  0.2673090000000  0.5535360000000 1.0
C      1  0.2950970000000  0.3801800000000  0.5511130000000 1.0
C      1  0.3244330000000  0.6596460000000  0.5509510000000 1.0
C      1  0.5947120000000  0.7115350000000  0.5559250000000 1.0
C      1  0.2660800000000  0.4742050000000  0.5532510000000 1.0
C      1  0.4510130000000  0.2673290000000  0.5535550000000 1.0
C      1  0.7047000000000  0.3797560000000  0.5506240000000 1.0
C      1  0.6753560000000  0.6599220000000  0.5517600000000 1.0
C      1  0.4052840000000  0.7112720000000  0.5555790000000 1.0
C      1  0.3722140000000  0.4064650000000  0.3542950000000 1.0
C      1  0.3714700000000  0.5928160000000  0.3538090000000 1.0
C      1  0.5486620000000  0.6498470000000  0.3546720000000 1.0
C      1  0.6576100000000  0.5013210000000  0.3543650000000 1.0
C      1  0.5494380000000  0.3510550000000  0.3551190000000 1.0
C      1  0.6286390000000  0.4077080000000  0.3547050000000 1.0
C      1  0.6279890000000  0.5938780000000  0.3531650000000 1.0
C      1  0.4504710000000  0.6492320000000  0.3549690000000 1.0
C      1  0.3423630000000  0.4996500000000  0.3545970000000 1.0
C      1  0.4515720000000  0.3502930000000  0.3548380000000 1.0
END
