TITL C-1525613-7943-4958 -0.00217471909522669 3375 -8695.30705698158 0 0 60 (C1) n - 1
REM
REM in /home/nfs/bkarasulu/CARBON/AIRSS/Generating-Clusters/ReaxFF-fromJPCA2015/Units_Real/Try2-Higher-symm/Only-C60
REM
REM
REM
REM
REM
REM ./C.cell (863b2abdce7293c0672fb3ba77bf323a)
REM AIRSS Version 0.9.1 bugfix July 2018 build 013d7b7c2542+ Fri, 06 Jul 2018 19:26:36 +0100
REM compiler GCC version 9.2.1 20190827 (Red Hat 9.2.1-1)
REM options -cpp -mtune=generic -march=x86-64 -g -O0 -fpre-include=/usr/include/finclude/math-vector-fortran.h
REM seed 662754312 -868812012 1606313971 -1606842585 -1663554121 1226922583 510492348 -731997421 1411550710 -400036600 2041592812 -1781918637 1085888670 -1926766638 329726056 100249712 -1765393213 -668891066 1736385014 -85635604 1581707616 -730750644 -1991491976 -1489405570 -843056899 192846637 -1131297902 1964974275 1902956931 479139012 -529472162 -1631534464 1481118380
REM
CELL 1.54180   15.00000   15.00000   15.00000   90.00000   90.00000   90.00000
LATT -1
SFAC C  
C      1  0.4465640000000  0.2140840000000  0.3984350000000 1.0
C      1  0.5805810000000  0.2159940000000  0.4164440000000 1.0
C      1  0.6032750000000  0.2145590000000  0.5496750000000 1.0
C      1  0.4842340000000  0.2122630000000  0.6135970000000 1.0
C      1  0.3870960000000  0.2127480000000  0.5196140000000 1.0
C      1  0.4463080000000  0.7876520000000  0.3978740000000 1.0
C      1  0.5800220000000  0.7894930000000  0.4175090000000 1.0
C      1  0.6035930000000  0.7876070000000  0.5505420000000 1.0
C      1  0.4838460000000  0.7875380000000  0.6140600000000 1.0
C      1  0.3869200000000  0.7865230000000  0.5195130000000 1.0
C      1  0.6801800000000  0.3425410000000  0.4720160000000 1.0
C      1  0.5869230000000  0.3376740000000  0.6666580000000 1.0
C      1  0.3695600000000  0.3369900000000  0.6344530000000 1.0
C      1  0.3317030000000  0.3384280000000  0.4197070000000 1.0
C      1  0.5215380000000  0.3403830000000  0.3160270000000 1.0
C      1  0.6843270000000  0.6642090000000  0.4635950000000 1.0
C      1  0.5891150000000  0.6636170000000  0.6641210000000 1.0
C      1  0.3688230000000  0.6638300000000  0.6351140000000 1.0
C      1  0.3364880000000  0.6606290000000  0.4176040000000 1.0
C      1  0.5313310000000  0.6660930000000  0.3122520000000 1.0
C      1  0.3203590000000  0.5362740000000  0.5291440000000 1.0
C      1  0.4164700000000  0.5360350000000  0.3403220000000 1.0
C      1  0.6609180000000  0.5483390000000  0.3386170000000 1.0
C      1  0.6645180000000  0.5372240000000  0.5747560000000 1.0
C      1  0.4743250000000  0.5366100000000  0.6812420000000 1.0
C      1  0.2764940000000  0.4555650000000  0.5368040000000 1.0
C      1  0.3888140000000  0.4563580000000  0.3030370000000 1.0
C      1  0.6245790000000  0.4710650000000  0.3739700000000 1.0
C      1  0.7035410000000  0.4571660000000  0.5985470000000 1.0
C      1  0.4672000000000  0.4564260000000  0.7252250000000 1.0
C      1  0.4250070000000  0.6151110000000  0.6950500000000 1.0
C      1  0.2949730000000  0.6137080000000  0.4862240000000 1.0
C      1  0.4523970000000  0.6140220000000  0.2985240000000 1.0
C      1  0.6859520000000  0.6286530000000  0.3778340000000 1.0
C      1  0.6633620000000  0.6168650000000  0.6259770000000 1.0
C      1  0.4219190000000  0.3764980000000  0.7035500000000 1.0
C      1  0.2832930000000  0.3757980000000  0.4897920000000 1.0
C      1  0.4360620000000  0.3751000000000  0.2909090000000 1.0
C      1  0.6681550000000  0.3924430000000  0.3943920000000 1.0
C      1  0.6688860000000  0.3776940000000  0.6386240000000 1.0
C      1  0.6521200000000  0.2449560000000  0.4730360000000 1.0
C      1  0.5726810000000  0.2402990000000  0.6363440000000 1.0
C      1  0.3926390000000  0.2395280000000  0.6110360000000 1.0
C      1  0.3613630000000  0.2420210000000  0.4322040000000 1.0
C      1  0.5215100000000  0.2421550000000  0.3461220000000 1.0
C      1  0.6525600000000  0.7604650000000  0.4729460000000 1.0
C      1  0.5729500000000  0.7613150000000  0.6370500000000 1.0
C      1  0.3919660000000  0.7611340000000  0.6114360000000 1.0
C      1  0.3617210000000  0.7582030000000  0.4315770000000 1.0
C      1  0.5225370000000  0.7629470000000  0.3459020000000 1.0
C      1  0.3542660000000  0.3777730000000  0.3385700000000 1.0
C      1  0.6012810000000  0.3918360000000  0.3271560000000 1.0
C      1  0.7098870000000  0.3766050000000  0.5532900000000 1.0
C      1  0.5164040000000  0.3762840000000  0.7178070000000 1.0
C      1  0.2988230000000  0.3756610000000  0.5833100000000 1.0
C      1  0.3692540000000  0.6149570000000  0.3436500000000 1.0
C      1  0.6197270000000  0.6297660000000  0.3104560000000 1.0
C      1  0.7018130000000  0.6139380000000  0.5397730000000 1.0
C      1  0.5194890000000  0.6145010000000  0.7073150000000 1.0
C      1  0.3073590000000  0.6158460000000  0.5796730000000 1.0
END
