TITL C-1525613-7943-3554 0.0658986783105067 3375 -8806.87629839235 0 0 60 (Ci) n - 1
REM
REM in /home/nfs/bkarasulu/CARBON/AIRSS/Generating-Clusters/ReaxFF-fromJPCA2015/Units_Real/Try2-Higher-symm/Only-C60
REM
REM
REM
REM
REM
REM ./C.cell (863b2abdce7293c0672fb3ba77bf323a)
REM AIRSS Version 0.9.1 bugfix July 2018 build 013d7b7c2542+ Fri, 06 Jul 2018 19:26:36 +0100
REM compiler GCC version 9.2.1 20190827 (Red Hat 9.2.1-1)
REM options -cpp -mtune=generic -march=x86-64 -g -O0 -fpre-include=/usr/include/finclude/math-vector-fortran.h
REM seed -730068494 -1978935897 -249637499 -1707267390 -1936690091 -943603077 1502813876 1627863275 -1401770604 79278203 27122982 642128744 320800163 1934791607 -462551772 1334873352 741548845 -504741942 -783731165 1616668951 -613546318 918509030 608243461 -1601470732 1526036138 930667373 2144935102 -1602090534 -993395864 -1398097488 1998123821 -920567020 -465273953
REM
CELL 1.54180   15.00000   15.00000   15.00000   90.00000   90.00000   90.00000
LATT -1
SFAC C  
C      1  0.4328050000000  0.4550760000000  0.7044760000000 1.0
C      1  0.4138030000000  0.5024580000000  0.2964770000000 1.0
C      1  0.4347040000000  0.5529340000000  0.7014540000000 1.0
C      1  0.4746900000000  0.5797400000000  0.3010330000000 1.0
C      1  0.5297010000000  0.5795070000000  0.7071680000000 1.0
C      1  0.5671870000000  0.5450070000000  0.2955550000000 1.0
C      1  0.5860470000000  0.4975860000000  0.7035700000000 1.0
C      1  0.5653220000000  0.4469900000000  0.2985380000000 1.0
C      1  0.5252910000000  0.4202560000000  0.6989650000000 1.0
C      1  0.4703060000000  0.4205130000000  0.2927700000000 1.0
C      1  0.5736020000000  0.5412400000000  0.5732780000000 1.0
C      1  0.5751620000000  0.4693440000000  0.4532540000000 1.0
C      1  0.5556510000000  0.4484940000000  0.5510030000000 1.0
C      1  0.5041570000000  0.4109740000000  0.4261870000000 1.0
C      1  0.4587630000000  0.4413820000000  0.5640790000000 1.0
C      1  0.4263860000000  0.4587220000000  0.4267250000000 1.0
C      1  0.4248040000000  0.5306380000000  0.5468900000000 1.0
C      1  0.4443790000000  0.5513810000000  0.4489910000000 1.0
C      1  0.4957720000000  0.5890660000000  0.5738320000000 1.0
C      1  0.5412480000000  0.5585710000000  0.4358900000000 1.0
C      1  0.5115970000000  0.3098740000000  0.4075800000000 1.0
C      1  0.4044960000000  0.3539410000000  0.5832340000000 1.0
C      1  0.3237720000000  0.4215150000000  0.4126080000000 1.0
C      1  0.2987480000000  0.5542310000000  0.5909090000000 1.0
C      1  0.3665960000000  0.6577550000000  0.4089660000000 1.0
C      1  0.4883730000000  0.6900810000000  0.5923860000000 1.0
C      1  0.5954950000000  0.6460150000000  0.4168590000000 1.0
C      1  0.6762630000000  0.5785320000000  0.5874120000000 1.0
C      1  0.7011210000000  0.4456880000000  0.4091530000000 1.0
C      1  0.6333920000000  0.3422640000000  0.5910770000000 1.0
C      1  0.6974340000000  0.4233200000000  0.5972860000000 1.0
C      1  0.6140380000000  0.3187930000000  0.4015470000000 1.0
C      1  0.4831740000000  0.2915110000000  0.5929140000000 1.0
C      1  0.3687030000000  0.3302900000000  0.3978680000000 1.0
C      1  0.2929190000000  0.4500820000000  0.5985440000000 1.0
C      1  0.3026330000000  0.5766310000000  0.4026230000000 1.0
C      1  0.3859920000000  0.6811960000000  0.5984710000000 1.0
C      1  0.5168430000000  0.7084960000000  0.4071140000000 1.0
C      1  0.6313000000000  0.6698180000000  0.6021560000000 1.0
C      1  0.7071420000000  0.5499510000000  0.4014210000000 1.0
C      1  0.4505910000000  0.6586250000000  0.3547980000000 1.0
C      1  0.5580590000000  0.6639990000000  0.6654920000000 1.0
C      1  0.6383170000000  0.5928320000000  0.3428730000000 1.0
C      1  0.6717650000000  0.4984080000000  0.6555180000000 1.0
C      1  0.6344410000000  0.3990600000000  0.3501080000000 1.0
C      1  0.5493590000000  0.3413680000000  0.6452810000000 1.0
C      1  0.4419670000000  0.3360190000000  0.3344550000000 1.0
C      1  0.3616530000000  0.4072460000000  0.6571830000000 1.0
C      1  0.3282830000000  0.5016160000000  0.3444810000000 1.0
C      1  0.3656630000000  0.6009200000000  0.6497590000000 1.0
C      1  0.5227180000000  0.7333470000000  0.5014510000000 1.0
C      1  0.6099710000000  0.7040180000000  0.5141470000000 1.0
C      1  0.7194230000000  0.5738870000000  0.4920990000000 1.0
C      1  0.7116910000000  0.4325430000000  0.5040930000000 1.0
C      1  0.6348650000000  0.3121170000000  0.4964540000000 1.0
C      1  0.4773150000000  0.2666690000000  0.4985650000000 1.0
C      1  0.3901040000000  0.2960460000000  0.4858060000000 1.0
C      1  0.2806270000000  0.4261070000000  0.5078280000000 1.0
C      1  0.2882610000000  0.5674360000000  0.4958770000000 1.0
C      1  0.3651130000000  0.6878740000000  0.5034680000000 1.0
END
