TITL C-1525613-7943-5233 0.0407709494219268 3375 -8636.4988059246 0 0 60 (C1) n - 1
REM
REM in /home/nfs/bkarasulu/CARBON/AIRSS/Generating-Clusters/ReaxFF-fromJPCA2015/Units_Real/Try2-Higher-symm/Only-C60
REM
REM
REM
REM
REM
REM ./C.cell (863b2abdce7293c0672fb3ba77bf323a)
REM AIRSS Version 0.9.1 bugfix July 2018 build 013d7b7c2542+ Fri, 06 Jul 2018 19:26:36 +0100
REM compiler GCC version 9.2.1 20190827 (Red Hat 9.2.1-1)
REM options -cpp -mtune=generic -march=x86-64 -g -O0 -fpre-include=/usr/include/finclude/math-vector-fortran.h
REM seed -2135835286 -540816453 1003279381 202838750 1301693621 381729145 1076818256 1379169397 1012403905 -1126838862 1127076586 1877844957 698299461 1935363361 915781700 -931653039 234640493 1510230689 -522244554 451406794 2054135506 728932064 -195703490 1120771915 -2137377724 -990122057 836798760 -6756915 -873634341 132574262 1066946216 1868586223 -1512825528
REM
CELL 1.54180   15.00000   15.00000   15.00000   90.00000   90.00000   90.00000
LATT -1
SFAC C  
C      1  0.6211910000000  0.7342320000000  0.6073440000000 1.0
C      1  0.5159320000000  0.7502270000000  0.3915520000000 1.0
C      1  0.3333030000000  0.6950220000000  0.6278850000000 1.0
C      1  0.2610490000000  0.6080690000000  0.4051910000000 1.0
C      1  0.2574380000000  0.3920160000000  0.6152060000000 1.0
C      1  0.3790060000000  0.2642660000000  0.3921580000000 1.0
C      1  0.4823960000000  0.2506890000000  0.6084690000000 1.0
C      1  0.6653220000000  0.3057890000000  0.3717350000000 1.0
C      1  0.7459740000000  0.3913930000000  0.5936280000000 1.0
C      1  0.7429880000000  0.6075170000000  0.3851840000000 1.0
C      1  0.3344810000000  0.7227740000000  0.5362380000000 1.0
C      1  0.2221950000000  0.5922490000000  0.4973420000000 1.0
C      1  0.2422430000000  0.4191530000000  0.5249300000000 1.0
C      1  0.3561910000000  0.3061190000000  0.4753110000000 1.0
C      1  0.4978220000000  0.2577810000000  0.5191380000000 1.0
C      1  0.6646160000000  0.2783670000000  0.4636160000000 1.0
C      1  0.7796740000000  0.4056620000000  0.4993930000000 1.0
C      1  0.7574340000000  0.5789810000000  0.4750260000000 1.0
C      1  0.6429270000000  0.6911000000000  0.5250210000000 1.0
C      1  0.5018840000000  0.7429350000000  0.4802260000000 1.0
C      1  0.4784070000000  0.5672430000000  0.6149000000000 1.0
C      1  0.4535000000000  0.5741690000000  0.3597380000000 1.0
C      1  0.4117810000000  0.4988790000000  0.6073560000000 1.0
C      1  0.4334200000000  0.4773840000000  0.3691540000000 1.0
C      1  0.4487690000000  0.4080080000000  0.6206010000000 1.0
C      1  0.5189660000000  0.4346570000000  0.3827840000000 1.0
C      1  0.5432610000000  0.4295220000000  0.6410310000000 1.0
C      1  0.5864350000000  0.5025000000000  0.3919970000000 1.0
C      1  0.5634060000000  0.5218930000000  0.6293310000000 1.0
C      1  0.5521540000000  0.5930640000000  0.3797110000000 1.0
C      1  0.6951230000000  0.6119030000000  0.5438280000000 1.0
C      1  0.5686590000000  0.6836460000000  0.4480360000000 1.0
C      1  0.4325100000000  0.7148010000000  0.5366630000000 1.0
C      1  0.2682930000000  0.6751180000000  0.4820360000000 1.0
C      1  0.2436250000000  0.5134850000000  0.5518840000000 1.0
C      1  0.3031700000000  0.3843380000000  0.4565630000000 1.0
C      1  0.4309820000000  0.3163930000000  0.5505510000000 1.0
C      1  0.5667020000000  0.2886120000000  0.4638830000000 1.0
C      1  0.7325370000000  0.3241430000000  0.5169040000000 1.0
C      1  0.7560370000000  0.4852530000000  0.4469410000000 1.0
C      1  0.6858620000000  0.6277030000000  0.3263180000000 1.0
C      1  0.5502530000000  0.7106990000000  0.6258850000000 1.0
C      1  0.4525370000000  0.7105120000000  0.3378660000000 1.0
C      1  0.3192350000000  0.6124080000000  0.6374100000000 1.0
C      1  0.3032340000000  0.5286520000000  0.3875940000000 1.0
C      1  0.3150640000000  0.3722110000000  0.6738520000000 1.0
C      1  0.4493340000000  0.2895520000000  0.3739520000000 1.0
C      1  0.5431370000000  0.2926060000000  0.6631280000000 1.0
C      1  0.6788410000000  0.3880920000000  0.3627060000000 1.0
C      1  0.7041250000000  0.4696920000000  0.6101320000000 1.0
C      1  0.3391840000000  0.4452770000000  0.3846570000000 1.0
C      1  0.3958320000000  0.3696580000000  0.7143200000000 1.0
C      1  0.5346130000000  0.3341700000000  0.3803140000000 1.0
C      1  0.6001710000000  0.3575110000000  0.6991520000000 1.0
C      1  0.6842710000000  0.4799230000000  0.3759430000000 1.0
C      1  0.6616300000000  0.5499580000000  0.6143910000000 1.0
C      1  0.6037340000000  0.6293740000000  0.2864160000000 1.0
C      1  0.4642110000000  0.6677500000000  0.6194000000000 1.0
C      1  0.4089640000000  0.6443920000000  0.3141750000000 1.0
C      1  0.3139670000000  0.5205080000000  0.6239040000000 1.0
END
