TITL C-1525613-7943-5467 -0.00127401152719453 3375 -9213.68468711744 0 0 60 (C2v) n - 1
REM
REM in /home/nfs/bkarasulu/CARBON/AIRSS/Generating-Clusters/ReaxFF-fromJPCA2015/Units_Real/Try2-Higher-symm/Only-C60
REM
REM
REM
REM
REM
REM ./C.cell (863b2abdce7293c0672fb3ba77bf323a)
REM AIRSS Version 0.9.1 bugfix July 2018 build 013d7b7c2542+ Fri, 06 Jul 2018 19:26:36 +0100
REM compiler GCC version 9.2.1 20190827 (Red Hat 9.2.1-1)
REM options -cpp -mtune=generic -march=x86-64 -g -O0 -fpre-include=/usr/include/finclude/math-vector-fortran.h
REM seed 686180244 711838642 -513011833 2004342043 271256946 -1992746555 -2064629572 -933499526 -114802466 37477603 -1026863494 -1661700820 147328891 443737363 1008088216 1108261929 1159911783 221054216 -1263698031 1425340291 1992347777 1459973085 -1607877897 1295097200 857340794 -831056929 952339525 -1157669030 1189317277 1325309046 -225483787 -1867684042 822722718
REM
CELL 1.54180   15.00000   15.00000   15.00000   90.00000   90.00000   90.00000
LATT -1
SFAC C  
C      1  0.7300990000000  0.4575980000000  0.6892830000000 1.0
C      1  0.5608830000000  0.4585010000000  0.7723850000000 1.0
C      1  0.3856070000000  0.4805770000000  0.7979550000000 1.0
C      1  0.2724780000000  0.4584980000000  0.6616420000000 1.0
C      1  0.2023310000000  0.4576020000000  0.4866500000000 1.0
C      1  0.2699010000000  0.4576030000000  0.3107160000000 1.0
C      1  0.4391170000000  0.4585090000000  0.2276140000000 1.0
C      1  0.6143930000000  0.4805870000000  0.2020440000000 1.0
C      1  0.7275220000000  0.4585030000000  0.3383570000000 1.0
C      1  0.7976690000000  0.4576020000000  0.5133490000000 1.0
C      1  0.7579820000000  0.3740290000000  0.5427550000000 1.0
C      1  0.7203090000000  0.3740220000000  0.6408750000000 1.0
C      1  0.5076490000000  0.3901750000000  0.7278540000000 1.0
C      1  0.4082340000000  0.4060030000000  0.7390180000000 1.0
C      1  0.3418340000000  0.3901710000000  0.6641900000000 1.0
C      1  0.2420180000000  0.3740300000000  0.4572410000000 1.0
C      1  0.2796910000000  0.3740260000000  0.3591210000000 1.0
C      1  0.4923510000000  0.3901820000000  0.2721430000000 1.0
C      1  0.5917660000000  0.4060100000000  0.2609800000000 1.0
C      1  0.6581660000000  0.3901760000000  0.3358060000000 1.0
C      1  0.5993360000000  0.6496030000000  0.3767870000000 1.0
C      1  0.6506690000000  0.6429720000000  0.4588930000000 1.0
C      1  0.6453560000000  0.6411290000000  0.5558130000000 1.0
C      1  0.5844400000000  0.6429720000000  0.6313840000000 1.0
C      1  0.4913490000000  0.6496010000000  0.6580390000000 1.0
C      1  0.4006630000000  0.6495990000000  0.6232180000000 1.0
C      1  0.3493310000000  0.6429710000000  0.5411120000000 1.0
C      1  0.3546430000000  0.6411300000000  0.4441920000000 1.0
C      1  0.4155600000000  0.6429760000000  0.3686200000000 1.0
C      1  0.5086510000000  0.6496060000000  0.3419660000000 1.0
C      1  0.3459560000000  0.6078210000000  0.6914180000000 1.0
C      1  0.2677460000000  0.5963550000000  0.5639300000000 1.0
C      1  0.2763530000000  0.5932760000000  0.4141320000000 1.0
C      1  0.3702130000000  0.5963630000000  0.2970620000000 1.0
C      1  0.5136420000000  0.6078330000000  0.2546750000000 1.0
C      1  0.6540440000000  0.6078270000000  0.3085850000000 1.0
C      1  0.7322540000000  0.5963570000000  0.4360730000000 1.0
C      1  0.7236470000000  0.5932730000000  0.5858700000000 1.0
C      1  0.6297870000000  0.5963570000000  0.7029410000000 1.0
C      1  0.4863580000000  0.6078250000000  0.7453290000000 1.0
C      1  0.4594970000000  0.3474640000000  0.3594910000000 1.0
C      1  0.5383070000000  0.3437420000000  0.4002180000000 1.0
C      1  0.6241250000000  0.3474570000000  0.4226970000000 1.0
C      1  0.6682620000000  0.3415710000000  0.5137050000000 1.0
C      1  0.6342030000000  0.3415630000000  0.6024150000000 1.0
C      1  0.5405040000000  0.3474600000000  0.6405040000000 1.0
C      1  0.4616930000000  0.3437390000000  0.5997780000000 1.0
C      1  0.3758750000000  0.3474550000000  0.5772980000000 1.0
C      1  0.3317380000000  0.3415710000000  0.4862900000000 1.0
C      1  0.3657970000000  0.3415660000000  0.3975800000000 1.0
C      1  0.7139850000000  0.5551720000000  0.6753820000000 1.0
C      1  0.5678330000000  0.5580890000000  0.7679030000000 1.0
C      1  0.3971260000000  0.5765480000000  0.7679410000000 1.0
C      1  0.2703100000000  0.5580850000000  0.6536610000000 1.0
C      1  0.2236220000000  0.5551740000000  0.4871040000000 1.0
C      1  0.2860140000000  0.5551770000000  0.3246200000000 1.0
C      1  0.4321670000000  0.5580970000000  0.2320980000000 1.0
C      1  0.6028740000000  0.5765570000000  0.2320610000000 1.0
C      1  0.7296900000000  0.5580900000000  0.3463400000000 1.0
C      1  0.7763780000000  0.5551730000000  0.5128970000000 1.0
END
