TITL C-1525613-7943-4221 -0.0278483179882363 3375 -8379.58233718351 0 0 60 (Ci) n - 1
REM
REM in /home/nfs/bkarasulu/CARBON/AIRSS/Generating-Clusters/ReaxFF-fromJPCA2015/Units_Real/Try2-Higher-symm/Only-C60
REM
REM
REM
REM
REM
REM ./C.cell (863b2abdce7293c0672fb3ba77bf323a)
REM AIRSS Version 0.9.1 bugfix July 2018 build 013d7b7c2542+ Fri, 06 Jul 2018 19:26:36 +0100
REM compiler GCC version 9.2.1 20190827 (Red Hat 9.2.1-1)
REM options -cpp -mtune=generic -march=x86-64 -g -O0 -fpre-include=/usr/include/finclude/math-vector-fortran.h
REM seed -575681439 110215558 2054017427 -1136129521 1795358234 1332091010 -1367189754 596679710 -215135786 1893546152 -2006204971 1483970802 -2119764536 1057708192 2116575296 -1473789308 545214154 140566918 -1992720350 708087854 -1169298046 1665512108 2021528146 1471997832 1623757675 150507665 1603209008 -623614447 -396539078 -1585450749 1544303184 -374474258 -1418968764
REM
CELL 1.54180   15.00000   15.00000   15.00000   90.00000   90.00000   90.00000
LATT -1
SFAC C  
C      1  0.3604180000000  0.7108070000000  0.4771130000000 1.0
C      1  0.6426350000000  0.6590860000000  0.3594030000000 1.0
C      1  0.3653960000000  0.5235380000000  0.2866480000000 1.0
C      1  0.6313710000000  0.3890940000000  0.3140050000000 1.0
C      1  0.3609920000000  0.3177530000000  0.3932590000000 1.0
C      1  0.6395830000000  0.2891920000000  0.5228870000000 1.0
C      1  0.3573610000000  0.3409100000000  0.6405940000000 1.0
C      1  0.6346030000000  0.4764630000000  0.7133510000000 1.0
C      1  0.3686300000000  0.6109060000000  0.6859950000000 1.0
C      1  0.6390080000000  0.6822480000000  0.6067400000000 1.0
C      1  0.5799030000000  0.4382340000000  0.5636930000000 1.0
C      1  0.4211080000000  0.4901520000000  0.5902720000000 1.0
C      1  0.5734520000000  0.5421700000000  0.5791710000000 1.0
C      1  0.4249830000000  0.5835490000000  0.5418360000000 1.0
C      1  0.5705670000000  0.5871420000000  0.4865710000000 1.0
C      1  0.4200970000000  0.5617670000000  0.4363060000000 1.0
C      1  0.5788930000000  0.5098470000000  0.4097350000000 1.0
C      1  0.4265470000000  0.4578310000000  0.4208310000000 1.0
C      1  0.5750170000000  0.4164500000000  0.4581660000000 1.0
C      1  0.4294320000000  0.4128590000000  0.5134300000000 1.0
C      1  0.3271480000000  0.6393150000000  0.5401560000000 1.0
C      1  0.6679360000000  0.6372950000000  0.4565300000000 1.0
C      1  0.3251910000000  0.5714540000000  0.4080740000000 1.0
C      1  0.6787750000000  0.5022840000000  0.3804490000000 1.0
C      1  0.3247810000000  0.4116660000000  0.3938520000000 1.0
C      1  0.6728510000000  0.3606860000000  0.4598440000000 1.0
C      1  0.3320670000000  0.3627050000000  0.5434710000000 1.0
C      1  0.6748080000000  0.4285460000000  0.5919260000000 1.0
C      1  0.3212260000000  0.4977150000000  0.6195490000000 1.0
C      1  0.6752180000000  0.5883340000000  0.6061470000000 1.0
C      1  0.4625170000000  0.6266440000000  0.6911140000000 1.0
C      1  0.5483910000000  0.7033390000000  0.5769830000000 1.0
C      1  0.4513830000000  0.7093070000000  0.4412870000000 1.0
C      1  0.5510840000000  0.6379350000000  0.3296860000000 1.0
C      1  0.4589510000000  0.5101370000000  0.2718310000000 1.0
C      1  0.5374850000000  0.3733560000000  0.3088860000000 1.0
C      1  0.4516100000000  0.2966610000000  0.4230160000000 1.0
C      1  0.5486170000000  0.2906930000000  0.5587140000000 1.0
C      1  0.4489140000000  0.3620710000000  0.6703140000000 1.0
C      1  0.5410440000000  0.4898610000000  0.7281670000000 1.0
C      1  0.7030610000000  0.4985290000000  0.6538290000000 1.0
C      1  0.2964910000000  0.5921080000000  0.6301670000000 1.0
C      1  0.7041820000000  0.6539780000000  0.5441810000000 1.0
C      1  0.2940200000000  0.6471290000000  0.4513110000000 1.0
C      1  0.7098820000000  0.5925320000000  0.3724260000000 1.0
C      1  0.2969400000000  0.5014700000000  0.3461710000000 1.0
C      1  0.7035070000000  0.4078930000000  0.3698330000000 1.0
C      1  0.2958180000000  0.3460210000000  0.4558180000000 1.0
C      1  0.7059790000000  0.3528710000000  0.5486900000000 1.0
C      1  0.2901200000000  0.4074680000000  0.6275760000000 1.0
C      1  0.4578770000000  0.4311950000000  0.3282300000000 1.0
C      1  0.5365650000000  0.3420770000000  0.4011900000000 1.0
C      1  0.4621910000000  0.3179430000000  0.5163420000000 1.0
C      1  0.5381580000000  0.3602320000000  0.6239590000000 1.0
C      1  0.4571640000000  0.4567980000000  0.6822120000000 1.0
C      1  0.5421220000000  0.5688030000000  0.6717690000000 1.0
C      1  0.4634360000000  0.6579240000000  0.5988090000000 1.0
C      1  0.5378100000000  0.6820550000000  0.4836560000000 1.0
C      1  0.4618400000000  0.6397680000000  0.3760420000000 1.0
C      1  0.5428420000000  0.5432040000000  0.3177830000000 1.0
END
