TITL C-1525613-7943-827 0.0840294952632428 3375 -8263.52951740949 0 0 60 (C1) n - 1
REM
REM in /home/nfs/bkarasulu/CARBON/AIRSS/Generating-Clusters/ReaxFF-fromJPCA2015/Units_Real/Try2-Higher-symm/Only-C60
REM
REM
REM
REM
REM
REM ./C.cell (863b2abdce7293c0672fb3ba77bf323a)
REM AIRSS Version 0.9.1 bugfix July 2018 build 013d7b7c2542+ Fri, 06 Jul 2018 19:26:36 +0100
REM compiler GCC version 9.2.1 20190827 (Red Hat 9.2.1-1)
REM options -cpp -mtune=generic -march=x86-64 -g -O0 -fpre-include=/usr/include/finclude/math-vector-fortran.h
REM seed -764433680 -1539356512 540184630 -117773606 1458172853 1838533477 1173543742 1085883737 2041146513 852835178 2075962907 -2125401507 879171028 1838997871 -1465551368 -87499021 1000825122 1858793499 2061595507 2133024826 688252675 -1200339680 -1605480621 -1753941398 -54383126 -1116281514 -822689052 -214729781 -1540020303 -1307711638 -1602492489 997617521 547511109
REM
CELL 1.54180   15.00000   15.00000   15.00000   90.00000   90.00000   90.00000
LATT -1
SFAC C  
C      1  0.4732680000000  0.4148510000000  0.5309130000000 1.0
C      1  0.5967700000000  0.4504910000000  0.4071170000000 1.0
C      1  0.4232190000000  0.4598110000000  0.4626970000000 1.0
C      1  0.5833330000000  0.5500850000000  0.4041830000000 1.0
C      1  0.4377470000000  0.5575900000000  0.4934800000000 1.0
C      1  0.5361580000000  0.5724000000000  0.4870870000000 1.0
C      1  0.4025070000000  0.5467170000000  0.5960540000000 1.0
C      1  0.5904990000000  0.5229610000000  0.5507040000000 1.0
C      1  0.4164600000000  0.4312750000000  0.6145060000000 1.0
C      1  0.5700980000000  0.4300680000000  0.5192450000000 1.0
C      1  0.4739210000000  0.6447920000000  0.2918020000000 1.0
C      1  0.4176490000000  0.7342980000000  0.4115420000000 1.0
C      1  0.5363810000000  0.7568460000000  0.5726800000000 1.0
C      1  0.4431600000000  0.6101890000000  0.6621050000000 1.0
C      1  0.5549490000000  0.5097030000000  0.7752350000000 1.0
C      1  0.4562910000000  0.3880020000000  0.7006730000000 1.0
C      1  0.5515960000000  0.2291390000000  0.6280430000000 1.0
C      1  0.4831080000000  0.2266090000000  0.4260090000000 1.0
C      1  0.5502350000000  0.4000660000000  0.3253980000000 1.0
C      1  0.4304870000000  0.4991220000000  0.2210010000000 1.0
C      1  0.7362400000000  0.3731370000000  0.5728020000000 1.0
C      1  0.2808510000000  0.4026360000000  0.5238070000000 1.0
C      1  0.7166650000000  0.3663650000000  0.4779270000000 1.0
C      1  0.3127210000000  0.4840300000000  0.3781450000000 1.0
C      1  0.7400220000000  0.5224210000000  0.4115090000000 1.0
C      1  0.2908260000000  0.6227750000000  0.4027140000000 1.0
C      1  0.7241030000000  0.5898110000000  0.4801940000000 1.0
C      1  0.2910340000000  0.6243480000000  0.5005060000000 1.0
C      1  0.7381180000000  0.5300450000000  0.6351290000000 1.0
C      1  0.2629620000000  0.4757810000000  0.5827910000000 1.0
C      1  0.4138260000000  0.6222920000000  0.7965420000000 1.0
C      1  0.5763520000000  0.4350960000000  0.8228890000000 1.0
C      1  0.4380330000000  0.2999830000000  0.7281420000000 1.0
C      1  0.6026220000000  0.2485190000000  0.5529630000000 1.0
C      1  0.4556780000000  0.2585680000000  0.3548780000000 1.0
C      1  0.5733510000000  0.3983820000000  0.1880610000000 1.0
C      1  0.3858440000000  0.5470420000000  0.1631470000000 1.0
C      1  0.5350220000000  0.7026760000000  0.2703180000000 1.0
C      1  0.4200230000000  0.8130850000000  0.4633640000000 1.0
C      1  0.5543990000000  0.7450510000000  0.6619190000000 1.0
C      1  0.3772970000000  0.6447730000000  0.4528810000000 1.0
C      1  0.6794140000000  0.5656830000000  0.5660440000000 1.0
C      1  0.3063870000000  0.5626510000000  0.5735930000000 1.0
C      1  0.7465860000000  0.4552690000000  0.6174620000000 1.0
C      1  0.3233940000000  0.4070440000000  0.6037700000000 1.0
C      1  0.6416970000000  0.3474000000000  0.5429680000000 1.0
C      1  0.3340950000000  0.4195050000000  0.4422380000000 1.0
C      1  0.6966430000000  0.4352350000000  0.4131910000000 1.0
C      1  0.3078900000000  0.5613220000000  0.3288240000000 1.0
C      1  0.6710010000000  0.5920800000000  0.3990870000000 1.0
C      1  0.5457180000000  0.4214360000000  0.7348700000000 1.0
C      1  0.4924870000000  0.2540250000000  0.6872700000000 1.0
C      1  0.5351490000000  0.2240410000000  0.4953520000000 1.0
C      1  0.4983670000000  0.3271320000000  0.3336330000000 1.0
C      1  0.5266440000000  0.4472780000000  0.2377190000000 1.0
C      1  0.3851550000000  0.5841820000000  0.2559590000000 1.0
C      1  0.4984050000000  0.7131350000000  0.3580370000000 1.0
C      1  0.4717300000000  0.8001200000000  0.5193400000000 1.0
C      1  0.5171590000000  0.6661720000000  0.6347960000000 1.0
C      1  0.4682540000000  0.5744590000000  0.7547440000000 1.0
END
