TITL C-1525613-7943-4513 0.206931079631893 3375 -8820.37638590707 0 0 60 (C1) n - 1
REM
REM in /home/nfs/bkarasulu/CARBON/AIRSS/Generating-Clusters/ReaxFF-fromJPCA2015/Units_Real/Try2-Higher-symm/Only-C60
REM
REM
REM
REM
REM
REM ./C.cell (863b2abdce7293c0672fb3ba77bf323a)
REM AIRSS Version 0.9.1 bugfix July 2018 build 013d7b7c2542+ Fri, 06 Jul 2018 19:26:36 +0100
REM compiler GCC version 9.2.1 20190827 (Red Hat 9.2.1-1)
REM options -cpp -mtune=generic -march=x86-64 -g -O0 -fpre-include=/usr/include/finclude/math-vector-fortran.h
REM seed -1764571617 1679154370 -387992356 610588729 841404766 420018795 -1929741948 241116903 643981271 -1178836131 -2082349378 1606525066 709249587 -1950435902 1049134079 -1047850588 -1901714936 -368931230 297978155 2134565436 -519589034 -477956028 374986650 1051967842 1032856140 -1162909306 1845143674 -1783222527 -1439957912 860839680 468347573 1097774513 -995002937
REM
CELL 1.54180   15.00000   15.00000   15.00000   90.00000   90.00000   90.00000
LATT -1
SFAC C  
C      1  0.6387350000000  0.5027990000000  0.6583490000000 1.0
C      1  0.5408610000000  0.6352280000000  0.6609300000000 1.0
C      1  0.3827890000000  0.5807870000000  0.6618500000000 1.0
C      1  0.3886470000000  0.4143320000000  0.6599070000000 1.0
C      1  0.5433430000000  0.3730990000000  0.6506330000000 1.0
C      1  0.3615780000000  0.5027240000000  0.3419140000000 1.0
C      1  0.4591400000000  0.6352010000000  0.3391200000000 1.0
C      1  0.6172490000000  0.5806090000000  0.3380130000000 1.0
C      1  0.6111930000000  0.4144860000000  0.3402210000000 1.0
C      1  0.4560990000000  0.3733560000000  0.3485490000000 1.0
C      1  0.5342930000000  0.5727460000000  0.5839580000000 1.0
C      1  0.4403240000000  0.5573060000000  0.5842420000000 1.0
C      1  0.4266910000000  0.4631970000000  0.5822710000000 1.0
C      1  0.5129300000000  0.4210780000000  0.5668910000000 1.0
C      1  0.5799780000000  0.4899750000000  0.5791240000000 1.0
C      1  0.4656680000000  0.5726300000000  0.4161160000000 1.0
C      1  0.5596990000000  0.5572130000000  0.4158690000000 1.0
C      1  0.5726630000000  0.4629510000000  0.4178290000000 1.0
C      1  0.4865930000000  0.4196940000000  0.4333670000000 1.0
C      1  0.4202340000000  0.4897660000000  0.4209040000000 1.0
C      1  0.5530430000000  0.2786590000000  0.5465380000000 1.0
C      1  0.7163080000000  0.4828340000000  0.5448480000000 1.0
C      1  0.5844920000000  0.7052930000000  0.5467760000000 1.0
C      1  0.3339800000000  0.6415010000000  0.5465150000000 1.0
C      1  0.3099710000000  0.3824450000000  0.5475090000000 1.0
C      1  0.4488180000000  0.2832220000000  0.4545670000000 1.0
C      1  0.2834210000000  0.4828620000000  0.4551690000000 1.0
C      1  0.4153430000000  0.7054130000000  0.4533070000000 1.0
C      1  0.6659770000000  0.6412910000000  0.4534640000000 1.0
C      1  0.6898120000000  0.3824430000000  0.4525600000000 1.0
C      1  0.3363030000000  0.6414540000000  0.4499660000000 1.0
C      1  0.3140050000000  0.3869520000000  0.4505950000000 1.0
C      1  0.5493780000000  0.2857340000000  0.4492250000000 1.0
C      1  0.7147410000000  0.4812850000000  0.4486700000000 1.0
C      1  0.5838600000000  0.6999310000000  0.4494190000000 1.0
C      1  0.6634360000000  0.6413560000000  0.5500760000000 1.0
C      1  0.6862990000000  0.3866650000000  0.5496930000000 1.0
C      1  0.4507410000000  0.2861570000000  0.5505920000000 1.0
C      1  0.2848920000000  0.4815230000000  0.5513270000000 1.0
C      1  0.4159990000000  0.7000540000000  0.5507210000000 1.0
C      1  0.6206020000000  0.3354340000000  0.3989740000000 1.0
C      1  0.6944270000000  0.5646420000000  0.3970770000000 1.0
C      1  0.4980740000000  0.7040230000000  0.3981400000000 1.0
C      1  0.3063970000000  0.5610250000000  0.3988420000000 1.0
C      1  0.3835740000000  0.3345030000000  0.4007440000000 1.0
C      1  0.3797220000000  0.3354340000000  0.6008150000000 1.0
C      1  0.3056620000000  0.5648020000000  0.6028100000000 1.0
C      1  0.5018770000000  0.7041070000000  0.6018890000000 1.0
C      1  0.6938270000000  0.5610950000000  0.6013730000000 1.0
C      1  0.6162880000000  0.3348450000000  0.5985290000000 1.0
C      1  0.5825770000000  0.5048660000000  0.7384820000000 1.0
C      1  0.5207360000000  0.5808210000000  0.7400540000000 1.0
C      1  0.4293850000000  0.5456490000000  0.7406070000000 1.0
C      1  0.4350390000000  0.4478040000000  0.7396730000000 1.0
C      1  0.5291730000000  0.4229190000000  0.7342070000000 1.0
C      1  0.4173770000000  0.5049540000000  0.2615770000000 1.0
C      1  0.4791780000000  0.5807960000000  0.2598910000000 1.0
C      1  0.5706430000000  0.5455410000000  0.2592180000000 1.0
C      1  0.5651140000000  0.4477830000000  0.2602110000000 1.0
C      1  0.4708000000000  0.4227060000000  0.2652930000000 1.0
END
