TITL C-1525613-7943-2228 0.0377585114880915 3375 -9038.655880229 0 0 60 (C1) n - 1
REM
REM in /home/nfs/bkarasulu/CARBON/AIRSS/Generating-Clusters/ReaxFF-fromJPCA2015/Units_Real/Try2-Higher-symm/Only-C60
REM
REM
REM
REM
REM
REM ./C.cell (863b2abdce7293c0672fb3ba77bf323a)
REM AIRSS Version 0.9.1 bugfix July 2018 build 013d7b7c2542+ Fri, 06 Jul 2018 19:26:36 +0100
REM compiler GCC version 9.2.1 20190827 (Red Hat 9.2.1-1)
REM options -cpp -mtune=generic -march=x86-64 -g -O0 -fpre-include=/usr/include/finclude/math-vector-fortran.h
REM seed 1317784238 1151318418 479724305 1413165836 151671746 617381125 1853652720 -665778578 -1257079400 -1958238654 -1893696982 -551785325 -2001327933 1168378139 -1109197478 1710551374 1511102012 400604461 -822230431 -2022015912 -1550883225 -503358969 723733210 1151879344 330966900 -1916768522 -568099816 -1631513763 -1976164216 1443341404 1704615574 -1411496952 -308670387
REM
CELL 1.54180   15.00000   15.00000   15.00000   90.00000   90.00000   90.00000
LATT -1
SFAC C  
C      1  0.3147430000000  0.3739620000000  0.3455460000000 1.0
C      1  0.2937010000000  0.3701170000000  0.6240190000000 1.0
C      1  0.5452230000000  0.3688330000000  0.7391160000000 1.0
C      1  0.7213510000000  0.3977430000000  0.5354170000000 1.0
C      1  0.5870700000000  0.3967620000000  0.2929150000000 1.0
C      1  0.6645450000000  0.4038340000000  0.3542280000000 1.0
C      1  0.6998930000000  0.3790310000000  0.6290100000000 1.0
C      1  0.4471740000000  0.3716390000000  0.7348260000000 1.0
C      1  0.2604200000000  0.3728950000000  0.5329740000000 1.0
C      1  0.3983380000000  0.3943210000000  0.2982270000000 1.0
C      1  0.3303060000000  0.6272590000000  0.6514530000000 1.0
C      1  0.5915400000000  0.6236160000000  0.7242940000000 1.0
C      1  0.7625420000000  0.6507230000000  0.4676740000000 1.0
C      1  0.5452290000000  0.6410520000000  0.2199670000000 1.0
C      1  0.2529900000000  0.6225830000000  0.3829050000000 1.0
C      1  0.6864690000000  0.6288150000000  0.6918830000000 1.0
C      1  0.4167390000000  0.6251380000000  0.7006640000000 1.0
C      1  0.2423180000000  0.6320090000000  0.4835260000000 1.0
C      1  0.4517690000000  0.6476230000000  0.2473970000000 1.0
C      1  0.7751980000000  0.6398290000000  0.3717060000000 1.0
C      1  0.6528670000000  0.3316510000000  0.5066800000000 1.0
C      1  0.5448910000000  0.3302790000000  0.3534500000000 1.0
C      1  0.3635480000000  0.3151930000000  0.4086660000000 1.0
C      1  0.3686810000000  0.3115360000000  0.5971810000000 1.0
C      1  0.5475920000000  0.3113510000000  0.6575730000000 1.0
C      1  0.3354360000000  0.3160900000000  0.5022240000000 1.0
C      1  0.4480780000000  0.3340310000000  0.3591030000000 1.0
C      1  0.6226330000000  0.3378250000000  0.4151640000000 1.0
C      1  0.6281540000000  0.3166990000000  0.6023650000000 1.0
C      1  0.4487650000000  0.3146650000000  0.6526760000000 1.0
C      1  0.2460700000000  0.4399280000000  0.3744000000000 1.0
C      1  0.3109070000000  0.4502000000000  0.6852000000000 1.0
C      1  0.5960680000000  0.4524150000000  0.7449310000000 1.0
C      1  0.7372730000000  0.4797320000000  0.4829120000000 1.0
C      1  0.5379080000000  0.4705070000000  0.2512540000000 1.0
C      1  0.7205180000000  0.4770550000000  0.3872420000000 1.0
C      1  0.6878260000000  0.4460170000000  0.7039480000000 1.0
C      1  0.3992410000000  0.4567500000000  0.7337500000000 1.0
C      1  0.2276950000000  0.4502780000000  0.4759810000000 1.0
C      1  0.4417160000000  0.4754260000000  0.2633990000000 1.0
C      1  0.2296080000000  0.5399650000000  0.4970030000000 1.0
C      1  0.4511010000000  0.5396290000000  0.7361420000000 1.0
C      1  0.7002050000000  0.5368620000000  0.6968390000000 1.0
C      1  0.7589940000000  0.5511260000000  0.3348700000000 1.0
C      1  0.4039640000000  0.5654740000000  0.2689340000000 1.0
C      1  0.7498210000000  0.5692560000000  0.5199160000000 1.0
C      1  0.5477110000000  0.5371950000000  0.7452970000000 1.0
C      1  0.3059030000000  0.5377290000000  0.6616320000000 1.0
C      1  0.2465170000000  0.5308430000000  0.3597840000000 1.0
C      1  0.5846650000000  0.5523860000000  0.2242440000000 1.0
C      1  0.3446990000000  0.6665070000000  0.3922370000000 1.0
C      1  0.3819850000000  0.6672560000000  0.5716610000000 1.0
C      1  0.5599190000000  0.6710520000000  0.6432910000000 1.0
C      1  0.6811860000000  0.6404030000000  0.5225730000000 1.0
C      1  0.6190870000000  0.6238210000000  0.2827000000000 1.0
C      1  0.7154210000000  0.6285110000000  0.2938240000000 1.0
C      1  0.6505480000000  0.6753060000000  0.6074130000000 1.0
C      1  0.4623910000000  0.6718170000000  0.6277770000000 1.0
C      1  0.3340520000000  0.6759930000000  0.4887840000000 1.0
C      1  0.4187950000000  0.6334550000000  0.3392330000000 1.0
END
