TITL C-1525613-7943-7242 0.0798775392756184 3375 -9018.32749540057 0 0 60 (C1) n - 1
REM
REM in /home/nfs/bkarasulu/CARBON/AIRSS/Generating-Clusters/ReaxFF-fromJPCA2015/Units_Real/Try2-Higher-symm/Only-C60
REM
REM
REM
REM
REM
REM ./C.cell (863b2abdce7293c0672fb3ba77bf323a)
REM AIRSS Version 0.9.1 bugfix July 2018 build 013d7b7c2542+ Fri, 06 Jul 2018 19:26:36 +0100
REM compiler GCC version 9.2.1 20190827 (Red Hat 9.2.1-1)
REM options -cpp -mtune=generic -march=x86-64 -g -O0 -fpre-include=/usr/include/finclude/math-vector-fortran.h
REM seed -1413713067 -132471094 -1081002259 1894192683 -72621847 -497494697 -1493349769 -2077400144 1491627021 2003193852 -536665769 158400845 1228745119 1027547336 -1921776750 -1227422091 112976293 -1837906496 -13528178 -1984972247 253513183 -892541346 -232656505 1848447133 -1670314331 522942603 212171031 1707918474 -784834247 1688782058 -2003125229 -130785818 2026673820
REM
CELL 1.54180   15.00000   15.00000   15.00000   90.00000   90.00000   90.00000
LATT -1
SFAC C  
C      1  0.4135910000000  0.3260620000000  0.6438310000000 1.0
C      1  0.3372230000000  0.3256280000000  0.4567020000000 1.0
C      1  0.4889950000000  0.3212180000000  0.3314650000000 1.0
C      1  0.6541390000000  0.3187510000000  0.4341910000000 1.0
C      1  0.6127230000000  0.3176780000000  0.6222230000000 1.0
C      1  0.5864340000000  0.6739650000000  0.6438670000000 1.0
C      1  0.6628390000000  0.6743190000000  0.4567390000000 1.0
C      1  0.5111270000000  0.6785300000000  0.3315970000000 1.0
C      1  0.3458280000000  0.6812270000000  0.4342580000000 1.0
C      1  0.3872910000000  0.6823920000000  0.6222550000000 1.0
C      1  0.4658060000000  0.4297720000000  0.4344510000000 1.0
C      1  0.5571600000000  0.4317540000000  0.4482080000000 1.0
C      1  0.5760140000000  0.4327060000000  0.5403620000000 1.0
C      1  0.4910200000000  0.4314750000000  0.5848570000000 1.0
C      1  0.4241680000000  0.4295880000000  0.5175570000000 1.0
C      1  0.5343510000000  0.5703780000000  0.4343290000000 1.0
C      1  0.4429560000000  0.5678700000000  0.4483230000000 1.0
C      1  0.4237580000000  0.5673200000000  0.5405260000000 1.0
C      1  0.5089780000000  0.5687520000000  0.5849840000000 1.0
C      1  0.5757070000000  0.5706610000000  0.5176000000000 1.0
C      1  0.3320620000000  0.3760120000000  0.6258400000000 1.0
C      1  0.3289790000000  0.3872050000000  0.3828870000000 1.0
C      1  0.5553980000000  0.3836830000000  0.3005250000000 1.0
C      1  0.7076600000000  0.3777650000000  0.4892540000000 1.0
C      1  0.5803590000000  0.3798380000000  0.6913750000000 1.0
C      1  0.6680590000000  0.6241250000000  0.6257920000000 1.0
C      1  0.6710030000000  0.6127140000000  0.3829020000000 1.0
C      1  0.4444890000000  0.6162470000000  0.3006860000000 1.0
C      1  0.2923480000000  0.6221950000000  0.4893210000000 1.0
C      1  0.4195670000000  0.6200220000000  0.6914310000000 1.0
C      1  0.5810450000000  0.7266500000000  0.4778540000000 1.0
C      1  0.5452450000000  0.7260210000000  0.5685380000000 1.0
C      1  0.4477950000000  0.7314870000000  0.5626040000000 1.0
C      1  0.4227200000000  0.7325250000000  0.4673300000000 1.0
C      1  0.5054900000000  0.7307610000000  0.4151260000000 1.0
C      1  0.4189420000000  0.2733100000000  0.4778150000000 1.0
C      1  0.4547180000000  0.2739830000000  0.5685400000000 1.0
C      1  0.5521520000000  0.2686120000000  0.5625370000000 1.0
C      1  0.5772730000000  0.2674280000000  0.4673410000000 1.0
C      1  0.4945080000000  0.2691840000000  0.4151080000000 1.0
C      1  0.4820040000000  0.3912740000000  0.6733290000000 1.0
C      1  0.3286900000000  0.3987830000000  0.5261990000000 1.0
C      1  0.4247700000000  0.3999070000000  0.3439520000000 1.0
C      1  0.6240030000000  0.3992270000000  0.3790070000000 1.0
C      1  0.6581140000000  0.3893950000000  0.5746290000000 1.0
C      1  0.5178830000000  0.6088450000000  0.6736500000000 1.0
C      1  0.6712730000000  0.6011740000000  0.5262040000000 1.0
C      1  0.5752310000000  0.5998430000000  0.3442730000000 1.0
C      1  0.3761360000000  0.6008600000000  0.3789480000000 1.0
C      1  0.3417180000000  0.6109520000000  0.5747140000000 1.0
C      1  0.5068180000000  0.5476810000000  0.2764930000000 1.0
C      1  0.7121150000000  0.5436930000000  0.4344550000000 1.0
C      1  0.6441420000000  0.5519790000000  0.6807210000000 1.0
C      1  0.3819150000000  0.5311150000000  0.6929220000000 1.0
C      1  0.2904280000000  0.5510650000000  0.4224070000000 1.0
C      1  0.4931680000000  0.4523740000000  0.2764770000000 1.0
C      1  0.2879650000000  0.4562740000000  0.4344860000000 1.0
C      1  0.3558380000000  0.4481730000000  0.6807510000000 1.0
C      1  0.6181870000000  0.4687180000000  0.6930510000000 1.0
C      1  0.7096780000000  0.4488540000000  0.4221950000000 1.0
END
