TITL C-1525613-7943-3027 0.0488743086643564 3375 -8599.11376740031 0 0 60 (Cs) n - 1
REM
REM in /home/nfs/bkarasulu/CARBON/AIRSS/Generating-Clusters/ReaxFF-fromJPCA2015/Units_Real/Try2-Higher-symm/Only-C60
REM
REM
REM
REM
REM
REM ./C.cell (863b2abdce7293c0672fb3ba77bf323a)
REM AIRSS Version 0.9.1 bugfix July 2018 build 013d7b7c2542+ Fri, 06 Jul 2018 19:26:36 +0100
REM compiler GCC version 9.2.1 20190827 (Red Hat 9.2.1-1)
REM options -cpp -mtune=generic -march=x86-64 -g -O0 -fpre-include=/usr/include/finclude/math-vector-fortran.h
REM seed -244850345 -1533143138 -1750467503 -891534742 1286473144 1575637333 1449074765 2121892620 1637930447 1994197893 2111785445 1772464973 -280951807 -1296390309 1911843968 -1651134993 -577253102 -1627563419 158898720 -1397150700 -1373547204 -802186005 486199936 73996685 -270302707 -881076831 -1924578450 495389817 1112457551 -1779980881 1375305779 -1516250445 1985896381
REM
CELL 1.54180   15.00000   15.00000   15.00000   90.00000   90.00000   90.00000
LATT -1
SFAC C  
C      1  0.6669330000000  0.6978580000000  0.5673360000000 1.0
C      1  0.5032180000000  0.7000460000000  0.6957580000000 1.0
C      1  0.3132060000000  0.7111460000000  0.5295130000000 1.0
C      1  0.4150130000000  0.6992540000000  0.3301520000000 1.0
C      1  0.6105190000000  0.6962490000000  0.3669510000000 1.0
C      1  0.6668400000000  0.3020670000000  0.5672870000000 1.0
C      1  0.5032500000000  0.3002980000000  0.6965560000000 1.0
C      1  0.3131770000000  0.2890160000000  0.5290770000000 1.0
C      1  0.4144950000000  0.3016550000000  0.3305130000000 1.0
C      1  0.6104940000000  0.3037470000000  0.3668920000000 1.0
C      1  0.4855200000000  0.5547530000000  0.3231640000000 1.0
C      1  0.6557430000000  0.5563910000000  0.4272470000000 1.0
C      1  0.6164060000000  0.5566710000000  0.6238620000000 1.0
C      1  0.4091560000000  0.5899560000000  0.6748930000000 1.0
C      1  0.3364840000000  0.5538450000000  0.4584580000000 1.0
C      1  0.4852930000000  0.4455360000000  0.3231820000000 1.0
C      1  0.6559650000000  0.4436530000000  0.4271670000000 1.0
C      1  0.6164530000000  0.4432910000000  0.6238340000000 1.0
C      1  0.4086090000000  0.4094380000000  0.6744420000000 1.0
C      1  0.3379940000000  0.4444800000000  0.4617180000000 1.0
C      1  0.4161590000000  0.6107470000000  0.4651630000000 1.0
C      1  0.4952430000000  0.5801360000000  0.4199860000000 1.0
C      1  0.5709600000000  0.5732750000000  0.4670680000000 1.0
C      1  0.5665820000000  0.6056730000000  0.5520550000000 1.0
C      1  0.4064570000000  0.6498090000000  0.6064520000000 1.0
C      1  0.4175720000000  0.3882310000000  0.4654310000000 1.0
C      1  0.4958530000000  0.4197570000000  0.4197300000000 1.0
C      1  0.5713250000000  0.4267100000000  0.4669880000000 1.0
C      1  0.5665440000000  0.3943980000000  0.5520380000000 1.0
C      1  0.4070850000000  0.3497010000000  0.6067350000000 1.0
C      1  0.5697550000000  0.4520220000000  0.7127540000000 1.0
C      1  0.3271550000000  0.4522700000000  0.6427070000000 1.0
C      1  0.3308040000000  0.4516100000000  0.3615910000000 1.0
C      1  0.5810020000000  0.4517650000000  0.2886510000000 1.0
C      1  0.7237000000000  0.4524230000000  0.5035250000000 1.0
C      1  0.5697810000000  0.5481510000000  0.7127630000000 1.0
C      1  0.3272430000000  0.5477310000000  0.6436020000000 1.0
C      1  0.3320740000000  0.5490690000000  0.3594150000000 1.0
C      1  0.5811110000000  0.5482020000000  0.2886430000000 1.0
C      1  0.7236280000000  0.5475520000000  0.5034790000000 1.0
C      1  0.5654730000000  0.2935720000000  0.5364260000000 1.0
C      1  0.4783530000000  0.2836960000000  0.6022510000000 1.0
C      1  0.4041420000000  0.2915190000000  0.4834940000000 1.0
C      1  0.4564410000000  0.2532980000000  0.4068180000000 1.0
C      1  0.5493800000000  0.2670240000000  0.4342490000000 1.0
C      1  0.5653810000000  0.7065080000000  0.5364120000000 1.0
C      1  0.4783390000000  0.7164920000000  0.6017610000000 1.0
C      1  0.4040470000000  0.7072490000000  0.4833910000000 1.0
C      1  0.4563840000000  0.7466550000000  0.4071170000000 1.0
C      1  0.5495200000000  0.7330970000000  0.4343370000000 1.0
C      1  0.4925970000000  0.3952020000000  0.7277030000000 1.0
C      1  0.3137710000000  0.3836840000000  0.5611810000000 1.0
C      1  0.3951320000000  0.3956160000000  0.3111860000000 1.0
C      1  0.6403200000000  0.3937570000000  0.3380580000000 1.0
C      1  0.7010330000000  0.3924980000000  0.5798140000000 1.0
C      1  0.4925570000000  0.6049820000000  0.7274710000000 1.0
C      1  0.3151560000000  0.6175040000000  0.5638910000000 1.0
C      1  0.3957230000000  0.6052800000000  0.3097670000000 1.0
C      1  0.6403770000000  0.6062510000000  0.3381300000000 1.0
C      1  0.7010700000000  0.6075320000000  0.5797660000000 1.0
END
