TITL C-1525613-7943-2018 -0.0598069979446788 3375 -9038.69289580212 0 0 60 (Cs) n - 1
REM
REM in /home/nfs/bkarasulu/CARBON/AIRSS/Generating-Clusters/ReaxFF-fromJPCA2015/Units_Real/Try2-Higher-symm/Only-C60
REM
REM
REM
REM
REM
REM ./C.cell (863b2abdce7293c0672fb3ba77bf323a)
REM AIRSS Version 0.9.1 bugfix July 2018 build 013d7b7c2542+ Fri, 06 Jul 2018 19:26:36 +0100
REM compiler GCC version 9.2.1 20190827 (Red Hat 9.2.1-1)
REM options -cpp -mtune=generic -march=x86-64 -g -O0 -fpre-include=/usr/include/finclude/math-vector-fortran.h
REM seed 82518315 2063267962 -1700091752 1131648909 2046224943 -1570077451 1355428818 -460691095 550733589 1588253531 -742287007 -1225533447 -404395870 -433845242 -1080683705 529458109 2031985493 -709552036 692692848 -15959979 2096403196 1906595316 -386565907 -161991971 -61595150 -644791735 -1458922400 -223875769 1608950117 -993038880 950587930 1302124970 -1077804269
REM
CELL 1.54180   15.00000   15.00000   15.00000   90.00000   90.00000   90.00000
LATT -1
SFAC C  
C      1  0.6197190000000  0.3946780000000  0.6900390000000 1.0
C      1  0.5893340000000  0.6616670000000  0.6786160000000 1.0
C      1  0.4294880000000  0.6474220000000  0.6915290000000 1.0
C      1  0.3483740000000  0.4913930000000  0.6952970000000 1.0
C      1  0.4538360000000  0.3493550000000  0.6995640000000 1.0
C      1  0.6197190000000  0.3946780000000  0.3099610000000 1.0
C      1  0.5893340000000  0.6616670000000  0.3213840000000 1.0
C      1  0.4294880000000  0.6474220000000  0.3084710000000 1.0
C      1  0.3483740000000  0.4913930000000  0.3047030000000 1.0
C      1  0.4538360000000  0.3493550000000  0.3004360000000 1.0
C      1  0.5289140000000  0.4278260000000  0.1893360000000 1.0
C      1  0.5729040000000  0.5118840000000  0.2166640000000 1.0
C      1  0.5185670000000  0.5905660000000  0.1963190000000 1.0
C      1  0.4301760000000  0.5521440000000  0.1849180000000 1.0
C      1  0.4352760000000  0.4538770000000  0.1819770000000 1.0
C      1  0.5289140000000  0.4278250000000  0.8106640000000 1.0
C      1  0.5729040000000  0.5118840000000  0.7833360000000 1.0
C      1  0.5185670000000  0.5905660000000  0.8036810000000 1.0
C      1  0.4301760000000  0.5521440000000  0.8150830000000 1.0
C      1  0.4352760000000  0.4538770000000  0.8180230000000 1.0
C      1  0.2703730000000  0.5065750000000  0.4582260000000 1.0
C      1  0.4140460000000  0.2752670000000  0.4577240000000 1.0
C      1  0.6839760000000  0.3123700000000  0.4575500000000 1.0
C      1  0.6864880000000  0.6628120000000  0.4625660000000 1.0
C      1  0.4321430000000  0.7227580000000  0.4614180000000 1.0
C      1  0.2703730000000  0.5065750000000  0.5417740000000 1.0
C      1  0.4140460000000  0.2752670000000  0.5422760000000 1.0
C      1  0.6839760000000  0.3123700000000  0.5424500000000 1.0
C      1  0.6864880000000  0.6628120000000  0.5374340000000 1.0
C      1  0.4321430000000  0.7227580000000  0.5385820000000 1.0
C      1  0.5880760000000  0.5364300000000  0.3949440000000 1.0
C      1  0.4933350000000  0.5710450000000  0.4486700000000 1.0
C      1  0.4334350000000  0.4900350000000  0.4502370000000 1.0
C      1  0.4960980000000  0.4084870000000  0.4499800000000 1.0
C      1  0.6034330000000  0.4518530000000  0.4501810000000 1.0
C      1  0.5880760000000  0.5364300000000  0.6050560000000 1.0
C      1  0.4933350000000  0.5710450000000  0.5513300000000 1.0
C      1  0.4334350000000  0.4900350000000  0.5497630000000 1.0
C      1  0.4960980000000  0.4084870000000  0.5500200000000 1.0
C      1  0.6034330000000  0.4518530000000  0.5498190000000 1.0
C      1  0.5414920000000  0.3614760000000  0.7406130000000 1.0
C      1  0.6038810000000  0.4903770000000  0.6932830000000 1.0
C      1  0.5166270000000  0.6651280000000  0.7375510000000 1.0
C      1  0.3793470000000  0.5763710000000  0.7349790000000 1.0
C      1  0.3932420000000  0.4156560000000  0.7380830000000 1.0
C      1  0.5414920000000  0.3614760000000  0.2593870000000 1.0
C      1  0.6038810000000  0.4903770000000  0.3067170000000 1.0
C      1  0.5166270000000  0.6651280000000  0.2624490000000 1.0
C      1  0.3793470000000  0.5763710000000  0.2650210000000 1.0
C      1  0.3932420000000  0.4156560000000  0.2619170000000 1.0
C      1  0.4440400000000  0.6488400000000  0.5948560000000 1.0
C      1  0.3386010000000  0.4903930000000  0.5977910000000 1.0
C      1  0.4567790000000  0.3305630000000  0.6021330000000 1.0
C      1  0.6524290000000  0.3780150000000  0.5986180000000 1.0
C      1  0.6455700000000  0.6247380000000  0.6196550000000 1.0
C      1  0.4440400000000  0.6488400000000  0.4051440000000 1.0
C      1  0.3386010000000  0.4903930000000  0.4022090000000 1.0
C      1  0.4567790000000  0.3305630000000  0.3978670000000 1.0
C      1  0.6524290000000  0.3780150000000  0.4013820000000 1.0
C      1  0.6455700000000  0.6247380000000  0.3803450000000 1.0
END
