TITL C-1525613-7943-6490 0.0514244567622323 3375 -8701.827998243 0 0 60 (C2) n - 1
REM
REM in /home/nfs/bkarasulu/CARBON/AIRSS/Generating-Clusters/ReaxFF-fromJPCA2015/Units_Real/Try2-Higher-symm/Only-C60
REM
REM
REM
REM
REM
REM ./C.cell (863b2abdce7293c0672fb3ba77bf323a)
REM AIRSS Version 0.9.1 bugfix July 2018 build 013d7b7c2542+ Fri, 06 Jul 2018 19:26:36 +0100
REM compiler GCC version 9.2.1 20190827 (Red Hat 9.2.1-1)
REM options -cpp -mtune=generic -march=x86-64 -g -O0 -fpre-include=/usr/include/finclude/math-vector-fortran.h
REM seed -736343070 -335405459 -2127703788 -1299947856 1356684368 60751128 -2135429737 774110080 1859104916 32921731 247466549 -121516034 -2029559484 1458086958 1735472845 -2076781282 -1446070652 1668425582 1900619843 1443946670 -1311838180 -297956847 -562427177 -1684491854 -1769065044 -1871423987 -518042665 1646246261 -1809355771 -1261894374 -2109073805 1247807857 227758462
REM
CELL 1.54180   15.00000   15.00000   15.00000   90.00000   90.00000   90.00000
LATT -1
SFAC C  
C      1  0.4392990000000  0.5704120000000  0.4572920000000 1.0
C      1  0.4359300000000  0.4754880000000  0.4227890000000 1.0
C      1  0.4500180000000  0.4139550000000  0.5010850000000 1.0
C      1  0.4598720000000  0.4673210000000  0.5799820000000 1.0
C      1  0.4534050000000  0.5616200000000  0.5555910000000 1.0
C      1  0.5604010000000  0.5702890000000  0.5426300000000 1.0
C      1  0.5640400000000  0.4755480000000  0.5770980000000 1.0
C      1  0.5500810000000  0.4140100000000  0.4988680000000 1.0
C      1  0.5401470000000  0.4673130000000  0.4200780000000 1.0
C      1  0.5468120000000  0.5615710000000  0.4444960000000 1.0
C      1  0.2987700000000  0.3678700000000  0.3943760000000 1.0
C      1  0.3192120000000  0.3810640000000  0.5791220000000 1.0
C      1  0.3119430000000  0.5531770000000  0.6016030000000 1.0
C      1  0.2913200000000  0.6340800000000  0.4597090000000 1.0
C      1  0.2637630000000  0.5378970000000  0.3692130000000 1.0
C      1  0.7012270000000  0.3679150000000  0.6056280000000 1.0
C      1  0.6807480000000  0.3811160000000  0.4208960000000 1.0
C      1  0.6880330000000  0.5531270000000  0.3982850000000 1.0
C      1  0.7086620000000  0.6340650000000  0.5403250000000 1.0
C      1  0.7362920000000  0.5379110000000  0.6308030000000 1.0
C      1  0.6919180000000  0.6400780000000  0.4478270000000 1.0
C      1  0.6798270000000  0.4726260000000  0.3610050000000 1.0
C      1  0.7002650000000  0.3780450000000  0.5097290000000 1.0
C      1  0.7338120000000  0.4540180000000  0.6209570000000 1.0
C      1  0.6998920000000  0.6256140000000  0.6340800000000 1.0
C      1  0.3081470000000  0.6400210000000  0.5521890000000 1.0
C      1  0.3203250000000  0.4726300000000  0.6391280000000 1.0
C      1  0.2997340000000  0.3779920000000  0.4902870000000 1.0
C      1  0.2662360000000  0.4539890000000  0.3790270000000 1.0
C      1  0.3000700000000  0.6256230000000  0.3659520000000 1.0
C      1  0.4525130000000  0.7174740000000  0.4897180000000 1.0
C      1  0.4480690000000  0.5534530000000  0.2934960000000 1.0
C      1  0.4484740000000  0.3092630000000  0.3859460000000 1.0
C      1  0.4602420000000  0.3276530000000  0.6430380000000 1.0
C      1  0.4568130000000  0.5715800000000  0.6999990000000 1.0
C      1  0.5474690000000  0.7174430000000  0.5102600000000 1.0
C      1  0.5519500000000  0.5534260000000  0.7064970000000 1.0
C      1  0.5515150000000  0.3092890000000  0.6140700000000 1.0
C      1  0.5397010000000  0.3276630000000  0.3570420000000 1.0
C      1  0.5430570000000  0.5717120000000  0.2999970000000 1.0
C      1  0.4484710000000  0.3054730000000  0.4891910000000 1.0
C      1  0.4637280000000  0.4199360000000  0.6840840000000 1.0
C      1  0.4501630000000  0.6480300000000  0.6314700000000 1.0
C      1  0.4504440000000  0.6701030000000  0.3980860000000 1.0
C      1  0.4352710000000  0.4506360000000  0.3155010000000 1.0
C      1  0.5515360000000  0.3054960000000  0.5108620000000 1.0
C      1  0.5361170000000  0.4197200000000  0.3157980000000 1.0
C      1  0.5498370000000  0.6478830000000  0.3686600000000 1.0
C      1  0.5495580000000  0.6700060000000  0.6018760000000 1.0
C      1  0.5647000000000  0.4505850000000  0.6844290000000 1.0
C      1  0.3941260000000  0.6923660000000  0.5625290000000 1.0
C      1  0.3953680000000  0.6257100000000  0.3295840000000 1.0
C      1  0.3854100000000  0.3664980000000  0.3428260000000 1.0
C      1  0.3914550000000  0.3143620000000  0.5757170000000 1.0
C      1  0.3960820000000  0.4944770000000  0.6988450000000 1.0
C      1  0.6058760000000  0.6923770000000  0.4374720000000 1.0
C      1  0.6046400000000  0.6256480000000  0.6703660000000 1.0
C      1  0.6145960000000  0.3664510000000  0.6571810000000 1.0
C      1  0.6084700000000  0.3143810000000  0.4242960000000 1.0
C      1  0.6041510000000  0.4945240000000  0.3011140000000 1.0
END
