TITL C-1525613-7943-6878 0.0129800219490401 3375 -8860.41273861553 0 0 60 (C5) n - 1
REM
REM in /home/nfs/bkarasulu/CARBON/AIRSS/Generating-Clusters/ReaxFF-fromJPCA2015/Units_Real/Try2-Higher-symm/Only-C60
REM
REM
REM
REM
REM
REM ./C.cell (863b2abdce7293c0672fb3ba77bf323a)
REM AIRSS Version 0.9.1 bugfix July 2018 build 013d7b7c2542+ Fri, 06 Jul 2018 19:26:36 +0100
REM compiler GCC version 9.2.1 20190827 (Red Hat 9.2.1-1)
REM options -cpp -mtune=generic -march=x86-64 -g -O0 -fpre-include=/usr/include/finclude/math-vector-fortran.h
REM seed 2134974334 1093835192 -1281092695 -995313767 1612185224 -1673293801 -169588326 -409584972 -563071206 691409464 -966162491 624419440 -1634958748 1802692220 972770433 -124602371 -733456750 -1757854671 227857692 1563797950 -699785435 602745618 1486390455 1440351104 1054861230 345605429 -472702557 1759820853 804159810 -1255916250 2145327028 -203543794 825289653
REM
CELL 1.54180   15.00000   15.00000   15.00000   90.00000   90.00000   90.00000
LATT -1
SFAC C  
C      1  0.3066640000000  0.7105990000000  0.6230440000000 1.0
C      1  0.3067380000000  0.6821020000000  0.3377260000000 1.0
C      1  0.3067190000000  0.4019390000000  0.2766690000000 1.0
C      1  0.3067340000000  0.2572730000000  0.5242660000000 1.0
C      1  0.3068760000000  0.4481340000000  0.7383380000000 1.0
C      1  0.6933360000000  0.7105990000000  0.6230440000000 1.0
C      1  0.6932620000000  0.6821020000000  0.3377260000000 1.0
C      1  0.6932810000000  0.4019390000000  0.2766690000000 1.0
C      1  0.6932660000000  0.2572730000000  0.5242660000000 1.0
C      1  0.6931240000000  0.4481340000000  0.7383380000000 1.0
C      1  0.6489550000000  0.4229820000000  0.5236070000000 1.0
C      1  0.6489640000000  0.4986370000000  0.5805470000000 1.0
C      1  0.6490050000000  0.5762070000000  0.5261800000000 1.0
C      1  0.6490100000000  0.5483870000000  0.4356290000000 1.0
C      1  0.6489740000000  0.4537070000000  0.4340970000000 1.0
C      1  0.3510450000000  0.4229820000000  0.5236070000000 1.0
C      1  0.3510360000000  0.4986370000000  0.5805470000000 1.0
C      1  0.3509950000000  0.5762070000000  0.5261800000000 1.0
C      1  0.3509900000000  0.5483870000000  0.4356290000000 1.0
C      1  0.3510260000000  0.4537070000000  0.4340970000000 1.0
C      1  0.3819730000000  0.6102820000000  0.3542840000000 1.0
C      1  0.3819470000000  0.3954900000000  0.3500450000000 1.0
C      1  0.3819310000000  0.3250750000000  0.5530490000000 1.0
C      1  0.3819590000000  0.4965090000000  0.6826730000000 1.0
C      1  0.3818880000000  0.6727000000000  0.5598570000000 1.0
C      1  0.6180270000000  0.6102820000000  0.3542840000000 1.0
C      1  0.6180530000000  0.3954900000000  0.3500450000000 1.0
C      1  0.6180690000000  0.3250750000000  0.5530490000000 1.0
C      1  0.6180410000000  0.4965090000000  0.6826730000000 1.0
C      1  0.6181120000000  0.6727000000000  0.5598570000000 1.0
C      1  0.5461520000000  0.4159090000000  0.6752580000000 1.0
C      1  0.5461600000000  0.6408420000000  0.6341710000000 1.0
C      1  0.5461050000000  0.6710620000000  0.4076750000000 1.0
C      1  0.5461020000000  0.4649860000000  0.3087090000000 1.0
C      1  0.5461020000000  0.3072210000000  0.4741710000000 1.0
C      1  0.4538480000000  0.4159090000000  0.6752580000000 1.0
C      1  0.4538400000000  0.6408420000000  0.6341710000000 1.0
C      1  0.4538950000000  0.6710620000000  0.4076750000000 1.0
C      1  0.4538980000000  0.4649860000000  0.3087090000000 1.0
C      1  0.4538980000000  0.3072210000000  0.4741710000000 1.0
C      1  0.3209950000000  0.4929110000000  0.2431870000000 1.0
C      1  0.3209860000000  0.2535560000000  0.4274180000000 1.0
C      1  0.3211080000000  0.3548200000000  0.7119800000000 1.0
C      1  0.3209560000000  0.6566490000000  0.7035940000000 1.0
C      1  0.3210040000000  0.7420520000000  0.4139210000000 1.0
C      1  0.6790050000000  0.4929110000000  0.2431870000000 1.0
C      1  0.6790140000000  0.2535560000000  0.4274180000000 1.0
C      1  0.6788920000000  0.3548200000000  0.7119800000000 1.0
C      1  0.6790440000000  0.6566490000000  0.7035940000000 1.0
C      1  0.6789960000000  0.7420520000000  0.4139210000000 1.0
C      1  0.4009310000000  0.3392320000000  0.6509500000000 1.0
C      1  0.4009160000000  0.5939720000000  0.6994730000000 1.0
C      1  0.4008930000000  0.7187690000000  0.4723410000000 1.0
C      1  0.4009190000000  0.5412730000000  0.2833860000000 1.0
C      1  0.4009170000000  0.3067230000000  0.3937520000000 1.0
C      1  0.5990690000000  0.3392320000000  0.6509500000000 1.0
C      1  0.5990840000000  0.5939720000000  0.6994730000000 1.0
C      1  0.5991070000000  0.7187690000000  0.4723410000000 1.0
C      1  0.5990810000000  0.5412730000000  0.2833860000000 1.0
C      1  0.5990830000000  0.3067230000000  0.3937520000000 1.0
END
