TITL C-1525613-7943-4572 -0.000100799273897523 3375 -8913.84098822571 0 0 60 (D5) n - 1
REM
REM in /home/nfs/bkarasulu/CARBON/AIRSS/Generating-Clusters/ReaxFF-fromJPCA2015/Units_Real/Try2-Higher-symm/Only-C60
REM
REM
REM
REM
REM
REM ./C.cell (863b2abdce7293c0672fb3ba77bf323a)
REM AIRSS Version 0.9.1 bugfix July 2018 build 013d7b7c2542+ Fri, 06 Jul 2018 19:26:36 +0100
REM compiler GCC version 9.2.1 20190827 (Red Hat 9.2.1-1)
REM options -cpp -mtune=generic -march=x86-64 -g -O0 -fpre-include=/usr/include/finclude/math-vector-fortran.h
REM seed 1053298991 2143198110 12999839 215354643 -614539120 415324380 1961619204 -932204439 -1279896665 -190767982 -2005371814 1529976660 86900442 1179047937 2115284830 2108500832 2028368246 1589383215 -615835207 -436051660 275001461 1441008534 -1802882345 -692053631 907924438 88415584 -157617307 -1282976480 -140958783 -2035518852 215694437 2041527837 -944823370
REM
CELL 1.54180   15.00000   15.00000   15.00000   90.00000   90.00000   90.00000
LATT -1
SFAC C  
C      1  0.2855380000000  0.6209840000000  0.4989200000000 1.0
C      1  0.3186650000000  0.3334210000000  0.4989160000000 1.0
C      1  0.6023900000000  0.2760640000000  0.4988800000000 1.0
C      1  0.7446160000000  0.5281790000000  0.4988620000000 1.0
C      1  0.5487910000000  0.7413520000000  0.4988870000000 1.0
C      1  0.7144620000000  0.6209840000000  0.5010800000000 1.0
C      1  0.6813350000000  0.3334210000000  0.5010840000000 1.0
C      1  0.3976100000000  0.2760640000000  0.5011200000000 1.0
C      1  0.2553840000000  0.5281790000000  0.5011380000000 1.0
C      1  0.4512090000000  0.7413520000000  0.5011130000000 1.0
C      1  0.4371020000000  0.4498040000000  0.5642940000000 1.0
C      1  0.5283080000000  0.4246620000000  0.5642820000000 1.0
C      1  0.5804040000000  0.5036350000000  0.5642760000000 1.0
C      1  0.5213950000000  0.5775850000000  0.5642840000000 1.0
C      1  0.4328290000000  0.5443160000000  0.5642950000000 1.0
C      1  0.5628980000000  0.4498040000000  0.4357060000000 1.0
C      1  0.4716920000000  0.4246620000000  0.4357180000000 1.0
C      1  0.4195960000000  0.5036350000000  0.4357240000000 1.0
C      1  0.4786050000000  0.5775850000000  0.4357160000000 1.0
C      1  0.5671710000000  0.5443160000000  0.4357050000000 1.0
C      1  0.5593950000000  0.6606940000000  0.3461660000000 1.0
C      1  0.3655110000000  0.6061630000000  0.3461910000000 1.0
C      1  0.3574600000000  0.4049180000000  0.3461920000000 1.0
C      1  0.5463670000000  0.3350730000000  0.3461680000000 1.0
C      1  0.6711700000000  0.4931510000000  0.3461520000000 1.0
C      1  0.4406050000000  0.6606940000000  0.6538340000000 1.0
C      1  0.6344890000000  0.6061630000000  0.6538090000000 1.0
C      1  0.6425400000000  0.4049180000000  0.6538080000000 1.0
C      1  0.4536330000000  0.3350730000000  0.6538320000000 1.0
C      1  0.3288300000000  0.4931510000000  0.6538480000000 1.0
C      1  0.4490040000000  0.2691220000000  0.4197190000000 1.0
C      1  0.7038130000000  0.3801650000000  0.4196860000000 1.0
C      1  0.6769450000000  0.6568160000000  0.4196900000000 1.0
C      1  0.4055310000000  0.7167530000000  0.4197240000000 1.0
C      1  0.2646560000000  0.4771450000000  0.4197420000000 1.0
C      1  0.5509960000000  0.2691220000000  0.5802810000000 1.0
C      1  0.2961870000000  0.3801650000000  0.5803140000000 1.0
C      1  0.3230550000000  0.6568160000000  0.5803100000000 1.0
C      1  0.5944690000000  0.7167530000000  0.5802760000000 1.0
C      1  0.7353440000000  0.4771450000000  0.5802580000000 1.0
C      1  0.6207510000000  0.4052700000000  0.3604750000000 1.0
C      1  0.6273950000000  0.5855840000000  0.3604740000000 1.0
C      1  0.4579590000000  0.6476240000000  0.3604950000000 1.0
C      1  0.3465980000000  0.5056520000000  0.3605100000000 1.0
C      1  0.4472090000000  0.3558700000000  0.3604970000000 1.0
C      1  0.3792490000000  0.4052700000000  0.6395250000000 1.0
C      1  0.3726050000000  0.5855840000000  0.6395260000000 1.0
C      1  0.5420410000000  0.6476240000000  0.6395050000000 1.0
C      1  0.6534020000000  0.5056520000000  0.6394900000000 1.0
C      1  0.5527910000000  0.3558700000000  0.6395030000000 1.0
C      1  0.3274580000000  0.6590420000000  0.4157000000000 1.0
C      1  0.2954160000000  0.3850590000000  0.4157040000000 1.0
C      1  0.5460880000000  0.2699210000000  0.4156720000000 1.0
C      1  0.7330530000000  0.4727440000000  0.4156480000000 1.0
C      1  0.5979320000000  0.7132340000000  0.4156660000000 1.0
C      1  0.6725420000000  0.6590420000000  0.5843000000000 1.0
C      1  0.7045840000000  0.3850590000000  0.5842960000000 1.0
C      1  0.4539120000000  0.2699210000000  0.5843280000000 1.0
C      1  0.2669470000000  0.4727440000000  0.5843520000000 1.0
C      1  0.4020680000000  0.7132340000000  0.5843340000000 1.0
END
