TITL C-1525613-7943-771 0.133256728613285 3375 -8809.23547333523 0 0 60 (Ci) n - 1
REM
REM in /home/nfs/bkarasulu/CARBON/AIRSS/Generating-Clusters/ReaxFF-fromJPCA2015/Units_Real/Try2-Higher-symm/Only-C60
REM
REM
REM
REM
REM
REM ./C.cell (863b2abdce7293c0672fb3ba77bf323a)
REM AIRSS Version 0.9.1 bugfix July 2018 build 013d7b7c2542+ Fri, 06 Jul 2018 19:26:36 +0100
REM compiler GCC version 9.2.1 20190827 (Red Hat 9.2.1-1)
REM options -cpp -mtune=generic -march=x86-64 -g -O0 -fpre-include=/usr/include/finclude/math-vector-fortran.h
REM seed -1796356219 1975414575 931872550 -1760815012 -831695680 473934225 -1711897861 424985124 1921906883 1709774423 -1051667575 1885520133 -1463131707 -1107975854 70519561 664293192 426078426 -691268298 -1687890978 -277998301 -1325868485 -1428956470 -2137336835 -141867089 -41514052 -554419545 2026536036 1357843757 157355694 574179386 469590898 -1018435177 -980436209
REM
CELL 1.54180   15.00000   15.00000   15.00000   90.00000   90.00000   90.00000
LATT -1
SFAC C  
C      1  0.5464360000000  0.7266660000000  0.5361540000000 1.0
C      1  0.4347390000000  0.6413650000000  0.3158670000000 1.0
C      1  0.5243640000000  0.6218490000000  0.3038930000000 1.0
C      1  0.4424700000000  0.3580940000000  0.3123110000000 1.0
C      1  0.4814930000000  0.3491330000000  0.4078410000000 1.0
C      1  0.4530750000000  0.2734800000000  0.4630410000000 1.0
C      1  0.5655170000000  0.3591380000000  0.6843220000000 1.0
C      1  0.4755850000000  0.3779770000000  0.6956650000000 1.0
C      1  0.5574170000000  0.6424350000000  0.6874350000000 1.0
C      1  0.5190760000000  0.6510590000000  0.5918410000000 1.0
C      1  0.3569890000000  0.2823740000000  0.4984820000000 1.0
C      1  0.6437070000000  0.3362730000000  0.6354160000000 1.0
C      1  0.3594150000000  0.4614370000000  0.6940230000000 1.0
C      1  0.6351770000000  0.5852020000000  0.6951070000000 1.0
C      1  0.3861420000000  0.6140780000000  0.6133500000000 1.0
C      1  0.6428200000000  0.7177270000000  0.5007960000000 1.0
C      1  0.3567900000000  0.6641440000000  0.3652740000000 1.0
C      1  0.6405480000000  0.5375610000000  0.3057450000000 1.0
C      1  0.3648690000000  0.4154130000000  0.3046880000000 1.0
C      1  0.6133250000000  0.3850200000000  0.3869250000000 1.0
C      1  0.6937320000000  0.6833460000000  0.5727200000000 1.0
C      1  0.3769000000000  0.6678350000000  0.4615380000000 1.0
C      1  0.6026990000000  0.6002170000000  0.3759550000000 1.0
C      1  0.3828410000000  0.5117940000000  0.3212660000000 1.0
C      1  0.6461960000000  0.4400950000000  0.3121500000000 1.0
C      1  0.3058340000000  0.3171580000000  0.4267730000000 1.0
C      1  0.6234360000000  0.3319880000000  0.5391820000000 1.0
C      1  0.3972230000000  0.3993730000000  0.6235610000000 1.0
C      1  0.6173210000000  0.4887130000000  0.6789700000000 1.0
C      1  0.3537610000000  0.5591480000000  0.6880910000000 1.0
C      1  0.7492320000000  0.5546220000000  0.5693530000000 1.0
C      1  0.2600760000000  0.5762200000000  0.5145610000000 1.0
C      1  0.7387220000000  0.5823880000000  0.4728790000000 1.0
C      1  0.2596240000000  0.5423700000000  0.4224760000000 1.0
C      1  0.7558970000000  0.4990390000000  0.4242210000000 1.0
C      1  0.2507480000000  0.4458310000000  0.4304380000000 1.0
C      1  0.7398590000000  0.4239500000000  0.4857680000000 1.0
C      1  0.2612370000000  0.4178520000000  0.5267500000000 1.0
C      1  0.7403940000000  0.4580310000000  0.5777410000000 1.0
C      1  0.2441110000000  0.5009390000000  0.5757810000000 1.0
C      1  0.6746310000000  0.3556840000000  0.4600220000000 1.0
C      1  0.3247360000000  0.3522220000000  0.5597800000000 1.0
C      1  0.6864480000000  0.4225010000000  0.6528390000000 1.0
C      1  0.2752560000000  0.5043160000000  0.6687540000000 1.0
C      1  0.7130320000000  0.6173230000000  0.6364350000000 1.0
C      1  0.3254010000000  0.6443780000000  0.5405450000000 1.0
C      1  0.6753440000000  0.6478680000000  0.4398290000000 1.0
C      1  0.3137710000000  0.5780420000000  0.3474860000000 1.0
C      1  0.7246030000000  0.4949700000000  0.3311680000000 1.0
C      1  0.2867540000000  0.3834250000000  0.3633370000000 1.0
C      1  0.4326660000000  0.4551320000000  0.5460430000000 1.0
C      1  0.5648110000000  0.4872820000000  0.5965070000000 1.0
C      1  0.4223410000000  0.5483730000000  0.5496030000000 1.0
C      1  0.5565260000000  0.5676480000000  0.5448030000000 1.0
C      1  0.4293460000000  0.5865780000000  0.4651800000000 1.0
C      1  0.5672180000000  0.5440120000000  0.4540330000000 1.0
C      1  0.4352360000000  0.5125990000000  0.4038050000000 1.0
C      1  0.5785110000000  0.4510940000000  0.4509620000000 1.0
C      1  0.4428660000000  0.4320420000000  0.4552670000000 1.0
C      1  0.5707040000000  0.4131720000000  0.5352540000000 1.0
END
