TITL C-1525613-7943-4139 0.0873042538085477 3375 -8069.48209171344 0 0 60 (Cs) n - 1
REM
REM in /home/nfs/bkarasulu/CARBON/AIRSS/Generating-Clusters/ReaxFF-fromJPCA2015/Units_Real/Try2-Higher-symm/Only-C60
REM
REM
REM
REM
REM
REM ./C.cell (863b2abdce7293c0672fb3ba77bf323a)
REM AIRSS Version 0.9.1 bugfix July 2018 build 013d7b7c2542+ Fri, 06 Jul 2018 19:26:36 +0100
REM compiler GCC version 9.2.1 20190827 (Red Hat 9.2.1-1)
REM options -cpp -mtune=generic -march=x86-64 -g -O0 -fpre-include=/usr/include/finclude/math-vector-fortran.h
REM seed -717808504 -1163054701 -329462065 18345764 -2023427218 -684794993 -1494662066 15279118 -682259858 -1369647957 1621864383 582880648 1328719309 450093722 2076238961 -476406237 -81662683 2076514176 1542122222 -2028963417 -1429435931 -1046695690 2128835623 -1668309159 761108269 1649432730 -1363021145 978296682 -552410440 -1544936512 462432472 -332190834 -1053115613
REM
CELL 1.54180   15.00000   15.00000   15.00000   90.00000   90.00000   90.00000
LATT -1
SFAC C  
C      1  0.5993970000000  0.3470870000000  0.5490060000000 1.0
C      1  0.6002710000000  0.4052090000000  0.3711450000000 1.0
C      1  0.5992970000000  0.5926190000000  0.3712390000000 1.0
C      1  0.5984090000000  0.6507370000000  0.5491120000000 1.0
C      1  0.5989600000000  0.4988770000000  0.6589860000000 1.0
C      1  0.5993970000000  0.3470870000000  0.4509940000000 1.0
C      1  0.6002710000000  0.4052090000000  0.6288550000000 1.0
C      1  0.5992970000000  0.5926190000000  0.6287610000000 1.0
C      1  0.5984090000000  0.6507370000000  0.4508880000000 1.0
C      1  0.5989600000000  0.4988770000000  0.3410140000000 1.0
C      1  0.4979780000000  0.3458250000000  0.4501460000000 1.0
C      1  0.4975480000000  0.4976420000000  0.3391510000000 1.0
C      1  0.4977510000000  0.6522810000000  0.4493520000000 1.0
C      1  0.4991440000000  0.5941170000000  0.6317910000000 1.0
C      1  0.5002250000000  0.4023310000000  0.6319010000000 1.0
C      1  0.4979780000000  0.3458250000000  0.5498540000000 1.0
C      1  0.4975480000000  0.4976420000000  0.6608490000000 1.0
C      1  0.4977510000000  0.6522810000000  0.5506480000000 1.0
C      1  0.4991440000000  0.5941170000000  0.3682090000000 1.0
C      1  0.5002250000000  0.4023310000000  0.3680990000000 1.0
C      1  0.4130280000000  0.3639020000000  0.6945230000000 1.0
C      1  0.4117660000000  0.2785350000000  0.4333070000000 1.0
C      1  0.4092820000000  0.4930030000000  0.2705410000000 1.0
C      1  0.4113110000000  0.7181510000000  0.4237580000000 1.0
C      1  0.4118850000000  0.6415710000000  0.6872640000000 1.0
C      1  0.4130280000000  0.3639020000000  0.3054770000000 1.0
C      1  0.4117660000000  0.2785350000000  0.5666930000000 1.0
C      1  0.4092820000000  0.4930030000000  0.7294590000000 1.0
C      1  0.4113110000000  0.7181510000000  0.5762420000000 1.0
C      1  0.4118850000000  0.6415710000000  0.3127360000000 1.0
C      1  0.7342340000000  0.3626590000000  0.4554080000000 1.0
C      1  0.7342050000000  0.5001010000000  0.3557790000000 1.0
C      1  0.7335570000000  0.6374790000000  0.4554080000000 1.0
C      1  0.7343990000000  0.5849170000000  0.6166880000000 1.0
C      1  0.7351180000000  0.4152750000000  0.6166580000000 1.0
C      1  0.7342340000000  0.3626590000000  0.5445920000000 1.0
C      1  0.7342050000000  0.5001010000000  0.6442210000000 1.0
C      1  0.7335570000000  0.6374790000000  0.5445920000000 1.0
C      1  0.7343990000000  0.5849170000000  0.3833120000000 1.0
C      1  0.7351180000000  0.4152750000000  0.3833420000000 1.0
C      1  0.3459870000000  0.3502660000000  0.4508120000000 1.0
C      1  0.3419810000000  0.5005190000000  0.3420130000000 1.0
C      1  0.3434020000000  0.6511110000000  0.4504710000000 1.0
C      1  0.3448850000000  0.5951890000000  0.6288970000000 1.0
C      1  0.3481230000000  0.4070080000000  0.6309890000000 1.0
C      1  0.3459870000000  0.3502660000000  0.5491880000000 1.0
C      1  0.3419810000000  0.5005190000000  0.6579870000000 1.0
C      1  0.3434020000000  0.6511110000000  0.5495290000000 1.0
C      1  0.3448850000000  0.5951890000000  0.3711030000000 1.0
C      1  0.3481230000000  0.4070080000000  0.3690110000000 1.0
C      1  0.4111920000000  0.5615210000000  0.2044560000000 1.0
C      1  0.4114220000000  0.8055360000000  0.4614320000000 1.0
C      1  0.4117790000000  0.6381340000000  0.7827360000000 1.0
C      1  0.4117560000000  0.2721920000000  0.7204480000000 1.0
C      1  0.4117080000000  0.2362060000000  0.3484030000000 1.0
C      1  0.4111920000000  0.5615210000000  0.7955440000000 1.0
C      1  0.4114220000000  0.8055360000000  0.5385680000000 1.0
C      1  0.4117790000000  0.6381340000000  0.2172640000000 1.0
C      1  0.4117560000000  0.2721920000000  0.2795520000000 1.0
C      1  0.4117080000000  0.2362060000000  0.6515970000000 1.0
END
