TITL C-1525613-7943-5818 0.125181205023384 3375 -7938.94320326882 0 0 60 (C2) n - 1
REM
REM in /home/nfs/bkarasulu/CARBON/AIRSS/Generating-Clusters/ReaxFF-fromJPCA2015/Units_Real/Try2-Higher-symm/Only-C60
REM
REM
REM
REM
REM
REM ./C.cell (863b2abdce7293c0672fb3ba77bf323a)
REM AIRSS Version 0.9.1 bugfix July 2018 build 013d7b7c2542+ Fri, 06 Jul 2018 19:26:36 +0100
REM compiler GCC version 9.2.1 20190827 (Red Hat 9.2.1-1)
REM options -cpp -mtune=generic -march=x86-64 -g -O0 -fpre-include=/usr/include/finclude/math-vector-fortran.h
REM seed -1331871034 -1202454909 899183367 -342304530 -1881611028 -751872677 -255739031 -1697326981 -412492672 -1057191711 54956114 260963151 590217550 -150060626 -1613011476 -189037993 1482008938 -1900191370 -282954056 -413152762 1996961352 901361385 452264816 -1739003093 -1446403560 149938478 22213254 -1231861775 1706696123 640961412 -2089423784 -2010033959 -172147023
REM
CELL 1.54180   15.00000   15.00000   15.00000   90.00000   90.00000   90.00000
LATT -1
SFAC C  
C      1  0.5361760000000  0.6909360000000  0.6724710000000 1.0
C      1  0.5336760000000  0.5509430000000  0.7522060000000 1.0
C      1  0.5365310000000  0.3899900000000  0.7347780000000 1.0
C      1  0.5385870000000  0.2726380000000  0.6241110000000 1.0
C      1  0.5370560000000  0.2431700000000  0.4697430000000 1.0
C      1  0.5361840000000  0.3090630000000  0.3275380000000 1.0
C      1  0.5336740000000  0.4490530000000  0.2477950000000 1.0
C      1  0.5365310000000  0.6100110000000  0.2652150000000 1.0
C      1  0.5385810000000  0.7273580000000  0.3758940000000 1.0
C      1  0.5370510000000  0.7568290000000  0.5302560000000 1.0
C      1  0.5833280000000  0.3799960000000  0.3897550000000 1.0
C      1  0.5764260000000  0.4685140000000  0.3413600000000 1.0
C      1  0.5804720000000  0.5695900000000  0.3513040000000 1.0
C      1  0.5840720000000  0.6430410000000  0.4198140000000 1.0
C      1  0.5802530000000  0.6592250000000  0.5184390000000 1.0
C      1  0.5833400000000  0.6200030000000  0.6102370000000 1.0
C      1  0.5764290000000  0.5314860000000  0.6586460000000 1.0
C      1  0.5804600000000  0.4304120000000  0.6487010000000 1.0
C      1  0.5840910000000  0.3569560000000  0.5801890000000 1.0
C      1  0.5802530000000  0.3407750000000  0.4815540000000 1.0
C      1  0.5117890000000  0.2959430000000  0.7201640000000 1.0
C      1  0.5143640000000  0.2164080000000  0.5567180000000 1.0
C      1  0.5123260000000  0.2382980000000  0.3794000000000 1.0
C      1  0.5098240000000  0.3540420000000  0.2393170000000 1.0
C      1  0.5103950000000  0.5357730000000  0.2029180000000 1.0
C      1  0.5117890000000  0.7040530000000  0.2798350000000 1.0
C      1  0.5143550000000  0.7835870000000  0.4432840000000 1.0
C      1  0.5123260000000  0.7617000000000  0.6206010000000 1.0
C      1  0.5098220000000  0.6459640000000  0.7606780000000 1.0
C      1  0.5103880000000  0.4642310000000  0.7970810000000 1.0
C      1  0.3707250000000  0.6831260000000  0.4636670000000 1.0
C      1  0.3862250000000  0.6223800000000  0.5833850000000 1.0
C      1  0.3709100000000  0.5728470000000  0.6631870000000 1.0
C      1  0.3769490000000  0.4392440000000  0.6695710000000 1.0
C      1  0.3992640000000  0.3919770000000  0.5884820000000 1.0
C      1  0.3707780000000  0.3168140000000  0.5361680000000 1.0
C      1  0.3865070000000  0.3777330000000  0.4166200000000 1.0
C      1  0.3710700000000  0.4267300000000  0.3367090000000 1.0
C      1  0.3771570000000  0.5603100000000  0.3300610000000 1.0
C      1  0.3989250000000  0.6080110000000  0.4113570000000 1.0
C      1  0.6871290000000  0.6125780000000  0.6049950000000 1.0
C      1  0.6802490000000  0.5300090000000  0.6518240000000 1.0
C      1  0.6845220000000  0.4354080000000  0.6410780000000 1.0
C      1  0.6878450000000  0.3661970000000  0.5758600000000 1.0
C      1  0.6826390000000  0.3485600000000  0.4821410000000 1.0
C      1  0.6871410000000  0.3874240000000  0.3950070000000 1.0
C      1  0.6802420000000  0.4699850000000  0.3481780000000 1.0
C      1  0.6845190000000  0.5645930000000  0.3589220000000 1.0
C      1  0.6878400000000  0.6338030000000  0.4241420000000 1.0
C      1  0.6826420000000  0.6514430000000  0.5178540000000 1.0
C      1  0.3058300000000  0.3568020000000  0.5875910000000 1.0
C      1  0.3172240000000  0.3218830000000  0.4569800000000 1.0
C      1  0.3071520000000  0.3674190000000  0.3688820000000 1.0
C      1  0.3100010000000  0.4950500000000  0.3222530000000 1.0
C      1  0.2879380000000  0.5919090000000  0.3310610000000 1.0
C      1  0.3055870000000  0.6435590000000  0.4124300000000 1.0
C      1  0.3174990000000  0.6785310000000  0.5431640000000 1.0
C      1  0.3073080000000  0.6327650000000  0.6315730000000 1.0
C      1  0.3097710000000  0.5050600000000  0.6780580000000 1.0
C      1  0.2878610000000  0.4078620000000  0.6687990000000 1.0
END
