TITL C-1525613-7943-5014 0.00298209218752952 3375 -9571.15180903591 0 0 60 (D10) n - 1
REM
REM in /home/nfs/bkarasulu/CARBON/AIRSS/Generating-Clusters/ReaxFF-fromJPCA2015/Units_Real/Try2-Higher-symm/Only-C60
REM
REM
REM
REM
REM
REM ./C.cell (863b2abdce7293c0672fb3ba77bf323a)
REM AIRSS Version 0.9.1 bugfix July 2018 build 013d7b7c2542+ Fri, 06 Jul 2018 19:26:36 +0100
REM compiler GCC version 9.2.1 20190827 (Red Hat 9.2.1-1)
REM options -cpp -mtune=generic -march=x86-64 -g -O0 -fpre-include=/usr/include/finclude/math-vector-fortran.h
REM seed -1048929272 -467933589 -126495026 -66605278 1582369316 -25512377 1906626979 -1137718579 1080746428 -34655469 -364929003 669480799 614158468 -1285303660 -1855042243 -303854911 1771950380 269830499 -182599851 -1981156344 448910614 -389828296 -645520231 1581199320 -868544614 -1119680267 -1091001319 -501660662 948431920 -987121391 -1539239833 -1419145418 672207060
REM
CELL 1.54180   15.00000   15.00000   15.00000   90.00000   90.00000   90.00000
LATT -1
SFAC C  
C      1  0.4906530000000  0.3563090000000  0.6561460000000 1.0
C      1  0.4005940000000  0.3563160000000  0.6208810000000 1.0
C      1  0.3485280000000  0.3562020000000  0.5393800000000 1.0
C      1  0.3543000000000  0.3562020000000  0.4428630000000 1.0
C      1  0.4157070000000  0.3563160000000  0.3681450000000 1.0
C      1  0.5093230000000  0.3563040000000  0.3438560000000 1.0
C      1  0.5993520000000  0.3563180000000  0.3792270000000 1.0
C      1  0.6516280000000  0.3563250000000  0.4606180000000 1.0
C      1  0.6458550000000  0.3563270000000  0.5571670000000 1.0
C      1  0.5842540000000  0.3563240000000  0.6317490000000 1.0
C      1  0.7232500000000  0.5495360000000  0.3576170000000 1.0
C      1  0.7655120000000  0.5490950000000  0.5158710000000 1.0
C      1  0.7046960000000  0.5495410000000  0.6679620000000 1.0
C      1  0.5669420000000  0.5481990000000  0.7571900000000 1.0
C      1  0.4033410000000  0.5496390000000  0.7463520000000 1.0
C      1  0.2759140000000  0.5484130000000  0.6432540000000 1.0
C      1  0.2340010000000  0.5494520000000  0.4840990000000 1.0
C      1  0.2945770000000  0.5484090000000  0.3310710000000 1.0
C      1  0.4333810000000  0.5496320000000  0.2438870000000 1.0
C      1  0.5971060000000  0.5481910000000  0.2526150000000 1.0
C      1  0.4157460000000  0.6436760000000  0.3682510000000 1.0
C      1  0.5093470000000  0.6436920000000  0.3438550000000 1.0
C      1  0.5994050000000  0.6436850000000  0.3791190000000 1.0
C      1  0.6514710000000  0.6437980000000  0.4606210000000 1.0
C      1  0.6456990000000  0.6437990000000  0.5571380000000 1.0
C      1  0.5842950000000  0.6436880000000  0.6318560000000 1.0
C      1  0.4906770000000  0.6436980000000  0.6561440000000 1.0
C      1  0.4006490000000  0.6436820000000  0.6207710000000 1.0
C      1  0.3483720000000  0.6436740000000  0.5393820000000 1.0
C      1  0.3541450000000  0.6436720000000  0.4428330000000 1.0
C      1  0.6269560000000  0.4076890000000  0.6996570000000 1.0
C      1  0.4863720000000  0.4077590000000  0.7362130000000 1.0
C      1  0.3492810000000  0.4078470000000  0.6823980000000 1.0
C      1  0.2710190000000  0.4076990000000  0.5598520000000 1.0
C      1  0.2797820000000  0.4076980000000  0.4133010000000 1.0
C      1  0.3720860000000  0.4078420000000  0.3009520000000 1.0
C      1  0.5146100000000  0.4077510000000  0.2638470000000 1.0
C      1  0.6498410000000  0.4076810000000  0.3168890000000 1.0
C      1  0.7293960000000  0.4071650000000  0.4404240000000 1.0
C      1  0.7206630000000  0.4071680000000  0.5864800000000 1.0
C      1  0.4330590000000  0.4518010000000  0.2428100000000 1.0
C      1  0.5966600000000  0.4503610000000  0.2536480000000 1.0
C      1  0.7240870000000  0.4515850000000  0.3567460000000 1.0
C      1  0.7659990000000  0.4505460000000  0.5159010000000 1.0
C      1  0.7054230000000  0.4515910000000  0.6689290000000 1.0
C      1  0.5666210000000  0.4503700000000  0.7561130000000 1.0
C      1  0.4028950000000  0.4518100000000  0.7473860000000 1.0
C      1  0.2767490000000  0.4504630000000  0.6423840000000 1.0
C      1  0.2344870000000  0.4509030000000  0.4841300000000 1.0
C      1  0.2953030000000  0.4504590000000  0.3320380000000 1.0
C      1  0.3501600000000  0.5923180000000  0.6831100000000 1.0
C      1  0.2706050000000  0.5928330000000  0.5595750000000 1.0
C      1  0.2793370000000  0.5928310000000  0.4135200000000 1.0
C      1  0.3730450000000  0.5923110000000  0.3003440000000 1.0
C      1  0.5136290000000  0.5922420000000  0.2637870000000 1.0
C      1  0.6507190000000  0.5921530000000  0.3176030000000 1.0
C      1  0.7289790000000  0.5923000000000  0.4401490000000 1.0
C      1  0.7202160000000  0.5923010000000  0.5866990000000 1.0
C      1  0.6279150000000  0.5921600000000  0.6990490000000 1.0
C      1  0.4853900000000  0.5922500000000  0.7361520000000 1.0
END
