TITL C-1525613-7943-825 0.607284601985941 3375 -8416.84417689876 0 0 60 (C1) n - 1
REM
REM in /home/nfs/bkarasulu/CARBON/AIRSS/Generating-Clusters/ReaxFF-fromJPCA2015/Units_Real/Try2-Higher-symm/Only-C60
REM
REM
REM
REM
REM
REM ./C.cell (863b2abdce7293c0672fb3ba77bf323a)
REM AIRSS Version 0.9.1 bugfix July 2018 build 013d7b7c2542+ Fri, 06 Jul 2018 19:26:36 +0100
REM compiler GCC version 9.2.1 20190827 (Red Hat 9.2.1-1)
REM options -cpp -mtune=generic -march=x86-64 -g -O0 -fpre-include=/usr/include/finclude/math-vector-fortran.h
REM seed 1185763769 -940490886 1760074350 -1306966626 1863191810 1149514354 -1796801003 2147252969 -347235918 -204572739 2028385109 -1250422945 -948821935 -310875047 -271149781 -341681132 1822058639 1085179913 -126887527 1496249403 -1848708752 786627637 -738538608 -1295616408 824553528 -808257194 -1725799951 125418515 385254971 1067922897 -1739170183 -862958878 -2030218603
REM
CELL 1.54180   15.00000   15.00000   15.00000   90.00000   90.00000   90.00000
LATT -1
SFAC C  
C      1  0.4113900000000  0.4657050000000  0.3470100000000 1.0
C      1  0.4156160000000  0.6276870000000  0.4191620000000 1.0
C      1  0.4150940000000  0.6151530000000  0.5979970000000 1.0
C      1  0.4111110000000  0.4385040000000  0.6371520000000 1.0
C      1  0.4117750000000  0.3475320000000  0.4839280000000 1.0
C      1  0.5884870000000  0.4656800000000  0.3469780000000 1.0
C      1  0.5844640000000  0.6276200000000  0.4191300000000 1.0
C      1  0.5849050000000  0.6150940000000  0.5979390000000 1.0
C      1  0.5889000000000  0.4384470000000  0.6370900000000 1.0
C      1  0.5883060000000  0.3474650000000  0.4838070000000 1.0
C      1  0.7253830000000  0.4927560000000  0.5822780000000 1.0
C      1  0.7264350000000  0.4202420000000  0.5177580000000 1.0
C      1  0.7255120000000  0.4591080000000  0.4288570000000 1.0
C      1  0.7233790000000  0.5556760000000  0.4391580000000 1.0
C      1  0.7229890000000  0.5766430000000  0.5337310000000 1.0
C      1  0.2745850000000  0.4927730000000  0.5823000000000 1.0
C      1  0.2734980000000  0.4202480000000  0.5177510000000 1.0
C      1  0.2744520000000  0.4590490000000  0.4288430000000 1.0
C      1  0.2766070000000  0.5556220000000  0.4391830000000 1.0
C      1  0.2770040000000  0.5766610000000  0.5337580000000 1.0
C      1  0.3737790000000  0.7296790000000  0.5336000000000 1.0
C      1  0.3729330000000  0.5360430000000  0.7270710000000 1.0
C      1  0.3726670000000  0.3070750000000  0.6124460000000 1.0
C      1  0.3718420000000  0.3323510000000  0.3472260000000 1.0
C      1  0.3736740000000  0.5907410000000  0.2932850000000 1.0
C      1  0.6262040000000  0.7296640000000  0.5336150000000 1.0
C      1  0.6270530000000  0.5360090000000  0.7270480000000 1.0
C      1  0.6274210000000  0.3070890000000  0.6125690000000 1.0
C      1  0.6281770000000  0.3322510000000  0.3476180000000 1.0
C      1  0.6262860000000  0.5909140000000  0.2933520000000 1.0
C      1  0.4557890000000  0.7605140000000  0.5216780000000 1.0
C      1  0.4554490000000  0.5578090000000  0.7522690000000 1.0
C      1  0.4564080000000  0.2846090000000  0.6340590000000 1.0
C      1  0.4557390000000  0.3033660000000  0.3352900000000 1.0
C      1  0.4565970000000  0.5937430000000  0.2600270000000 1.0
C      1  0.5442110000000  0.7605520000000  0.5216840000000 1.0
C      1  0.5445790000000  0.5578400000000  0.7523320000000 1.0
C      1  0.5436730000000  0.2846760000000  0.6341010000000 1.0
C      1  0.5440700000000  0.3034450000000  0.3353560000000 1.0
C      1  0.5435600000000  0.5938380000000  0.2598580000000 1.0
C      1  0.6701370000000  0.6115220000000  0.3772850000000 1.0
C      1  0.6706480000000  0.6525480000000  0.5706120000000 1.0
C      1  0.6736410000000  0.4787580000000  0.6653930000000 1.0
C      1  0.6729030000000  0.3391540000000  0.5338780000000 1.0
C      1  0.6736410000000  0.4171370000000  0.3562770000000 1.0
C      1  0.3298990000000  0.6114410000000  0.3773430000000 1.0
C      1  0.3293420000000  0.6525670000000  0.5706130000000 1.0
C      1  0.3263580000000  0.4787490000000  0.6653890000000 1.0
C      1  0.3270350000000  0.3391200000000  0.5337660000000 1.0
C      1  0.3262560000000  0.4170370000000  0.3562210000000 1.0
C      1  0.4539430000000  0.6261910000000  0.5077500000000 1.0
C      1  0.4532690000000  0.5261440000000  0.6195930000000 1.0
C      1  0.4541020000000  0.3980700000000  0.5585390000000 1.0
C      1  0.4541080000000  0.4100050000000  0.4180800000000 1.0
C      1  0.4544200000000  0.5457400000000  0.3885480000000 1.0
C      1  0.5460770000000  0.6261840000000  0.5077120000000 1.0
C      1  0.5467810000000  0.5260850000000  0.6194840000000 1.0
C      1  0.5459980000000  0.3979000000000  0.5584510000000 1.0
C      1  0.5457980000000  0.4100470000000  0.4181570000000 1.0
C      1  0.5456420000000  0.5457290000000  0.3886190000000 1.0
END
