TITL C-1525613-7943-1493 0.213665918283351 3375 -7514.19491124379 0 0 60 (Ci) n - 1
REM
REM in /home/nfs/bkarasulu/CARBON/AIRSS/Generating-Clusters/ReaxFF-fromJPCA2015/Units_Real/Try2-Higher-symm/Only-C60
REM
REM
REM
REM
REM
REM ./C.cell (863b2abdce7293c0672fb3ba77bf323a)
REM AIRSS Version 0.9.1 bugfix July 2018 build 013d7b7c2542+ Fri, 06 Jul 2018 19:26:36 +0100
REM compiler GCC version 9.2.1 20190827 (Red Hat 9.2.1-1)
REM options -cpp -mtune=generic -march=x86-64 -g -O0 -fpre-include=/usr/include/finclude/math-vector-fortran.h
REM seed 1708083137 -2137224776 -2141993734 -1891920103 35501266 2141205236 -780737459 -856445734 -1519977718 -1263590748 -1914329640 628280693 1685332526 -1579443613 -1485465433 -1349145267 -700362045 -1612523048 12635856 -1368699031 43216659 419115395 -973145270 1115695799 1411379594 2084219278 1892001907 -87969903 -1878711723 214904388 1896804350 352330391 -1057962286
REM
CELL 1.54180   15.00000   15.00000   15.00000   90.00000   90.00000   90.00000
LATT -1
SFAC C  
C      1  0.4861250000000  0.7246420000000  0.4553380000000 1.0
C      1  0.6443170000000  0.7210130000000  0.5115150000000 1.0
C      1  0.7166570000000  0.5820620000000  0.4557620000000 1.0
C      1  0.7219870000000  0.4419130000000  0.5489190000000 1.0
C      1  0.6640480000000  0.3036460000000  0.4713470000000 1.0
C      1  0.5138720000000  0.2753570000000  0.5446640000000 1.0
C      1  0.3556810000000  0.2789820000000  0.4884850000000 1.0
C      1  0.2833420000000  0.4179330000000  0.5442410000000 1.0
C      1  0.2780470000000  0.5580710000000  0.4510780000000 1.0
C      1  0.3359490000000  0.6963520000000  0.5286440000000 1.0
C      1  0.5791210000000  0.4783610000000  0.3993640000000 1.0
C      1  0.5522750000000  0.4389470000000  0.5997330000000 1.0
C      1  0.5055880000000  0.4165610000000  0.3994740000000 1.0
C      1  0.4563720000000  0.4325150000000  0.6000210000000 1.0
C      1  0.4243890000000  0.4678490000000  0.3997320000000 1.0
C      1  0.4208800000000  0.5216390000000  0.6006360000000 1.0
C      1  0.4477280000000  0.5610540000000  0.4002680000000 1.0
C      1  0.4944110000000  0.5834400000000  0.6005250000000 1.0
C      1  0.5436270000000  0.5674860000000  0.3999790000000 1.0
C      1  0.5756130000000  0.5321490000000  0.6002690000000 1.0
C      1  0.5704570000000  0.6117100000000  0.3106800000000 1.0
C      1  0.6236400000000  0.5504640000000  0.6897010000000 1.0
C      1  0.6288170000000  0.4665010000000  0.3096580000000 1.0
C      1  0.5855480000000  0.3989940000000  0.6889100000000 1.0
C      1  0.5087910000000  0.3660750000000  0.3095640000000 1.0
C      1  0.4295430000000  0.3882890000000  0.6893200000000 1.0
C      1  0.3763600000000  0.4495360000000  0.3102990000000 1.0
C      1  0.3711830000000  0.5334990000000  0.6903390000000 1.0
C      1  0.4144520000000  0.6010070000000  0.3110910000000 1.0
C      1  0.4912090000000  0.6339260000000  0.6904360000000 1.0
C      1  0.6917960000000  0.6436200000000  0.5086450000000 1.0
C      1  0.7445660000000  0.5143340000000  0.5078120000000 1.0
C      1  0.7107020000000  0.3788130000000  0.4946370000000 1.0
C      1  0.5829560000000  0.2688720000000  0.4981510000000 1.0
C      1  0.4456380000000  0.2596400000000  0.4962110000000 1.0
C      1  0.3082020000000  0.3563780000000  0.4913550000000 1.0
C      1  0.2554330000000  0.4856580000000  0.4921900000000 1.0
C      1  0.2892660000000  0.6211990000000  0.5053450000000 1.0
C      1  0.4170440000000  0.7311250000000  0.5018480000000 1.0
C      1  0.5543600000000  0.7403570000000  0.5037920000000 1.0
C      1  0.3982160000000  0.4596330000000  0.7446800000000 1.0
C      1  0.3926840000000  0.5262880000000  0.2559040000000 1.0
C      1  0.4297520000000  0.5854730000000  0.7452030000000 1.0
C      1  0.4919350000000  0.6094530000000  0.2560900000000 1.0
C      1  0.5590110000000  0.5940870000000  0.7447750000000 1.0
C      1  0.6017830000000  0.5403670000000  0.2553180000000 1.0
C      1  0.6073160000000  0.4737130000000  0.7440970000000 1.0
C      1  0.5702470000000  0.4145280000000  0.2547940000000 1.0
C      1  0.5080640000000  0.3905470000000  0.7439090000000 1.0
C      1  0.4409880000000  0.4059130000000  0.2552250000000 1.0
C      1  0.7984640000000  0.4212270000000  0.5929600000000 1.0
C      1  0.7051630000000  0.2828980000000  0.3975820000000 1.0
C      1  0.5193850000000  0.1960960000000  0.5911420000000 1.0
C      1  0.3472060000000  0.2604830000000  0.4015500000000 1.0
C      1  0.2239130000000  0.3718100000000  0.5970450000000 1.0
C      1  0.2015460000000  0.5788080000000  0.4070710000000 1.0
C      1  0.2948400000000  0.7171010000000  0.6024160000000 1.0
C      1  0.4806140000000  0.8039020000000  0.4088590000000 1.0
C      1  0.6527950000000  0.7395160000000  0.5984470000000 1.0
C      1  0.7760840000000  0.6281880000000  0.4029560000000 1.0
END
