TITL C-1525613-7943-4408 0.0849208054084787 3375 -8389.91261246209 0 0 60 (C1) n - 1
REM
REM in /home/nfs/bkarasulu/CARBON/AIRSS/Generating-Clusters/ReaxFF-fromJPCA2015/Units_Real/Try2-Higher-symm/Only-C60
REM
REM
REM
REM
REM
REM ./C.cell (863b2abdce7293c0672fb3ba77bf323a)
REM AIRSS Version 0.9.1 bugfix July 2018 build 013d7b7c2542+ Fri, 06 Jul 2018 19:26:36 +0100
REM compiler GCC version 9.2.1 20190827 (Red Hat 9.2.1-1)
REM options -cpp -mtune=generic -march=x86-64 -g -O0 -fpre-include=/usr/include/finclude/math-vector-fortran.h
REM seed -229756786 473352755 -1549306781 -507769810 1321306531 -538425876 -884531025 2119776327 -671910485 1915950783 1804284515 -581913745 -800082021 553964079 1124391639 -950515035 -924916526 -1541577384 1124658241 -1043808216 -908187671 -390683747 -129927314 -1196564720 -650457276 -1136865427 886983146 -709729788 -1083915946 843213751 -2024279568 -1066830280 55353696
REM
CELL 1.54180   15.00000   15.00000   15.00000   90.00000   90.00000   90.00000
LATT -1
SFAC C  
C      1  0.4144590000000  0.4460350000000  0.7040630000000 1.0
C      1  0.3086160000000  0.5614250000000  0.6216640000000 1.0
C      1  0.2725040000000  0.4545140000000  0.4871680000000 1.0
C      1  0.3273900000000  0.5554460000000  0.3544910000000 1.0
C      1  0.4416740000000  0.4383760000000  0.2803500000000 1.0
C      1  0.5834810000000  0.5500260000000  0.2899200000000 1.0
C      1  0.6904720000000  0.4357710000000  0.3807080000000 1.0
C      1  0.7204760000000  0.5560690000000  0.5121590000000 1.0
C      1  0.6718840000000  0.4481650000000  0.6456010000000 1.0
C      1  0.5529250000000  0.5600300000000  0.7191990000000 1.0
C      1  0.4377030000000  0.6059470000000  0.6625310000000 1.0
C      1  0.3573120000000  0.3924350000000  0.5907180000000 1.0
C      1  0.3263020000000  0.6106230000000  0.4941270000000 1.0
C      1  0.3547770000000  0.3946340000000  0.3997760000000 1.0
C      1  0.4538400000000  0.6054290000000  0.3353800000000 1.0
C      1  0.5614170000000  0.3951090000000  0.3290990000000 1.0
C      1  0.6442370000000  0.5996330000000  0.4005690000000 1.0
C      1  0.6777600000000  0.3930620000000  0.5124440000000 1.0
C      1  0.6406260000000  0.6076470000000  0.6130630000000 1.0
C      1  0.5470860000000  0.3942870000000  0.6650410000000 1.0
C      1  0.6214460000000  0.3481580000000  0.6202070000000 1.0
C      1  0.5254090000000  0.6483250000000  0.6706770000000 1.0
C      1  0.4234790000000  0.3487530000000  0.6500820000000 1.0
C      1  0.3462660000000  0.6540750000000  0.5800320000000 1.0
C      1  0.3370160000000  0.3449960000000  0.4811880000000 1.0
C      1  0.3794290000000  0.6516900000000  0.3803040000000 1.0
C      1  0.4771930000000  0.3484440000000  0.3263640000000 1.0
C      1  0.5777280000000  0.6496480000000  0.3511980000000 1.0
C      1  0.6584840000000  0.3491340000000  0.4265670000000 1.0
C      1  0.6656570000000  0.6535950000000  0.5322280000000 1.0
C      1  0.4333040000000  0.4294940000000  0.5369070000000 1.0
C      1  0.4198790000000  0.5665610000000  0.4950390000000 1.0
C      1  0.4385080000000  0.4303650000000  0.4437350000000 1.0
C      1  0.4838200000000  0.5689630000000  0.4251290000000 1.0
C      1  0.5328050000000  0.4323940000000  0.4200870000000 1.0
C      1  0.5696490000000  0.5696240000000  0.4607250000000 1.0
C      1  0.5817150000000  0.4311780000000  0.5045820000000 1.0
C      1  0.5621350000000  0.5677290000000  0.5563680000000 1.0
C      1  0.5171220000000  0.4313550000000  0.5743820000000 1.0
C      1  0.4680530000000  0.5706450000000  0.5760390000000 1.0
C      1  0.2914630000000  0.4741800000000  0.3969120000000 1.0
C      1  0.3981670000000  0.5244530000000  0.2996710000000 1.0
C      1  0.5343580000000  0.4687940000000  0.2665360000000 1.0
C      1  0.6593490000000  0.5208790000000  0.3387320000000 1.0
C      1  0.7252650000000  0.4697460000000  0.4651810000000 1.0
C      1  0.7066790000000  0.5301790000000  0.6036100000000 1.0
C      1  0.6005220000000  0.4749410000000  0.7015880000000 1.0
C      1  0.4611760000000  0.5291150000000  0.7245950000000 1.0
C      1  0.3390680000000  0.4756840000000  0.6553640000000 1.0
C      1  0.2695430000000  0.5358250000000  0.5360350000000 1.0
C      1  0.5829500000000  0.7030310000000  0.5130530000000 1.0
C      1  0.5642560000000  0.2986620000000  0.5570240000000 1.0
C      1  0.5146620000000  0.6997050000000  0.5860200000000 1.0
C      1  0.4662080000000  0.2989900000000  0.5768750000000 1.0
C      1  0.4257510000000  0.7011770000000  0.5434110000000 1.0
C      1  0.4199260000000  0.2953460000000  0.4876260000000 1.0
C      1  0.4372700000000  0.7008940000000  0.4431550000000 1.0
C      1  0.4878500000000  0.2991720000000  0.4134690000000 1.0
C      1  0.5356910000000  0.7002470000000  0.4238420000000 1.0
C      1  0.5758070000000  0.2991900000000  0.4573910000000 1.0
END
