TITL C-1525613-7943-523 0.385771558818875 3375 -8525.80766025517 0 0 60 (C5) n - 1
REM
REM in /home/nfs/bkarasulu/CARBON/AIRSS/Generating-Clusters/ReaxFF-fromJPCA2015/Units_Real/Try2-Higher-symm/Only-C60
REM
REM
REM
REM
REM
REM ./C.cell (863b2abdce7293c0672fb3ba77bf323a)
REM AIRSS Version 0.9.1 bugfix July 2018 build 013d7b7c2542+ Fri, 06 Jul 2018 19:26:36 +0100
REM compiler GCC version 9.2.1 20190827 (Red Hat 9.2.1-1)
REM options -cpp -mtune=generic -march=x86-64 -g -O0 -fpre-include=/usr/include/finclude/math-vector-fortran.h
REM seed -334029917 179988853 -1573160315 -2006362876 -2079068724 -92659572 598411776 -1732367945 -2040843828 -1053840904 -1844345223 -211229642 1012735012 896569413 506688811 1521406329 -1498625600 1496853551 716672761 812529686 978750115 -1380891494 1291842794 1023216802 867267774 921071066 1887871335 133770588 -17409112 -35548404 -183289153 -1603053087 1587425890
REM
CELL 1.54180   15.00000   15.00000   15.00000   90.00000   90.00000   90.00000
LATT -1
SFAC C  
C      1  0.4992830000000  0.4495830000000  0.5930840000000 1.0
C      1  0.4113340000000  0.4495830000000  0.5280940000000 1.0
C      1  0.4458560000000  0.4496060000000  0.4243570000000 1.0
C      1  0.5551670000000  0.4495670000000  0.4251090000000 1.0
C      1  0.5882740000000  0.4496100000000  0.5292740000000 1.0
C      1  0.4992830000000  0.5504170000000  0.5930840000000 1.0
C      1  0.4113340000000  0.5504170000000  0.5280940000000 1.0
C      1  0.4458560000000  0.5503940000000  0.4243570000000 1.0
C      1  0.5551670000000  0.5504330000000  0.4251090000000 1.0
C      1  0.5882740000000  0.5503900000000  0.5292740000000 1.0
C      1  0.7206860000000  0.3470710000000  0.4477480000000 1.0
C      1  0.6178190000000  0.3470330000000  0.6937320000000 1.0
C      1  0.3521910000000  0.3470490000000  0.6720010000000 1.0
C      1  0.2907580000000  0.3470460000000  0.4125430000000 1.0
C      1  0.5185300000000  0.3470190000000  0.2739450000000 1.0
C      1  0.7206860000000  0.6529290000000  0.4477480000000 1.0
C      1  0.6178190000000  0.6529670000000  0.6937320000000 1.0
C      1  0.3521910000000  0.6529510000000  0.6720010000000 1.0
C      1  0.2907580000000  0.6529540000000  0.4125430000000 1.0
C      1  0.5185300000000  0.6529810000000  0.2739450000000 1.0
C      1  0.3239130000000  0.3989370000000  0.5497470000000 1.0
C      1  0.3982830000000  0.3989690000000  0.3479050000000 1.0
C      1  0.6132400000000  0.3989500000000  0.3562600000000 1.0
C      1  0.6716980000000  0.3989980000000  0.5632590000000 1.0
C      1  0.4928990000000  0.3989260000000  0.6828730000000 1.0
C      1  0.3239130000000  0.6010630000000  0.5497470000000 1.0
C      1  0.3982830000000  0.6010310000000  0.3479050000000 1.0
C      1  0.6132400000000  0.6010500000000  0.3562600000000 1.0
C      1  0.6716980000000  0.6010020000000  0.5632590000000 1.0
C      1  0.4928990000000  0.6010740000000  0.6828730000000 1.0
C      1  0.6422990000000  0.6839590000000  0.4026070000000 1.0
C      1  0.6365680000000  0.6839020000000  0.6053060000000 1.0
C      1  0.4420890000000  0.6839590000000  0.6624600000000 1.0
C      1  0.3276160000000  0.6839660000000  0.4951120000000 1.0
C      1  0.4514010000000  0.6839100000000  0.3345550000000 1.0
C      1  0.6422990000000  0.3160410000000  0.4026070000000 1.0
C      1  0.6365680000000  0.3160980000000  0.6053060000000 1.0
C      1  0.4420890000000  0.3160410000000  0.6624600000000 1.0
C      1  0.3276160000000  0.3160340000000  0.4951120000000 1.0
C      1  0.4514010000000  0.3160900000000  0.3345550000000 1.0
C      1  0.5850260000000  0.3854980000000  0.2653640000000 1.0
C      1  0.7494010000000  0.3854940000000  0.5082810000000 1.0
C      1  0.5691340000000  0.3854740000000  0.7397740000000 1.0
C      1  0.2933630000000  0.3855160000000  0.6398860000000 1.0
C      1  0.3031120000000  0.3854830000000  0.3467000000000 1.0
C      1  0.5850260000000  0.6145020000000  0.2653640000000 1.0
C      1  0.7494010000000  0.6145060000000  0.5082810000000 1.0
C      1  0.5691340000000  0.6145260000000  0.7397740000000 1.0
C      1  0.2933630000000  0.6144840000000  0.6398860000000 1.0
C      1  0.3031120000000  0.6145170000000  0.3467000000000 1.0
C      1  0.4775650000000  0.7251690000000  0.4200280000000 1.0
C      1  0.5691120000000  0.7252330000000  0.4539840000000 1.0
C      1  0.5651820000000  0.7252010000000  0.5515280000000 1.0
C      1  0.4711680000000  0.7252280000000  0.5778610000000 1.0
C      1  0.4170320000000  0.7251840000000  0.4966230000000 1.0
C      1  0.4775650000000  0.2748310000000  0.4200280000000 1.0
C      1  0.5691120000000  0.2747670000000  0.4539840000000 1.0
C      1  0.5651820000000  0.2747990000000  0.5515280000000 1.0
C      1  0.4711680000000  0.2747720000000  0.5778610000000 1.0
C      1  0.4170320000000  0.2748160000000  0.4966230000000 1.0
END
