TITL C-1525613-7943-7813 0.0351621298915017 3375 -8567.9581371336 0 0 60 (C1) n - 1
REM
REM in /home/nfs/bkarasulu/CARBON/AIRSS/Generating-Clusters/ReaxFF-fromJPCA2015/Units_Real/Try2-Higher-symm/Only-C60
REM
REM
REM
REM
REM
REM ./C.cell (863b2abdce7293c0672fb3ba77bf323a)
REM AIRSS Version 0.9.1 bugfix July 2018 build 013d7b7c2542+ Fri, 06 Jul 2018 19:26:36 +0100
REM compiler GCC version 9.2.1 20190827 (Red Hat 9.2.1-1)
REM options -cpp -mtune=generic -march=x86-64 -g -O0 -fpre-include=/usr/include/finclude/math-vector-fortran.h
REM seed -1573236787 -1597123556 -595473848 473733655 -232047348 -115263019 -611691548 1077497955 1965643439 844964929 -1877148817 -2019172118 1235282406 2077444556 -2051273564 -1551760487 837080005 74443337 -1758194288 1550787622 686061015 1722945159 1016559880 2074868198 -1829206562 -1549812053 -1793900739 -690363200 352940516 871093973 1957447716 -1789682642 -1333439115
REM
CELL 1.54180   15.00000   15.00000   15.00000   90.00000   90.00000   90.00000
LATT -1
SFAC C  
C      1  0.7091280000000  0.5462320000000  0.3905530000000 1.0
C      1  0.7328700000000  0.5565180000000  0.4847480000000 1.0
C      1  0.6667500000000  0.5546300000000  0.6637620000000 1.0
C      1  0.5832970000000  0.5666610000000  0.7151410000000 1.0
C      1  0.4175240000000  0.5777880000000  0.7124420000000 1.0
C      1  0.2912320000000  0.5464640000000  0.6096270000000 1.0
C      1  0.2676820000000  0.5570430000000  0.5153200000000 1.0
C      1  0.3307310000000  0.5551940000000  0.3347840000000 1.0
C      1  0.4131330000000  0.5609540000000  0.2828320000000 1.0
C      1  0.5808170000000  0.5797750000000  0.2881720000000 1.0
C      1  0.4939200000000  0.3553330000000  0.6109680000000 1.0
C      1  0.4163170000000  0.3534860000000  0.5739850000000 1.0
C      1  0.3362660000000  0.3568020000000  0.5238720000000 1.0
C      1  0.3413550000000  0.3657170000000  0.4263230000000 1.0
C      1  0.4153840000000  0.3615930000000  0.3615080000000 1.0
C      1  0.5066640000000  0.3552730000000  0.3889820000000 1.0
C      1  0.5840550000000  0.3535730000000  0.4260150000000 1.0
C      1  0.6637910000000  0.3565630000000  0.4760700000000 1.0
C      1  0.6582920000000  0.3652960000000  0.5736040000000 1.0
C      1  0.5847700000000  0.3622230000000  0.6385790000000 1.0
C      1  0.4113390000000  0.6495050000000  0.6438350000000 1.0
C      1  0.3601960000000  0.6491040000000  0.5590260000000 1.0
C      1  0.3798270000000  0.6584920000000  0.4711510000000 1.0
C      1  0.4067740000000  0.6560040000000  0.3819050000000 1.0
C      1  0.4971600000000  0.6588320000000  0.3667490000000 1.0
C      1  0.5905390000000  0.6520300000000  0.3562050000000 1.0
C      1  0.6428900000000  0.6503330000000  0.4409500000000 1.0
C      1  0.6218400000000  0.6596670000000  0.5282180000000 1.0
C      1  0.5935970000000  0.6582150000000  0.6147150000000 1.0
C      1  0.5067260000000  0.6585030000000  0.6434970000000 1.0
C      1  0.7319510000000  0.4232730000000  0.5981130000000 1.0
C      1  0.6220370000000  0.4151020000000  0.7138660000000 1.0
C      1  0.4767310000000  0.4543990000000  0.7939130000000 1.0
C      1  0.3196950000000  0.4529010000000  0.7161410000000 1.0
C      1  0.2582320000000  0.4089300000000  0.5563560000000 1.0
C      1  0.2670250000000  0.4233110000000  0.4024910000000 1.0
C      1  0.3767340000000  0.4136160000000  0.2869330000000 1.0
C      1  0.5239230000000  0.4543340000000  0.2061530000000 1.0
C      1  0.6799310000000  0.4541690000000  0.2841980000000 1.0
C      1  0.7417320000000  0.4088600000000  0.4437520000000 1.0
C      1  0.7398910000000  0.4556790000000  0.3554690000000 1.0
C      1  0.7662460000000  0.4672140000000  0.5160120000000 1.0
C      1  0.7002220000000  0.4620970000000  0.6817980000000 1.0
C      1  0.5661180000000  0.4778240000000  0.7667020000000 1.0
C      1  0.3882920000000  0.4954510000000  0.7633620000000 1.0
C      1  0.2602280000000  0.4562120000000  0.6443970000000 1.0
C      1  0.2332630000000  0.4673580000000  0.4844800000000 1.0
C      1  0.2987620000000  0.4622240000000  0.3186400000000 1.0
C      1  0.4325750000000  0.4741000000000  0.2313290000000 1.0
C      1  0.6107950000000  0.4974060000000  0.2375600000000 1.0
C      1  0.6133530000000  0.5269310000000  0.5851880000000 1.0
C      1  0.5406930000000  0.5258170000000  0.6350820000000 1.0
C      1  0.4497630000000  0.5173420000000  0.6409910000000 1.0
C      1  0.3806820000000  0.5149110000000  0.5822930000000 1.0
C      1  0.3606410000000  0.5305810000000  0.4966690000000 1.0
C      1  0.3870630000000  0.5296600000000  0.4132400000000 1.0
C      1  0.4599830000000  0.5284820000000  0.3622840000000 1.0
C      1  0.5498540000000  0.5173750000000  0.3583580000000 1.0
C      1  0.6194840000000  0.5159720000000  0.4172270000000 1.0
C      1  0.6392360000000  0.5306660000000  0.5034640000000 1.0
END
