TITL C-1525613-7943-7367 0.039093407497306 3375 -8705.04217045778 0 0 60 (C1) n - 1
REM
REM in /home/nfs/bkarasulu/CARBON/AIRSS/Generating-Clusters/ReaxFF-fromJPCA2015/Units_Real/Try2-Higher-symm/Only-C60
REM
REM
REM
REM
REM
REM ./C.cell (863b2abdce7293c0672fb3ba77bf323a)
REM AIRSS Version 0.9.1 bugfix July 2018 build 013d7b7c2542+ Fri, 06 Jul 2018 19:26:36 +0100
REM compiler GCC version 9.2.1 20190827 (Red Hat 9.2.1-1)
REM options -cpp -mtune=generic -march=x86-64 -g -O0 -fpre-include=/usr/include/finclude/math-vector-fortran.h
REM seed -1440737966 801501766 -1013165324 -498316948 1818757518 -1701004793 902685199 962278570 -1229966023 161275091 464647139 2100506937 2056370522 1788160109 -240143504 1713562177 -293083360 -1476571783 2145767327 -462602339 -1133808320 372428400 1658655444 1711096744 1931278448 -1859298106 1222002374 1468429350 1703039745 -565878186 -821139464 -1657772117 1238895348
REM
CELL 1.54180   15.00000   15.00000   15.00000   90.00000   90.00000   90.00000
LATT -1
SFAC C  
C      1  0.3708620000000  0.5931710000000  0.7284890000000 1.0
C      1  0.5487350000000  0.6515440000000  0.7285080000000 1.0
C      1  0.6592580000000  0.5004500000000  0.7284460000000 1.0
C      1  0.5496630000000  0.3486910000000  0.7284720000000 1.0
C      1  0.3714320000000  0.4059810000000  0.7284200000000 1.0
C      1  0.6291160000000  0.5931690000000  0.7285080000000 1.0
C      1  0.4512410000000  0.6515450000000  0.7284940000000 1.0
C      1  0.3407240000000  0.5004500000000  0.7284390000000 1.0
C      1  0.4503220000000  0.3486920000000  0.7284680000000 1.0
C      1  0.6285540000000  0.4059810000000  0.7284230000000 1.0
C      1  0.6234580000000  0.4106980000000  0.3061000000000 1.0
C      1  0.4531590000000  0.3554550000000  0.3065810000000 1.0
C      1  0.3475790000000  0.4997960000000  0.3061310000000 1.0
C      1  0.4527550000000  0.6447140000000  0.3057580000000 1.0
C      1  0.6229290000000  0.5894660000000  0.3066050000000 1.0
C      1  0.3765730000000  0.4107190000000  0.3061340000000 1.0
C      1  0.5468560000000  0.3554590000000  0.3066180000000 1.0
C      1  0.6524650000000  0.4997710000000  0.3059680000000 1.0
C      1  0.5472050000000  0.6446440000000  0.3058750000000 1.0
C      1  0.3770590000000  0.5895090000000  0.3066870000000 1.0
C      1  0.5492560000000  0.7315430000000  0.3491200000000 1.0
C      1  0.7355680000000  0.5246930000000  0.3495650000000 1.0
C      1  0.5961660000000  0.2839880000000  0.3500190000000 1.0
C      1  0.3239570000000  0.3416380000000  0.3495500000000 1.0
C      1  0.2952340000000  0.6183010000000  0.3502380000000 1.0
C      1  0.4507320000000  0.7316120000000  0.3490220000000 1.0
C      1  0.2644930000000  0.5246950000000  0.3497710000000 1.0
C      1  0.4038420000000  0.2839690000000  0.3499540000000 1.0
C      1  0.6760670000000  0.3416360000000  0.3495560000000 1.0
C      1  0.7047700000000  0.6182810000000  0.3501120000000 1.0
C      1  0.6609730000000  0.6380520000000  0.6445320000000 1.0
C      1  0.6810850000000  0.3895540000000  0.6444410000000 1.0
C      1  0.4509230000000  0.2936650000000  0.6444900000000 1.0
C      1  0.2885800000000  0.4828900000000  0.6444450000000 1.0
C      1  0.4184080000000  0.6957350000000  0.6445220000000 1.0
C      1  0.3390110000000  0.6380530000000  0.6445080000000 1.0
C      1  0.3189060000000  0.3895520000000  0.6444360000000 1.0
C      1  0.5490680000000  0.2936650000000  0.6444930000000 1.0
C      1  0.7114080000000  0.4828930000000  0.6444540000000 1.0
C      1  0.5815750000000  0.6957340000000  0.6445400000000 1.0
C      1  0.6590910000000  0.5004800000000  0.5605230000000 1.0
C      1  0.5496180000000  0.3488850000000  0.5605790000000 1.0
C      1  0.3715780000000  0.4060950000000  0.5605150000000 1.0
C      1  0.3710170000000  0.5930830000000  0.5605750000000 1.0
C      1  0.5486830000000  0.6514120000000  0.5606030000000 1.0
C      1  0.3409070000000  0.5004780000000  0.5605190000000 1.0
C      1  0.4503790000000  0.3488840000000  0.5605740000000 1.0
C      1  0.6284190000000  0.4060960000000  0.5605170000000 1.0
C      1  0.6289750000000  0.5930840000000  0.5605950000000 1.0
C      1  0.4513070000000  0.6514150000000  0.5605880000000 1.0
C      1  0.5494930000000  0.2191870000000  0.4108730000000 1.0
C      1  0.2478610000000  0.3659980000000  0.4103410000000 1.0
C      1  0.2950340000000  0.6982880000000  0.4109590000000 1.0
C      1  0.6248750000000  0.7563660000000  0.4103040000000 1.0
C      1  0.7827520000000  0.4601820000000  0.4103160000000 1.0
C      1  0.4505080000000  0.2191850000000  0.4108280000000 1.0
C      1  0.7521740000000  0.3660370000000  0.4103160000000 1.0
C      1  0.7049550000000  0.6981920000000  0.4109260000000 1.0
C      1  0.3751200000000  0.7564520000000  0.4101950000000 1.0
C      1  0.2172890000000  0.4601450000000  0.4104670000000 1.0
END
