TITL C-1525613-7943-128 0.00019839146827881 3375 -9528.67974795182 0 0 60 (Ci) n - 1
REM
REM in /home/nfs/bkarasulu/CARBON/AIRSS/Generating-Clusters/ReaxFF-fromJPCA2015/Units_Real/Try2-Higher-symm/Only-C60
REM
REM
REM
REM
REM
REM ./C.cell (863b2abdce7293c0672fb3ba77bf323a)
REM AIRSS Version 0.9.1 bugfix July 2018 build 013d7b7c2542+ Fri, 06 Jul 2018 19:26:36 +0100
REM compiler GCC version 9.2.1 20190827 (Red Hat 9.2.1-1)
REM options -cpp -mtune=generic -march=x86-64 -g -O0 -fpre-include=/usr/include/finclude/math-vector-fortran.h
REM seed 1064146854 185077565 -687009315 -623801838 1323549181 -962451200 852870830 1788089522 -1273817762 573857168 1924081294 1139731939 -325525149 -1412707664 1821828659 -1375287494 1374301271 -908013743 726497468 1887700111 320268712 367474518 482744111 782546351 -1787102434 170318617 -1280092357 -1310148623 -140235839 -2052857364 -881735933 1068304428 -1076181372
REM
CELL 1.54180   15.00000   15.00000   15.00000   90.00000   90.00000   90.00000
LATT -1
SFAC C  
C      1  0.7323110000000  0.4751290000000  0.4595150000000 1.0
C      1  0.5469590000000  0.2706410000000  0.4601030000000 1.0
C      1  0.2969120000000  0.3837580000000  0.4592160000000 1.0
C      1  0.3267430000000  0.6568790000000  0.4592000000000 1.0
C      1  0.5956280000000  0.7137080000000  0.4591660000000 1.0
C      1  0.2672290000000  0.4750810000000  0.4591410000000 1.0
C      1  0.4518660000000  0.2713590000000  0.4595020000000 1.0
C      1  0.7036120000000  0.3844670000000  0.4601020000000 1.0
C      1  0.6732970000000  0.6572390000000  0.4592360000000 1.0
C      1  0.4043420000000  0.7132830000000  0.4592040000000 1.0
C      1  0.5495150000000  0.6501770000000  0.3101810000000 1.0
C      1  0.6572840000000  0.4991090000000  0.3105080000000 1.0
C      1  0.5487370000000  0.3485830000000  0.3069820000000 1.0
C      1  0.3720950000000  0.4076580000000  0.3108000000000 1.0
C      1  0.3726440000000  0.5933280000000  0.3102200000000 1.0
C      1  0.4505940000000  0.6500290000000  0.3102210000000 1.0
C      1  0.3419580000000  0.4992830000000  0.3101930000000 1.0
C      1  0.4522200000000  0.3500260000000  0.3104410000000 1.0
C      1  0.6288750000000  0.4068580000000  0.3070000000000 1.0
C      1  0.6273000000000  0.5931410000000  0.3108270000000 1.0
C      1  0.5911590000000  0.7044270000000  0.6216770000000 1.0
C      1  0.7228370000000  0.4764960000000  0.6218330000000 1.0
C      1  0.5462850000000  0.2824360000000  0.6210310000000 1.0
C      1  0.3057430000000  0.3881000000000  0.6216800000000 1.0
C      1  0.3338600000000  0.6497240000000  0.6217890000000 1.0
C      1  0.4089380000000  0.7042640000000  0.6217950000000 1.0
C      1  0.2773820000000  0.4764670000000  0.6216630000000 1.0
C      1  0.4535080000000  0.2808470000000  0.6218250000000 1.0
C      1  0.6926450000000  0.3887540000000  0.6210310000000 1.0
C      1  0.6664540000000  0.6501710000000  0.6216990000000 1.0
C      1  0.5491890000000  0.3503470000000  0.6900920000000 1.0
C      1  0.3722560000000  0.4062980000000  0.6900120000000 1.0
C      1  0.3718990000000  0.5921240000000  0.6900090000000 1.0
C      1  0.5483650000000  0.6503330000000  0.6898870000000 1.0
C      1  0.6585560000000  0.5007600000000  0.6903820000000 1.0
C      1  0.4502990000000  0.3494920000000  0.6903600000000 1.0
C      1  0.6271710000000  0.4069780000000  0.6901030000000 1.0
C      1  0.6286030000000  0.5925240000000  0.6900230000000 1.0
C      1  0.4519540000000  0.6502650000000  0.6900030000000 1.0
C      1  0.3420250000000  0.5004580000000  0.6898960000000 1.0
C      1  0.7218820000000  0.5230800000000  0.3794120000000 1.0
C      1  0.5910550000000  0.2914830000000  0.3757770000000 1.0
C      1  0.3344810000000  0.3506030000000  0.3788730000000 1.0
C      1  0.3061130000000  0.6117990000000  0.3784570000000 1.0
C      1  0.5464010000000  0.7191290000000  0.3784170000000 1.0
C      1  0.2773250000000  0.5235580000000  0.3784060000000 1.0
C      1  0.4094660000000  0.2960410000000  0.3793870000000 1.0
C      1  0.6701410000000  0.3489810000000  0.3757810000000 1.0
C      1  0.6931940000000  0.6112640000000  0.3788950000000 1.0
C      1  0.4535820000000  0.7189950000000  0.3784760000000 1.0
C      1  0.5949180000000  0.2884990000000  0.5408460000000 1.0
C      1  0.3260470000000  0.3430500000000  0.5410120000000 1.0
C      1  0.2972350000000  0.6163390000000  0.5410750000000 1.0
C      1  0.5479480000000  0.7289910000000  0.5410720000000 1.0
C      1  0.7328990000000  0.5255050000000  0.5407850000000 1.0
C      1  0.4037850000000  0.2863930000000  0.5407760000000 1.0
C      1  0.6718280000000  0.3443730000000  0.5408500000000 1.0
C      1  0.7030230000000  0.6169470000000  0.5410210000000 1.0
C      1  0.4520140000000  0.7288110000000  0.5410820000000 1.0
C      1  0.2674120000000  0.5251590000000  0.5410460000000 1.0
END
