TITL C-1525613-7943-6569 0.788656396237525 3375 -7906.53459438913 0 0 60 (Cs) n - 1
REM
REM in /home/nfs/bkarasulu/CARBON/AIRSS/Generating-Clusters/ReaxFF-fromJPCA2015/Units_Real/Try2-Higher-symm/Only-C60
REM
REM
REM
REM
REM
REM ./C.cell (863b2abdce7293c0672fb3ba77bf323a)
REM AIRSS Version 0.9.1 bugfix July 2018 build 013d7b7c2542+ Fri, 06 Jul 2018 19:26:36 +0100
REM compiler GCC version 9.2.1 20190827 (Red Hat 9.2.1-1)
REM options -cpp -mtune=generic -march=x86-64 -g -O0 -fpre-include=/usr/include/finclude/math-vector-fortran.h
REM seed -959731635 -1558357263 -735903957 1982405015 -96479139 -123331147 656680014 618441262 1188498380 983460326 -737912542 477592899 1077554496 -1304393981 -115132408 -168427389 1839534114 -1413225688 -840876628 1883150274 -1076741995 1023725529 635494973 -962510040 -1463512284 -2065287178 -1448427574 1846475771 -1368746248 -1904897835 -1678496322 164691035 1305359903
REM
CELL 1.54180   15.00000   15.00000   15.00000   90.00000   90.00000   90.00000
LATT -1
SFAC C  
C      1  0.6202250000000  0.3422240000000  0.6049760000000 1.0
C      1  0.6311100000000  0.3469020000000  0.4195920000000 1.0
C      1  0.4591120000000  0.3450920000000  0.3425210000000 1.0
C      1  0.3378990000000  0.3429890000000  0.4881290000000 1.0
C      1  0.4385060000000  0.3445760000000  0.6398080000000 1.0
C      1  0.6202780000000  0.6581860000000  0.6051830000000 1.0
C      1  0.6309980000000  0.6528800000000  0.4197730000000 1.0
C      1  0.4589650000000  0.6550500000000  0.3423660000000 1.0
C      1  0.3375250000000  0.6573120000000  0.4879400000000 1.0
C      1  0.4389720000000  0.6551210000000  0.6395850000000 1.0
C      1  0.4865910000000  0.5490270000000  0.4224870000000 1.0
C      1  0.4224680000000  0.5492300000000  0.5014640000000 1.0
C      1  0.4765530000000  0.5874640000000  0.5725890000000 1.0
C      1  0.5616970000000  0.5930490000000  0.5490910000000 1.0
C      1  0.5660150000000  0.5852460000000  0.4610440000000 1.0
C      1  0.4867870000000  0.4499770000000  0.4227940000000 1.0
C      1  0.4233520000000  0.4487680000000  0.5008660000000 1.0
C      1  0.4763740000000  0.4126250000000  0.5726540000000 1.0
C      1  0.5616080000000  0.4070610000000  0.5489570000000 1.0
C      1  0.5663800000000  0.4146400000000  0.4608830000000 1.0
C      1  0.5542330000000  0.3678620000000  0.3344390000000 1.0
C      1  0.3703720000000  0.3702580000000  0.3975510000000 1.0
C      1  0.3514680000000  0.3620700000000  0.5922980000000 1.0
C      1  0.5491270000000  0.3594410000000  0.6733880000000 1.0
C      1  0.6801760000000  0.3593800000000  0.5061090000000 1.0
C      1  0.5541750000000  0.6323540000000  0.3342390000000 1.0
C      1  0.3702030000000  0.6304430000000  0.3972250000000 1.0
C      1  0.3514090000000  0.6382350000000  0.5922230000000 1.0
C      1  0.5494780000000  0.6407720000000  0.6735390000000 1.0
C      1  0.6800660000000  0.6405710000000  0.5062990000000 1.0
C      1  0.7256040000000  0.5573170000000  0.5154390000000 1.0
C      1  0.5860160000000  0.5528840000000  0.2916360000000 1.0
C      1  0.3313000000000  0.5523190000000  0.3558200000000 1.0
C      1  0.3087520000000  0.5575520000000  0.6212030000000 1.0
C      1  0.5562830000000  0.5575170000000  0.7197480000000 1.0
C      1  0.7256040000000  0.4427600000000  0.5153870000000 1.0
C      1  0.5859990000000  0.4471720000000  0.2915820000000 1.0
C      1  0.3310890000000  0.4480350000000  0.3559010000000 1.0
C      1  0.3087110000000  0.4426530000000  0.6212620000000 1.0
C      1  0.5561720000000  0.4426720000000  0.7197380000000 1.0
C      1  0.4693430000000  0.5494720000000  0.7599730000000 1.0
C      1  0.7404410000000  0.5497940000000  0.6100560000000 1.0
C      1  0.6829920000000  0.5504330000000  0.3046630000000 1.0
C      1  0.3650930000000  0.5500220000000  0.2644980000000 1.0
C      1  0.2393900000000  0.5494150000000  0.5554880000000 1.0
C      1  0.4693400000000  0.4506080000000  0.7600240000000 1.0
C      1  0.7404790000000  0.4501890000000  0.6100420000000 1.0
C      1  0.6830030000000  0.4496060000000  0.3046320000000 1.0
C      1  0.3651230000000  0.4499920000000  0.2645750000000 1.0
C      1  0.2394080000000  0.4505650000000  0.5553560000000 1.0
C      1  0.2503190000000  0.3865970000000  0.4742930000000 1.0
C      1  0.3934840000000  0.3937930000000  0.7210530000000 1.0
C      1  0.6832870000000  0.3936250000000  0.6717850000000 1.0
C      1  0.7185390000000  0.3925720000000  0.3779070000000 1.0
C      1  0.4433310000000  0.3851550000000  0.2512620000000 1.0
C      1  0.2502250000000  0.6136270000000  0.4743830000000 1.0
C      1  0.3935980000000  0.6061840000000  0.7210700000000 1.0
C      1  0.6831350000000  0.6063120000000  0.6719740000000 1.0
C      1  0.7184540000000  0.6074450000000  0.3780170000000 1.0
C      1  0.4433650000000  0.6149070000000  0.2512200000000 1.0
END
