TITL C-1525613-7943-5802 -0.0013345039773873 3375 -9192.05580588209 0 0 60 (Cs) n - 1
REM
REM in /home/nfs/bkarasulu/CARBON/AIRSS/Generating-Clusters/ReaxFF-fromJPCA2015/Units_Real/Try2-Higher-symm/Only-C60
REM
REM
REM
REM
REM
REM ./C.cell (863b2abdce7293c0672fb3ba77bf323a)
REM AIRSS Version 0.9.1 bugfix July 2018 build 013d7b7c2542+ Fri, 06 Jul 2018 19:26:36 +0100
REM compiler GCC version 9.2.1 20190827 (Red Hat 9.2.1-1)
REM options -cpp -mtune=generic -march=x86-64 -g -O0 -fpre-include=/usr/include/finclude/math-vector-fortran.h
REM seed -28778 -1927020715 -319553561 338202458 58686743 1707589054 959495162 -1021494452 1936588403 -1658184535 -572943110 -351075872 -1364647130 -568446781 1603580256 -1692501976 -928642113 1325675883 -615036941 -1237890579 -1461493447 650608171 127022471 1415330442 -1068632718 -46581413 -1439465758 1777829618 -1810393217 655059065 -148500090 550853416 1816265531
REM
CELL 1.54180   15.00000   15.00000   15.00000   90.00000   90.00000   90.00000
LATT -1
SFAC C  
C      1  0.3703670000000  0.5930190000000  0.6923710000000 1.0
C      1  0.5459250000000  0.6502470000000  0.6876400000000 1.0
C      1  0.6553750000000  0.4999730000000  0.6858360000000 1.0
C      1  0.5491520000000  0.3472000000000  0.6945210000000 1.0
C      1  0.3735490000000  0.4068160000000  0.6869900000000 1.0
C      1  0.6255440000000  0.5916010000000  0.6857680000000 1.0
C      1  0.4497470000000  0.6526000000000  0.6943740000000 1.0
C      1  0.3428400000000  0.5010640000000  0.6869910000000 1.0
C      1  0.4499130000000  0.3486800000000  0.6924380000000 1.0
C      1  0.6255320000000  0.4057000000000  0.6877920000000 1.0
C      1  0.6713220000000  0.3344110000000  0.5410190000000 1.0
C      1  0.4051760000000  0.2771920000000  0.5448060000000 1.0
C      1  0.2701410000000  0.5320170000000  0.5361840000000 1.0
C      1  0.4459680000000  0.7433490000000  0.5485860000000 1.0
C      1  0.7027820000000  0.6159910000000  0.5343640000000 1.0
C      1  0.3330860000000  0.3389800000000  0.5361940000000 1.0
C      1  0.5996010000000  0.2714860000000  0.5488190000000 1.0
C      1  0.7322710000000  0.5255470000000  0.5344510000000 1.0
C      1  0.5409780000000  0.7346340000000  0.5407660000000 1.0
C      1  0.2920620000000  0.6244040000000  0.5447400000000 1.0
C      1  0.5320070000000  0.7453590000000  0.2992090000000 1.0
C      1  0.7558940000000  0.5310800000000  0.2994480000000 1.0
C      1  0.6166090000000  0.2777630000000  0.3348930000000 1.0
C      1  0.3405950000000  0.3279990000000  0.2966660000000 1.0
C      1  0.2846830000000  0.6127110000000  0.3315810000000 1.0
C      1  0.4632960000000  0.7480310000000  0.3346470000000 1.0
C      1  0.2693010000000  0.5452870000000  0.2966430000000 1.0
C      1  0.3926080000000  0.2824530000000  0.3316450000000 1.0
C      1  0.6706780000000  0.3202620000000  0.2994770000000 1.0
C      1  0.7251260000000  0.6249980000000  0.2993230000000 1.0
C      1  0.5988650000000  0.7380090000000  0.3649690000000 1.0
C      1  0.7603100000000  0.4585290000000  0.3659250000000 1.0
C      1  0.5527790000000  0.2278050000000  0.3820270000000 1.0
C      1  0.2902870000000  0.3765800000000  0.3586680000000 1.0
C      1  0.3025830000000  0.6902030000000  0.3803980000000 1.0
C      1  0.3823140000000  0.7510150000000  0.3818160000000 1.0
C      1  0.2576020000000  0.4763610000000  0.3586760000000 1.0
C      1  0.4525350000000  0.2302050000000  0.3805080000000 1.0
C      1  0.7204360000000  0.3655000000000  0.3652550000000 1.0
C      1  0.6858660000000  0.6862840000000  0.3656970000000 1.0
C      1  0.4536240000000  0.2789590000000  0.6255780000000 1.0
C      1  0.2841760000000  0.4789230000000  0.6132840000000 1.0
C      1  0.4060960000000  0.7085040000000  0.6283130000000 1.0
C      1  0.6607540000000  0.6461840000000  0.6139040000000 1.0
C      1  0.6880490000000  0.3875900000000  0.6165470000000 1.0
C      1  0.5467980000000  0.2762710000000  0.6284970000000 1.0
C      1  0.7160140000000  0.4764990000000  0.6140390000000 1.0
C      1  0.5858120000000  0.7015970000000  0.6163350000000 1.0
C      1  0.3323270000000  0.6515240000000  0.6254720000000 1.0
C      1  0.3131070000000  0.3901510000000  0.6132860000000 1.0
C      1  0.7093460000000  0.3742090000000  0.4635060000000 1.0
C      1  0.4549850000000  0.2350040000000  0.4766330000000 1.0
C      1  0.2666470000000  0.4746690000000  0.4573960000000 1.0
C      1  0.3809850000000  0.7456460000000  0.4779770000000 1.0
C      1  0.6748530000000  0.6726040000000  0.4607860000000 1.0
C      1  0.2965100000000  0.3832460000000  0.4573970000000 1.0
C      1  0.5484540000000  0.2313750000000  0.4781860000000 1.0
C      1  0.7431690000000  0.4632420000000  0.4609790000000 1.0
C      1  0.5951000000000  0.7246740000000  0.4632480000000 1.0
C      1  0.3074900000000  0.6877830000000  0.4765200000000 1.0
END
