TITL C-1525613-7943-2492 0.0351908005799906 3375 -8702.95821270646 0 0 60 (C1) n - 1
REM
REM in /home/nfs/bkarasulu/CARBON/AIRSS/Generating-Clusters/ReaxFF-fromJPCA2015/Units_Real/Try2-Higher-symm/Only-C60
REM
REM
REM
REM
REM
REM ./C.cell (863b2abdce7293c0672fb3ba77bf323a)
REM AIRSS Version 0.9.1 bugfix July 2018 build 013d7b7c2542+ Fri, 06 Jul 2018 19:26:36 +0100
REM compiler GCC version 9.2.1 20190827 (Red Hat 9.2.1-1)
REM options -cpp -mtune=generic -march=x86-64 -g -O0 -fpre-include=/usr/include/finclude/math-vector-fortran.h
REM seed 1233549935 -1270002085 -401395473 -2112196625 -577843217 -2038076368 -227704741 1766562285 -1171382085 192658130 556097025 1416368653 -1809215818 -53352329 -1355874856 1486847596 -1657110709 68339545 -1692262301 -1720244207 940489630 1353169097 -662765695 200238597 1167091203 -893177395 -2133997665 1932792328 2055190572 1949821638 110915338 1858253542 1160734595
REM
CELL 1.54180   15.00000   15.00000   15.00000   90.00000   90.00000   90.00000
LATT -1
SFAC C  
C      1  0.6764910000000  0.3350360000000  0.3579990000000 1.0
C      1  0.4094560000000  0.2856330000000  0.3660970000000 1.0
C      1  0.2580670000000  0.5281850000000  0.3554850000000 1.0
C      1  0.4500490000000  0.7262620000000  0.3713230000000 1.0
C      1  0.7095620000000  0.6194390000000  0.3634230000000 1.0
C      1  0.3242190000000  0.3338490000000  0.3564590000000 1.0
C      1  0.5911780000000  0.2878420000000  0.3657960000000 1.0
C      1  0.7438270000000  0.5275170000000  0.3579250000000 1.0
C      1  0.5479690000000  0.7301850000000  0.3696770000000 1.0
C      1  0.2957840000000  0.6185800000000  0.3634000000000 1.0
C      1  0.3073850000000  0.3888400000000  0.6098550000000 1.0
C      1  0.3211830000000  0.5715130000000  0.6131500000000 1.0
C      1  0.5606880000000  0.6798220000000  0.6180780000000 1.0
C      1  0.7056740000000  0.4885380000000  0.6068660000000 1.0
C      1  0.5915640000000  0.3503590000000  0.6142200000000 1.0
C      1  0.6789490000000  0.3930660000000  0.6099020000000 1.0
C      1  0.6543980000000  0.5775390000000  0.6141420000000 1.0
C      1  0.4658690000000  0.6838730000000  0.6197360000000 1.0
C      1  0.2756900000000  0.4836680000000  0.6068630000000 1.0
C      1  0.4008080000000  0.3482160000000  0.6138460000000 1.0
C      1  0.4520920000000  0.7348370000000  0.4694090000000 1.0
C      1  0.7219870000000  0.6180600000000  0.4607680000000 1.0
C      1  0.6888790000000  0.3231220000000  0.4558300000000 1.0
C      1  0.3966580000000  0.2876880000000  0.4638590000000 1.0
C      1  0.2402160000000  0.5298570000000  0.4525050000000 1.0
C      1  0.5476120000000  0.7426820000000  0.4675770000000 1.0
C      1  0.2841410000000  0.6139520000000  0.4610770000000 1.0
C      1  0.3102580000000  0.3245250000000  0.4537410000000 1.0
C      1  0.5998180000000  0.2868830000000  0.4639880000000 1.0
C      1  0.7601400000000  0.5310010000000  0.4553180000000 1.0
C      1  0.3772690000000  0.5865800000000  0.3193660000000 1.0
C      1  0.5489710000000  0.6427680000000  0.3242850000000 1.0
C      1  0.6581870000000  0.4999240000000  0.3164780000000 1.0
C      1  0.5481740000000  0.3597440000000  0.3198680000000 1.0
C      1  0.3727750000000  0.4083860000000  0.3135900000000 1.0
C      1  0.6264770000000  0.5893580000000  0.3207620000000 1.0
C      1  0.4544130000000  0.6401320000000  0.3243670000000 1.0
C      1  0.3427240000000  0.4983630000000  0.3139890000000 1.0
C      1  0.4543310000000  0.3591530000000  0.3185720000000 1.0
C      1  0.6275960000000  0.4100020000000  0.3145730000000 1.0
C      1  0.5990190000000  0.7063170000000  0.5378670000000 1.0
C      1  0.7490290000000  0.4703980000000  0.5241840000000 1.0
C      1  0.5432700000000  0.3108380000000  0.5382090000000 1.0
C      1  0.2681410000000  0.3773450000000  0.5213540000000 1.0
C      1  0.3371040000000  0.6332770000000  0.5384000000000 1.0
C      1  0.4101530000000  0.6907030000000  0.5430240000000 1.0
C      1  0.2416360000000  0.4664070000000  0.5209890000000 1.0
C      1  0.4508410000000  0.3097150000000  0.5376450000000 1.0
C      1  0.7255980000000  0.3797280000000  0.5262080000000 1.0
C      1  0.6632230000000  0.6403080000000  0.5345810000000 1.0
C      1  0.4680530000000  0.7388970000000  0.6987580000000 1.0
C      1  0.6829350000000  0.6042550000000  0.6998940000000 1.0
C      1  0.6701750000000  0.3417280000000  0.7267290000000 1.0
C      1  0.4070220000000  0.3216220000000  0.7011410000000 1.0
C      1  0.2795790000000  0.5245760000000  0.7355340000000 1.0
C      1  0.5433620000000  0.7462070000000  0.7135130000000 1.0
C      1  0.3188940000000  0.5916300000000  0.7025330000000 1.0
C      1  0.3334030000000  0.3469780000000  0.7341820000000 1.0
C      1  0.5929550000000  0.3149430000000  0.6994400000000 1.0
C      1  0.7340800000000  0.5391480000000  0.7216500000000 1.0
END
