TITL C-1525613-7943-6095 -0.0070056078892914 3375 -8921.59212405551 0 0 60 (C2) n - 1
REM
REM in /home/nfs/bkarasulu/CARBON/AIRSS/Generating-Clusters/ReaxFF-fromJPCA2015/Units_Real/Try2-Higher-symm/Only-C60
REM
REM
REM
REM
REM
REM ./C.cell (863b2abdce7293c0672fb3ba77bf323a)
REM AIRSS Version 0.9.1 bugfix July 2018 build 013d7b7c2542+ Fri, 06 Jul 2018 19:26:36 +0100
REM compiler GCC version 9.2.1 20190827 (Red Hat 9.2.1-1)
REM options -cpp -mtune=generic -march=x86-64 -g -O0 -fpre-include=/usr/include/finclude/math-vector-fortran.h
REM seed 1093939743 886292992 790667339 1802760384 478549593 398913346 1273893715 318190434 -756998259 1730508523 -1482297554 -873785250 -1987657253 -613552799 640498212 -875553976 -1981647002 425873022 1358677665 168834123 -519082383 393995549 565340414 366600058 -588220731 -1217687708 1605850766 966685592 624956336 701601755 -1470028587 300342705 -384324714
REM
CELL 1.54180   15.00000   15.00000   15.00000   90.00000   90.00000   90.00000
LATT -1
SFAC C  
C      1  0.5655040000000  0.6959020000000  0.3113680000000 1.0
C      1  0.5656400000000  0.7697610000000  0.4635290000000 1.0
C      1  0.5646560000000  0.7353370000000  0.6264650000000 1.0
C      1  0.5720800000000  0.6199050000000  0.7477030000000 1.0
C      1  0.5646160000000  0.4529770000000  0.7623600000000 1.0
C      1  0.5655040000000  0.3040970000000  0.6886310000000 1.0
C      1  0.5656410000000  0.2302390000000  0.5364700000000 1.0
C      1  0.5646580000000  0.2646630000000  0.3735350000000 1.0
C      1  0.5720800000000  0.3800950000000  0.2522970000000 1.0
C      1  0.5646160000000  0.5470230000000  0.2376390000000 1.0
C      1  0.4719830000000  0.6210550000000  0.7494430000000 1.0
C      1  0.4673480000000  0.4591540000000  0.7381550000000 1.0
C      1  0.4644850000000  0.3055910000000  0.6898930000000 1.0
C      1  0.4647400000000  0.2303820000000  0.5341630000000 1.0
C      1  0.4671050000000  0.2864370000000  0.3830820000000 1.0
C      1  0.4719840000000  0.3789450000000  0.2505590000000 1.0
C      1  0.4673490000000  0.5408450000000  0.2618450000000 1.0
C      1  0.4644830000000  0.6944080000000  0.3100990000000 1.0
C      1  0.4647390000000  0.7696190000000  0.4658380000000 1.0
C      1  0.4671050000000  0.7135640000000  0.6169190000000 1.0
C      1  0.3175390000000  0.5746570000000  0.3582500000000 1.0
C      1  0.3148010000000  0.5955370000000  0.4541450000000 1.0
C      1  0.3179000000000  0.6583050000000  0.5295040000000 1.0
C      1  0.2720770000000  0.5921180000000  0.5845210000000 1.0
C      1  0.2720710000000  0.5098240000000  0.6236080000000 1.0
C      1  0.3175370000000  0.4253430000000  0.6417500000000 1.0
C      1  0.3147960000000  0.4044620000000  0.5458600000000 1.0
C      1  0.3178990000000  0.3416940000000  0.4704960000000 1.0
C      1  0.2720750000000  0.4078850000000  0.4154760000000 1.0
C      1  0.2720720000000  0.4901770000000  0.3763930000000 1.0
C      1  0.6629490000000  0.5744540000000  0.3617370000000 1.0
C      1  0.6606490000000  0.6415500000000  0.4315970000000 1.0
C      1  0.6625340000000  0.6548450000000  0.5275390000000 1.0
C      1  0.6634850000000  0.6088260000000  0.6131080000000 1.0
C      1  0.6635240000000  0.5212390000000  0.6553370000000 1.0
C      1  0.6629500000000  0.4255460000000  0.6382620000000 1.0
C      1  0.6606500000000  0.3584500000000  0.5684030000000 1.0
C      1  0.6625350000000  0.3451550000000  0.4724610000000 1.0
C      1  0.6634860000000  0.3911740000000  0.3868920000000 1.0
C      1  0.6635240000000  0.4787610000000  0.3446630000000 1.0
C      1  0.3892220000000  0.2868710000000  0.5508380000000 1.0
C      1  0.3914880000000  0.3435390000000  0.3863040000000 1.0
C      1  0.3987950000000  0.4068220000000  0.3078290000000 1.0
C      1  0.3914500000000  0.5077120000000  0.3076140000000 1.0
C      1  0.3891540000000  0.6720350000000  0.3647500000000 1.0
C      1  0.3892190000000  0.7131320000000  0.4491630000000 1.0
C      1  0.3914890000000  0.6564610000000  0.6136950000000 1.0
C      1  0.3987960000000  0.5931780000000  0.6921710000000 1.0
C      1  0.3914490000000  0.4922870000000  0.6923850000000 1.0
C      1  0.3891500000000  0.3279660000000  0.6352520000000 1.0
C      1  0.6148030000000  0.4674230000000  0.2611890000000 1.0
C      1  0.6126190000000  0.6143570000000  0.2882370000000 1.0
C      1  0.6094230000000  0.7163770000000  0.3953480000000 1.0
C      1  0.6124080000000  0.7373000000000  0.5420680000000 1.0
C      1  0.6149570000000  0.6672880000000  0.6739320000000 1.0
C      1  0.6148020000000  0.5325770000000  0.7388110000000 1.0
C      1  0.6126180000000  0.3856420000000  0.7117630000000 1.0
C      1  0.6094250000000  0.2836220000000  0.6046530000000 1.0
C      1  0.6124090000000  0.2627000000000  0.4579310000000 1.0
C      1  0.6149570000000  0.3327110000000  0.3260680000000 1.0
END
