TITL C-1525613-7943-6875 0.560018126907157 3375 -8258.60508940084 0 0 60 (C5) n - 1
REM
REM in /home/nfs/bkarasulu/CARBON/AIRSS/Generating-Clusters/ReaxFF-fromJPCA2015/Units_Real/Try2-Higher-symm/Only-C60
REM
REM
REM
REM
REM
REM ./C.cell (863b2abdce7293c0672fb3ba77bf323a)
REM AIRSS Version 0.9.1 bugfix July 2018 build 013d7b7c2542+ Fri, 06 Jul 2018 19:26:36 +0100
REM compiler GCC version 9.2.1 20190827 (Red Hat 9.2.1-1)
REM options -cpp -mtune=generic -march=x86-64 -g -O0 -fpre-include=/usr/include/finclude/math-vector-fortran.h
REM seed 810281021 -1142131617 504912891 -955949445 -1671829788 -1482512597 -426845354 -1193370124 1891635501 1731903646 -1809003079 -139531229 90031374 234150665 -1119240395 1532065442 102978545 1085357080 -1832397541 355094756 -265626557 -1784677578 -1113557629 -1323997890 -933606356 -908909806 915690109 -1363698295 207336789 -34611164 984186368 1733468378 1971813907
REM
CELL 1.54180   15.00000   15.00000   15.00000   90.00000   90.00000   90.00000
LATT -1
SFAC C  
C      1  0.6522220000000  0.5489420000000  0.6368130000000 1.0
C      1  0.4996940000000  0.6592010000000  0.6364270000000 1.0
C      1  0.3491630000000  0.5495540000000  0.6367660000000 1.0
C      1  0.4059220000000  0.3715650000000  0.6375080000000 1.0
C      1  0.5929410000000  0.3705620000000  0.6373500000000 1.0
C      1  0.6518630000000  0.4498270000000  0.6371500000000 1.0
C      1  0.4991150000000  0.3411700000000  0.6367400000000 1.0
C      1  0.3486850000000  0.4510940000000  0.6367660000000 1.0
C      1  0.4062820000000  0.6292140000000  0.6372860000000 1.0
C      1  0.5937290000000  0.6294650000000  0.6350990000000 1.0
C      1  0.3513650000000  0.5492870000000  0.4903840000000 1.0
C      1  0.4073950000000  0.3725840000000  0.4947250000000 1.0
C      1  0.5931310000000  0.3720490000000  0.4943120000000 1.0
C      1  0.6510960000000  0.5473820000000  0.4917440000000 1.0
C      1  0.5005100000000  0.6566870000000  0.4905990000000 1.0
C      1  0.3516040000000  0.4509130000000  0.4902040000000 1.0
C      1  0.4067760000000  0.6278850000000  0.4951460000000 1.0
C      1  0.5938850000000  0.6287980000000  0.4993630000000 1.0
C      1  0.6502570000000  0.4519460000000  0.4922960000000 1.0
C      1  0.5012820000000  0.3436520000000  0.4908470000000 1.0
C      1  0.5925060000000  0.3711650000000  0.3191310000000 1.0
C      1  0.6511840000000  0.5485540000000  0.3184830000000 1.0
C      1  0.5002480000000  0.6590470000000  0.3183940000000 1.0
C      1  0.3486140000000  0.5496210000000  0.3184040000000 1.0
C      1  0.4058170000000  0.3719620000000  0.3188880000000 1.0
C      1  0.5924360000000  0.6286980000000  0.3194230000000 1.0
C      1  0.6512760000000  0.4514040000000  0.3185610000000 1.0
C      1  0.5002280000000  0.3409130000000  0.3182710000000 1.0
C      1  0.3485760000000  0.4503290000000  0.3184030000000 1.0
C      1  0.4058570000000  0.6279430000000  0.3188330000000 1.0
C      1  0.2568070000000  0.4504060000000  0.3589160000000 1.0
C      1  0.4716750000000  0.2538650000000  0.3589670000000 1.0
C      1  0.7252840000000  0.3972170000000  0.3590180000000 1.0
C      1  0.6666300000000  0.6827750000000  0.3599780000000 1.0
C      1  0.3772750000000  0.7149850000000  0.3595460000000 1.0
C      1  0.2568270000000  0.5496200000000  0.3589160000000 1.0
C      1  0.4715480000000  0.7461010000000  0.3590260000000 1.0
C      1  0.7254350000000  0.6026720000000  0.3585930000000 1.0
C      1  0.6666720000000  0.3171940000000  0.3595400000000 1.0
C      1  0.3774460000000  0.2849410000000  0.3597920000000 1.0
C      1  0.6509890000000  0.4511590000000  0.7343170000000 1.0
C      1  0.5938370000000  0.6300410000000  0.7329120000000 1.0
C      1  0.4052220000000  0.6288730000000  0.7344920000000 1.0
C      1  0.3494350000000  0.4504050000000  0.7341750000000 1.0
C      1  0.5000180000000  0.3407360000000  0.7340570000000 1.0
C      1  0.6500780000000  0.5490940000000  0.7332010000000 1.0
C      1  0.5937210000000  0.3707570000000  0.7342770000000 1.0
C      1  0.4066790000000  0.3704000000000  0.7342240000000 1.0
C      1  0.3489160000000  0.5484890000000  0.7341630000000 1.0
C      1  0.4994710000000  0.6588680000000  0.7333090000000 1.0
C      1  0.2570200000000  0.5497100000000  0.4580970000000 1.0
C      1  0.3780150000000  0.2844500000000  0.4591080000000 1.0
C      1  0.6678790000000  0.3170850000000  0.4588360000000 1.0
C      1  0.7262000000000  0.6023870000000  0.4575270000000 1.0
C      1  0.4719180000000  0.7460980000000  0.4582730000000 1.0
C      1  0.2571240000000  0.4503320000000  0.4581010000000 1.0
C      1  0.3771930000000  0.7159740000000  0.4588360000000 1.0
C      1  0.6685870000000  0.6827800000000  0.4590020000000 1.0
C      1  0.7260090000000  0.3970550000000  0.4582710000000 1.0
C      1  0.4724280000000  0.2541190000000  0.4582150000000 1.0
END
