TITL C-1525613-7943-4070 -0.0328809782947036 3375 -8764.50294304324 0 0 60 (D5h) n - 1
REM
REM in /home/nfs/bkarasulu/CARBON/AIRSS/Generating-Clusters/ReaxFF-fromJPCA2015/Units_Real/Try2-Higher-symm/Only-C60
REM
REM
REM
REM
REM
REM ./C.cell (863b2abdce7293c0672fb3ba77bf323a)
REM AIRSS Version 0.9.1 bugfix July 2018 build 013d7b7c2542+ Fri, 06 Jul 2018 19:26:36 +0100
REM compiler GCC version 9.2.1 20190827 (Red Hat 9.2.1-1)
REM options -cpp -mtune=generic -march=x86-64 -g -O0 -fpre-include=/usr/include/finclude/math-vector-fortran.h
REM seed 235881563 -466802754 2075392316 1121841333 29325414 -138424120 -304371390 828082020 1541748825 18677271 1481065428 1548414473 -342685875 -1778058045 -261110874 -581899804 427447935 1709535852 1884085456 -1049422919 270226115 1588116030 -156286444 859533565 -1754436923 -752768816 1558285337 -539940827 -1103938864 -944722951 1937943947 -891512931 -1286357017
REM
CELL 1.54180   15.00000   15.00000   15.00000   90.00000   90.00000   90.00000
LATT -1
SFAC C  
C      1  0.6905200000000  0.3272740000000  0.4627510000000 1.0
C      1  0.6905560000000  0.4819620000000  0.3242400000000 1.0
C      1  0.6905770000000  0.6616360000000  0.4285260000000 1.0
C      1  0.6905170000000  0.6179050000000  0.6316680000000 1.0
C      1  0.6905160000000  0.4111950000000  0.6527510000000 1.0
C      1  0.3094800000000  0.3272740000000  0.4627510000000 1.0
C      1  0.3094440000000  0.4819620000000  0.3242400000000 1.0
C      1  0.3094230000000  0.6616360000000  0.4285260000000 1.0
C      1  0.3094830000000  0.6179050000000  0.6316680000000 1.0
C      1  0.3094840000000  0.4111950000000  0.6527510000000 1.0
C      1  0.5578490000000  0.5828690000000  0.5162510000000 1.0
C      1  0.5566780000000  0.5093900000000  0.5837770000000 1.0
C      1  0.5541340000000  0.4232040000000  0.5344710000000 1.0
C      1  0.5537030000000  0.4423540000000  0.4384510000000 1.0
C      1  0.5555620000000  0.5400870000000  0.4260230000000 1.0
C      1  0.4421510000000  0.5828690000000  0.5162510000000 1.0
C      1  0.4433220000000  0.5093900000000  0.5837770000000 1.0
C      1  0.4458660000000  0.4232040000000  0.5344710000000 1.0
C      1  0.4462970000000  0.4423540000000  0.4384510000000 1.0
C      1  0.4444380000000  0.5400870000000  0.4260230000000 1.0
C      1  0.7238140000000  0.4191650000000  0.4821210000000 1.0
C      1  0.7238180000000  0.4919640000000  0.4175910000000 1.0
C      1  0.7237710000000  0.5758570000000  0.4669170000000 1.0
C      1  0.7237490000000  0.5548950000000  0.5619450000000 1.0
C      1  0.7237530000000  0.4580790000000  0.5713410000000 1.0
C      1  0.2761860000000  0.4191650000000  0.4821210000000 1.0
C      1  0.2761820000000  0.4919640000000  0.4175910000000 1.0
C      1  0.2762290000000  0.5758570000000  0.4669170000000 1.0
C      1  0.2762510000000  0.5548950000000  0.5619450000000 1.0
C      1  0.2762470000000  0.4580790000000  0.5713410000000 1.0
C      1  0.4400820000000  0.5918460000000  0.3372950000000 1.0
C      1  0.4400140000000  0.6834850000000  0.5373340000000 1.0
C      1  0.4400140000000  0.5209490000000  0.6860240000000 1.0
C      1  0.4400910000000  0.3304070000000  0.5770210000000 1.0
C      1  0.4400930000000  0.3745090000000  0.3630610000000 1.0
C      1  0.5599180000000  0.5918460000000  0.3372950000000 1.0
C      1  0.5599860000000  0.6834850000000  0.5373340000000 1.0
C      1  0.5599860000000  0.5209490000000  0.6860240000000 1.0
C      1  0.5599090000000  0.3304070000000  0.5770210000000 1.0
C      1  0.5599070000000  0.3745090000000  0.3630610000000 1.0
C      1  0.6118730000000  0.5237620000000  0.2842620000000 1.0
C      1  0.6119410000000  0.7127770000000  0.4559250000000 1.0
C      1  0.6118880000000  0.6074490000000  0.6884960000000 1.0
C      1  0.6117610000000  0.3541870000000  0.6600430000000 1.0
C      1  0.6117680000000  0.3026750000000  0.4108210000000 1.0
C      1  0.3881270000000  0.5237620000000  0.2842620000000 1.0
C      1  0.3880590000000  0.7127770000000  0.4559250000000 1.0
C      1  0.3881120000000  0.6074490000000  0.6884960000000 1.0
C      1  0.3882390000000  0.3541870000000  0.6600430000000 1.0
C      1  0.3882320000000  0.3026750000000  0.4108210000000 1.0
C      1  0.3862020000000  0.4283230000000  0.2969710000000 1.0
C      1  0.3861850000000  0.6711830000000  0.3688690000000 1.0
C      1  0.3860100000000  0.6778190000000  0.6227250000000 1.0
C      1  0.3860450000000  0.4382900000000  0.7070020000000 1.0
C      1  0.3861700000000  0.2845020000000  0.5053250000000 1.0
C      1  0.6137980000000  0.4283230000000  0.2969710000000 1.0
C      1  0.6138150000000  0.6711830000000  0.3688690000000 1.0
C      1  0.6139900000000  0.6778190000000  0.6227250000000 1.0
C      1  0.6139550000000  0.4382900000000  0.7070020000000 1.0
C      1  0.6138300000000  0.2845020000000  0.5053250000000 1.0
END
