TITL C-1525613-7943-1679 0.0385541478743743 3375 -8961.85456071017 0 0 60 (Ci) n - 1
REM
REM in /home/nfs/bkarasulu/CARBON/AIRSS/Generating-Clusters/ReaxFF-fromJPCA2015/Units_Real/Try2-Higher-symm/Only-C60
REM
REM
REM
REM
REM
REM ./C.cell (863b2abdce7293c0672fb3ba77bf323a)
REM AIRSS Version 0.9.1 bugfix July 2018 build 013d7b7c2542+ Fri, 06 Jul 2018 19:26:36 +0100
REM compiler GCC version 9.2.1 20190827 (Red Hat 9.2.1-1)
REM options -cpp -mtune=generic -march=x86-64 -g -O0 -fpre-include=/usr/include/finclude/math-vector-fortran.h
REM seed -401681397 -1709892509 1340470204 -320345873 -664708311 513478206 -609374237 -1549151971 -399034418 2145178941 -1327563710 -1222849613 -935323611 -1770876062 1181929472 -1225821735 -1443841941 -303797949 -1880095200 945916625 -988786915 -877111103 783533525 -1450184519 1188599815 1359113396 1311022459 -246258852 1233263160 -1222762986 2100348529 -845215420 1859187968
REM
CELL 1.54180   15.00000   15.00000   15.00000   90.00000   90.00000   90.00000
LATT -1
SFAC C  
C      1  0.2551450000000  0.5857850000000  0.4601490000000 1.0
C      1  0.3118800000000  0.4408670000000  0.6371360000000 1.0
C      1  0.4372100000000  0.5449050000000  0.6899250000000 1.0
C      1  0.5748300000000  0.4351750000000  0.7222780000000 1.0
C      1  0.6647330000000  0.5449840000000  0.6066460000000 1.0
C      1  0.7470710000000  0.4152650000000  0.5408370000000 1.0
C      1  0.6875080000000  0.5576070000000  0.3635420000000 1.0
C      1  0.5614160000000  0.4552560000000  0.3108870000000 1.0
C      1  0.4241450000000  0.5648100000000  0.2784920000000 1.0
C      1  0.3346440000000  0.4550020000000  0.3945770000000 1.0
C      1  0.4845630000000  0.3382660000000  0.6904450000000 1.0
C      1  0.5885270000000  0.6776940000000  0.6602430000000 1.0
C      1  0.6941250000000  0.3066710000000  0.5950430000000 1.0
C      1  0.6827100000000  0.6839460000000  0.4594120000000 1.0
C      1  0.6358650000000  0.3568540000000  0.3711880000000 1.0
C      1  0.5157280000000  0.6608530000000  0.3094230000000 1.0
C      1  0.4114350000000  0.3227410000000  0.3397890000000 1.0
C      1  0.3076470000000  0.6952740000000  0.4049110000000 1.0
C      1  0.3178530000000  0.3148510000000  0.5405740000000 1.0
C      1  0.3637790000000  0.6427180000000  0.6275450000000 1.0
C      1  0.3369520000000  0.7003650000000  0.5597390000000 1.0
C      1  0.4146870000000  0.2990550000000  0.6456370000000 1.0
C      1  0.5037000000000  0.7105580000000  0.6719340000000 1.0
C      1  0.6188770000000  0.2768530000000  0.6386710000000 1.0
C      1  0.6630150000000  0.7116720000000  0.5449490000000 1.0
C      1  0.6633960000000  0.3008080000000  0.4399930000000 1.0
C      1  0.5859310000000  0.6995970000000  0.3541090000000 1.0
C      1  0.4962150000000  0.2898740000000  0.3273350000000 1.0
C      1  0.3819180000000  0.7244810000000  0.3595950000000 1.0
C      1  0.3373910000000  0.2875110000000  0.4548590000000 1.0
C      1  0.6646560000000  0.6413710000000  0.6220390000000 1.0
C      1  0.7348710000000  0.3253080000000  0.5134450000000 1.0
C      1  0.6783640000000  0.6557060000000  0.3727430000000 1.0
C      1  0.5704900000000  0.3580620000000  0.3066100000000 1.0
C      1  0.4290340000000  0.6628650000000  0.2901970000000 1.0
C      1  0.3354130000000  0.3586720000000  0.3786210000000 1.0
C      1  0.2657660000000  0.6763210000000  0.4860470000000 1.0
C      1  0.3222540000000  0.3429360000000  0.6273070000000 1.0
C      1  0.4292560000000  0.6421850000000  0.6919370000000 1.0
C      1  0.5713270000000  0.3372960000000  0.7088660000000 1.0
C      1  0.5388060000000  0.7470800000000  0.4298610000000 1.0
C      1  0.5035020000000  0.2459790000000  0.4164660000000 1.0
C      1  0.4413550000000  0.7538160000000  0.4342830000000 1.0
C      1  0.4273820000000  0.2485210000000  0.4786920000000 1.0
C      1  0.4154610000000  0.7511930000000  0.5290300000000 1.0
C      1  0.4619360000000  0.2520040000000  0.5695290000000 1.0
C      1  0.4970920000000  0.7543850000000  0.5828080000000 1.0
C      1  0.5591350000000  0.2462590000000  0.5649430000000 1.0
C      1  0.5732690000000  0.7508710000000  0.5206130000000 1.0
C      1  0.5851130000000  0.2494200000000  0.4704020000000 1.0
C      1  0.7193100000000  0.5043370000000  0.5334260000000 1.0
C      1  0.7021040000000  0.4923710000000  0.4330300000000 1.0
C      1  0.6155820000000  0.4933170000000  0.3848870000000 1.0
C      1  0.4726130000000  0.4872850000000  0.2952900000000 1.0
C      1  0.4036300000000  0.5075270000000  0.3538440000000 1.0
C      1  0.2797380000000  0.4959580000000  0.4674920000000 1.0
C      1  0.2958340000000  0.5060910000000  0.5681870000000 1.0
C      1  0.3826260000000  0.5068450000000  0.6161840000000 1.0
C      1  0.5259170000000  0.5126110000000  0.7057890000000 1.0
C      1  0.5952660000000  0.4931080000000  0.6475690000000 1.0
END
