TITL C-1525613-7943-3516 0.178917878930261 3375 -8190.85638044965 0 0 60 (S10) n - 1
REM
REM in /home/nfs/bkarasulu/CARBON/AIRSS/Generating-Clusters/ReaxFF-fromJPCA2015/Units_Real/Try2-Higher-symm/Only-C60
REM
REM
REM
REM
REM
REM ./C.cell (863b2abdce7293c0672fb3ba77bf323a)
REM AIRSS Version 0.9.1 bugfix July 2018 build 013d7b7c2542+ Fri, 06 Jul 2018 19:26:36 +0100
REM compiler GCC version 9.2.1 20190827 (Red Hat 9.2.1-1)
REM options -cpp -mtune=generic -march=x86-64 -g -O0 -fpre-include=/usr/include/finclude/math-vector-fortran.h
REM seed 1279932935 1182423086 -1408383272 333813452 -1168733110 -1094215165 1361037711 403247453 317640154 -1142102197 415972683 -1997824713 610254824 -472857024 104225446 2139080606 575567922 2094864377 -1339776610 -1505707858 -441146792 -1730473185 1378503984 900975770 645463795 -1097190592 -15549859 662194864 -606459006 -2047091665 182341810 2046536134 1107297958
REM
CELL 1.54180   15.00000   15.00000   15.00000   90.00000   90.00000   90.00000
LATT -1
SFAC C  
C      1  0.5788000000000  0.6734340000000  0.6216690000000 1.0
C      1  0.6352100000000  0.3266510000000  0.5520720000000 1.0
C      1  0.6399740000000  0.6733440000000  0.4626270000000 1.0
C      1  0.5913490000000  0.3265300000000  0.3873950000000 1.0
C      1  0.5077260000000  0.6735300000000  0.3551450000000 1.0
C      1  0.4212000000000  0.3265660000000  0.3783310000000 1.0
C      1  0.3647900000000  0.6733490000000  0.4479280000000 1.0
C      1  0.3600260000000  0.3266560000000  0.5373730000000 1.0
C      1  0.4086510000000  0.6734700000000  0.6126050000000 1.0
C      1  0.4922740000000  0.3264700000000  0.6448550000000 1.0
C      1  0.5595570000000  0.4395090000000  0.4478310000000 1.0
C      1  0.5174320000000  0.5606440000000  0.4229270000000 1.0
C      1  0.4686630000000  0.4396180000000  0.4273220000000 1.0
C      1  0.4319200000000  0.5602760000000  0.4595610000000 1.0
C      1  0.4210670000000  0.4397240000000  0.5071990000000 1.0
C      1  0.4404430000000  0.5604910000000  0.5521690000000 1.0
C      1  0.4825680000000  0.4393560000000  0.5770730000000 1.0
C      1  0.5313370000000  0.5603820000000  0.5726780000000 1.0
C      1  0.5680800000000  0.4397240000000  0.5404390000000 1.0
C      1  0.5789330000000  0.5602760000000  0.4928010000000 1.0
C      1  0.4369190000000  0.6881140000000  0.3970610000000 1.0
C      1  0.3884490000000  0.3118740000000  0.4537970000000 1.0
C      1  0.3824970000000  0.6881960000000  0.5282110000000 1.0
C      1  0.4215250000000  0.3117660000000  0.5918950000000 1.0
C      1  0.4905080000000  0.6881870000000  0.6204210000000 1.0
C      1  0.5630810000000  0.3118860000000  0.6029390000000 1.0
C      1  0.6115510000000  0.6881260000000  0.5462030000000 1.0
C      1  0.6175030000000  0.3118040000000  0.4717890000000 1.0
C      1  0.5784750000000  0.6882340000000  0.4081050000000 1.0
C      1  0.5094920000000  0.3118130000000  0.3795790000000 1.0
C      1  0.5264740000000  0.4543220000000  0.2880960000000 1.0
C      1  0.3969140000000  0.5456790000000  0.3129960000000 1.0
C      1  0.3066700000000  0.4543200000000  0.4093250000000 1.0
C      1  0.2902810000000  0.5456730000000  0.5403180000000 1.0
C      1  0.3540400000000  0.4543470000000  0.6559150000000 1.0
C      1  0.4735260000000  0.5456780000000  0.7119040000000 1.0
C      1  0.6030860000000  0.4543210000000  0.6870040000000 1.0
C      1  0.6933300000000  0.5456800000000  0.5906750000000 1.0
C      1  0.7097190000000  0.4543270000000  0.4596820000000 1.0
C      1  0.6459600000000  0.5456530000000  0.3440850000000 1.0
C      1  0.5594530000000  0.5432320000000  0.2930780000000 1.0
C      1  0.4265190000000  0.4567560000000  0.2977290000000 1.0
C      1  0.3217110000000  0.5432190000000  0.3795720000000 1.0
C      1  0.2849680000000  0.4567830000000  0.5073850000000 1.0
C      1  0.3303710000000  0.5432380000000  0.6323850000000 1.0
C      1  0.4405470000000  0.4567680000000  0.7069220000000 1.0
C      1  0.5734810000000  0.5432440000000  0.7022710000000 1.0
C      1  0.6782890000000  0.4567810000000  0.6204280000000 1.0
C      1  0.7150320000000  0.5432170000000  0.4926150000000 1.0
C      1  0.6696290000000  0.4567620000000  0.3676150000000 1.0
C      1  0.6987060000000  0.3990530000000  0.5420920000000 1.0
C      1  0.6854460000000  0.6009480000000  0.4172530000000 1.0
C      1  0.6014750000000  0.3990200000000  0.3239720000000 1.0
C      1  0.4786650000000  0.6009620000000  0.2979010000000 1.0
C      1  0.3639510000000  0.3990250000000  0.3490590000000 1.0
C      1  0.3012940000000  0.6009470000000  0.4579080000000 1.0
C      1  0.3145540000000  0.3990520000000  0.5827470000000 1.0
C      1  0.3985250000000  0.6009800000000  0.6760280000000 1.0
C      1  0.5213350000000  0.3990380000000  0.7020990000000 1.0
C      1  0.6360490000000  0.6009750000000  0.6509410000000 1.0
END
