TITL C-1525613-7943-6404 -8.01850097090223e-05 3375 -8898.84936936071 0 0 60 (D5h) n - 1
REM
REM in /home/nfs/bkarasulu/CARBON/AIRSS/Generating-Clusters/ReaxFF-fromJPCA2015/Units_Real/Try2-Higher-symm/Only-C60
REM
REM
REM
REM
REM
REM ./C.cell (863b2abdce7293c0672fb3ba77bf323a)
REM AIRSS Version 0.9.1 bugfix July 2018 build 013d7b7c2542+ Fri, 06 Jul 2018 19:26:36 +0100
REM compiler GCC version 9.2.1 20190827 (Red Hat 9.2.1-1)
REM options -cpp -mtune=generic -march=x86-64 -g -O0 -fpre-include=/usr/include/finclude/math-vector-fortran.h
REM seed 959714200 -565008186 -656904464 -1851050543 1518837155 -1990242380 1971758559 -1657676834 731550503 618662622 -1742013033 -227956163 -1541331379 1300591730 1697196454 -2006517453 698942386 -2057199080 -251160268 307263161 -279123927 1649888183 -951970059 -105900888 -1069665550 1902690867 -2116478402 -835982927 -819439188 1878084333 -196706946 839986328 386428720
REM
CELL 1.54180   15.00000   15.00000   15.00000   90.00000   90.00000   90.00000
LATT -1
SFAC C  
C      1  0.6668230000000  0.5953770000000  0.4503400000000 1.0
C      1  0.6000610000000  0.5963640000000  0.6443940000000 1.0
C      1  0.3924630000000  0.5978620000000  0.6408180000000 1.0
C      1  0.3330180000000  0.5978140000000  0.4409120000000 1.0
C      1  0.5048110000000  0.5963310000000  0.3244190000000 1.0
C      1  0.6668230000000  0.4046230000000  0.4503400000000 1.0
C      1  0.6000610000000  0.4036360000000  0.6443940000000 1.0
C      1  0.3924630000000  0.4021380000000  0.6408180000000 1.0
C      1  0.3330170000000  0.4021860000000  0.4409110000000 1.0
C      1  0.5048110000000  0.4036680000000  0.3244180000000 1.0
C      1  0.5778380000000  0.3082760000000  0.6135690000000 1.0
C      1  0.4159900000000  0.3066100000000  0.6095840000000 1.0
C      1  0.3698040000000  0.3067040000000  0.4542240000000 1.0
C      1  0.5030920000000  0.3082750000000  0.3623290000000 1.0
C      1  0.6310290000000  0.3096030000000  0.4609950000000 1.0
C      1  0.5778380000000  0.6917240000000  0.6135690000000 1.0
C      1  0.4159900000000  0.6933900000000  0.6095840000000 1.0
C      1  0.3698040000000  0.6932960000000  0.4542240000000 1.0
C      1  0.5030920000000  0.6917250000000  0.3623290000000 1.0
C      1  0.6310290000000  0.6903970000000  0.4609950000000 1.0
C      1  0.4496600000000  0.5566480000000  0.5666390000000 1.0
C      1  0.4213990000000  0.5564690000000  0.4717090000000 1.0
C      1  0.5039220000000  0.5527480000000  0.4162310000000 1.0
C      1  0.5809520000000  0.5508020000000  0.4758890000000 1.0
C      1  0.5491230000000  0.5527980000000  0.5679990000000 1.0
C      1  0.4496600000000  0.4433520000000  0.5666400000000 1.0
C      1  0.4213980000000  0.4435310000000  0.4717090000000 1.0
C      1  0.5039220000000  0.4472520000000  0.4162310000000 1.0
C      1  0.5809520000000  0.4491990000000  0.4758900000000 1.0
C      1  0.5491230000000  0.4472020000000  0.5679990000000 1.0
C      1  0.5433080000000  0.4511840000000  0.7203490000000 1.0
C      1  0.3037750000000  0.4511360000000  0.6093590000000 1.0
C      1  0.3351050000000  0.4511150000000  0.3469280000000 1.0
C      1  0.5948790000000  0.4511210000000  0.2950720000000 1.0
C      1  0.7232830000000  0.4512390000000  0.5273720000000 1.0
C      1  0.5433080000000  0.5488160000000  0.7203490000000 1.0
C      1  0.3037750000000  0.5488640000000  0.6093590000000 1.0
C      1  0.3351050000000  0.5488850000000  0.3469280000000 1.0
C      1  0.5948790000000  0.5488790000000  0.2950720000000 1.0
C      1  0.7232830000000  0.5487610000000  0.5273720000000 1.0
C      1  0.2759210000000  0.4511350000000  0.5157280000000 1.0
C      1  0.4157550000000  0.4511860000000  0.2918040000000 1.0
C      1  0.6719800000000  0.4512380000000  0.3549770000000 1.0
C      1  0.6914880000000  0.4511190000000  0.6196890000000 1.0
C      1  0.4456400000000  0.4511160000000  0.7183230000000 1.0
C      1  0.2759220000000  0.5488650000000  0.5157280000000 1.0
C      1  0.4157550000000  0.5488140000000  0.2918050000000 1.0
C      1  0.6719800000000  0.5487620000000  0.3549770000000 1.0
C      1  0.6914880000000  0.5488810000000  0.6196890000000 1.0
C      1  0.4456400000000  0.5488840000000  0.7183230000000 1.0
C      1  0.5681680000000  0.7181360000000  0.4105200000000 1.0
C      1  0.6059060000000  0.7181190000000  0.5376040000000 1.0
C      1  0.4970660000000  0.7189770000000  0.6131940000000 1.0
C      1  0.3920340000000  0.7193960000000  0.5321520000000 1.0
C      1  0.4357090000000  0.7189400000000  0.4068780000000 1.0
C      1  0.5681680000000  0.2818640000000  0.4105200000000 1.0
C      1  0.6059060000000  0.2818810000000  0.5376040000000 1.0
C      1  0.4970660000000  0.2810230000000  0.6131940000000 1.0
C      1  0.3920340000000  0.2806040000000  0.5321520000000 1.0
C      1  0.4357090000000  0.2810600000000  0.4068780000000 1.0
END
