TITL C-1525613-7943-2 -0.00178117312382304 3375 -9575.03282971649 0 0 60 (D10) n - 1
REM
REM in /home/nfs/bkarasulu/CARBON/AIRSS/Generating-Clusters/ReaxFF-fromJPCA2015/Units_Real/Try2-Higher-symm/Only-C60
REM
REM
REM
REM
REM
REM ./C.cell (863b2abdce7293c0672fb3ba77bf323a)
REM AIRSS Version 0.9.1 bugfix July 2018 build 013d7b7c2542+ Fri, 06 Jul 2018 19:26:36 +0100
REM compiler GCC version 9.2.1 20190827 (Red Hat 9.2.1-1)
REM options -cpp -mtune=generic -march=x86-64 -g -O0 -fpre-include=/usr/include/finclude/math-vector-fortran.h
REM seed -1350539633 1377617198 148159289 1331622611 99769100 -323870847 -1015577061 -164643261 2017631429 561283013 -1472192983 1868681126 -1212320413 335450713 -1663025288 -1944036223 1533997060 1789453482 54444991 748842597 -1819232371 -970627920 -310350142 1160021785 -2130163410 412896799 1882827924 -1535948803 -1470885274 -226948742 815598640 -1631792823 545928584
REM
CELL 1.54180   15.00000   15.00000   15.00000   90.00000   90.00000   90.00000
LATT -1
SFAC C  
C      1  0.7043320000000  0.5927180000000  0.6199350000000 1.0
C      1  0.5948110000000  0.5927180000000  0.7171350000000 1.0
C      1  0.4490750000000  0.5927190000000  0.7313980000000 1.0
C      1  0.3227900000000  0.5927180000000  0.6572730000000 1.0
C      1  0.2641940000000  0.5927190000000  0.5230750000000 1.0
C      1  0.2956680000000  0.5927180000000  0.3800650000000 1.0
C      1  0.4051890000000  0.5927180000000  0.2828650000000 1.0
C      1  0.5509240000000  0.5927190000000  0.2686020000000 1.0
C      1  0.6772100000000  0.5927190000000  0.3427270000000 1.0
C      1  0.7358060000000  0.5927190000000  0.4769250000000 1.0
C      1  0.5336340000000  0.3565120000000  0.3471770000000 1.0
C      1  0.6170370000000  0.3565110000000  0.3961300000000 1.0
C      1  0.6557320000000  0.3565140000000  0.4847590000000 1.0
C      1  0.6349430000000  0.3565160000000  0.5792060000000 1.0
C      1  0.5626130000000  0.3565150000000  0.6434000000000 1.0
C      1  0.4663660000000  0.3565120000000  0.6528230000000 1.0
C      1  0.3829630000000  0.3565110000000  0.6038700000000 1.0
C      1  0.3442680000000  0.3565140000000  0.5152410000000 1.0
C      1  0.3650570000000  0.3565160000000  0.4207940000000 1.0
C      1  0.4373870000000  0.3565150000000  0.3566000000000 1.0
C      1  0.6772120000000  0.4072810000000  0.3427250000000 1.0
C      1  0.7358060000000  0.4072810000000  0.4769240000000 1.0
C      1  0.7043300000000  0.4072820000000  0.6199330000000 1.0
C      1  0.5948100000000  0.4072820000000  0.7171340000000 1.0
C      1  0.4490740000000  0.4072810000000  0.7313990000000 1.0
C      1  0.3227880000000  0.4072810000000  0.6572750000000 1.0
C      1  0.2641940000000  0.4072810000000  0.5230760000000 1.0
C      1  0.2956700000000  0.4072820000000  0.3800670000000 1.0
C      1  0.4051910000000  0.4072820000000  0.2828660000000 1.0
C      1  0.5509250000000  0.4072810000000  0.2686000000000 1.0
C      1  0.2399720000000  0.5493050000000  0.4427760000000 1.0
C      1  0.3232710000000  0.5493050000000  0.3008640000000 1.0
C      1  0.4740720000000  0.5493050000000  0.2350130000000 1.0
C      1  0.6347780000000  0.5493050000000  0.2703800000000 1.0
C      1  0.7440040000000  0.5493050000000  0.3934540000000 1.0
C      1  0.7600280000000  0.5493060000000  0.5572240000000 1.0
C      1  0.6767290000000  0.5493050000000  0.6991360000000 1.0
C      1  0.5259280000000  0.5493050000000  0.7649870000000 1.0
C      1  0.3652220000000  0.5493050000000  0.7296200000000 1.0
C      1  0.2559960000000  0.5493060000000  0.6065460000000 1.0
C      1  0.3442680000000  0.6434860000000  0.5152400000000 1.0
C      1  0.3650550000000  0.6434860000000  0.4207920000000 1.0
C      1  0.4373850000000  0.6434860000000  0.3565980000000 1.0
C      1  0.5336330000000  0.6434870000000  0.3471780000000 1.0
C      1  0.6170350000000  0.6434870000000  0.3961320000000 1.0
C      1  0.6557320000000  0.6434860000000  0.4847600000000 1.0
C      1  0.6349450000000  0.6434860000000  0.5792080000000 1.0
C      1  0.5626150000000  0.6434860000000  0.6434020000000 1.0
C      1  0.4663670000000  0.6434870000000  0.6528220000000 1.0
C      1  0.3829650000000  0.6434870000000  0.6038680000000 1.0
C      1  0.6347790000000  0.4506950000000  0.2703790000000 1.0
C      1  0.7440050000000  0.4506940000000  0.3934530000000 1.0
C      1  0.7600280000000  0.4506940000000  0.5572230000000 1.0
C      1  0.6767290000000  0.4506950000000  0.6991350000000 1.0
C      1  0.5259280000000  0.4506950000000  0.7649870000000 1.0
C      1  0.3652210000000  0.4506950000000  0.7296210000000 1.0
C      1  0.2559950000000  0.4506940000000  0.6065470000000 1.0
C      1  0.2399730000000  0.4506950000000  0.4427770000000 1.0
C      1  0.3232710000000  0.4506950000000  0.3008650000000 1.0
C      1  0.4740720000000  0.4506950000000  0.2350130000000 1.0
END
