TITL C-1525613-7943-7407 1.04827861779035 3375 -7986.9837711622 0 0 60 (S10) n - 1
REM
REM in /home/nfs/bkarasulu/CARBON/AIRSS/Generating-Clusters/ReaxFF-fromJPCA2015/Units_Real/Try2-Higher-symm/Only-C60
REM
REM
REM
REM
REM
REM ./C.cell (863b2abdce7293c0672fb3ba77bf323a)
REM AIRSS Version 0.9.1 bugfix July 2018 build 013d7b7c2542+ Fri, 06 Jul 2018 19:26:36 +0100
REM compiler GCC version 9.2.1 20190827 (Red Hat 9.2.1-1)
REM options -cpp -mtune=generic -march=x86-64 -g -O0 -fpre-include=/usr/include/finclude/math-vector-fortran.h
REM seed 1462053021 -96181169 -1759357767 1432858743 435006137 1133085291 -408493736 2104296691 1752862606 956767910 414147403 1345773495 1860914896 13629983 1683365348 1777595011 -1421348265 -1182798020 -1537411559 1041296603 -1356689595 -233135027 1590382152 846953716 1016766055 -2128494881 1236893362 1604179617 -490093909 -976121577 867133939 160642552 -1623115016
REM
CELL 1.54180   15.00000   15.00000   15.00000   90.00000   90.00000   90.00000
LATT -1
SFAC C  
C      1  0.4815810000000  0.3159500000000  0.3088590000000 1.0
C      1  0.5930840000000  0.3402810000000  0.6908670000000 1.0
C      1  0.6691310000000  0.4252010000000  0.3092460000000 1.0
C      1  0.6807340000000  0.5393320000000  0.6907350000000 1.0
C      1  0.6229440000000  0.6378380000000  0.3088400000000 1.0
C      1  0.5184550000000  0.6841230000000  0.6910290000000 1.0
C      1  0.4069330000000  0.6597230000000  0.3090790000000 1.0
C      1  0.3308900000000  0.5747950000000  0.6907140000000 1.0
C      1  0.3193250000000  0.4606600000000  0.3092620000000 1.0
C      1  0.3770790000000  0.3621620000000  0.6910370000000 1.0
C      1  0.4071180000000  0.4158110000000  0.4777640000000 1.0
C      1  0.4758310000000  0.3776640000000  0.5212740000000 1.0
C      1  0.5521370000000  0.3880470000000  0.4773800000000 1.0
C      1  0.6073260000000  0.4399540000000  0.5220270000000 1.0
C      1  0.6236100000000  0.5140450000000  0.4775230000000 1.0
C      1  0.5925380000000  0.5839750000000  0.5219210000000 1.0
C      1  0.5241740000000  0.6224400000000  0.4788380000000 1.0
C      1  0.4479640000000  0.6118920000000  0.5224990000000 1.0
C      1  0.3928000000000  0.5598400000000  0.4777440000000 1.0
C      1  0.3761990000000  0.4856730000000  0.5221420000000 1.0
C      1  0.6662290000000  0.6493860000000  0.5461640000000 1.0
C      1  0.5452800000000  0.7174430000000  0.4548780000000 1.0
C      1  0.4091990000000  0.7021110000000  0.5452420000000 1.0
C      1  0.3077460000000  0.6109210000000  0.4551130000000 1.0
C      1  0.2790370000000  0.4786890000000  0.5447550000000 1.0
C      1  0.3338460000000  0.3513710000000  0.4544110000000 1.0
C      1  0.4550400000000  0.2821860000000  0.5455150000000 1.0
C      1  0.5908130000000  0.2979870000000  0.4548710000000 1.0
C      1  0.6922240000000  0.3889920000000  0.5449300000000 1.0
C      1  0.7210850000000  0.5212670000000  0.4552180000000 1.0
C      1  0.6846980000000  0.3520690000000  0.4532970000000 1.0
C      1  0.7354740000000  0.4882580000000  0.5470290000000 1.0
C      1  0.6963690000000  0.6297250000000  0.4537440000000 1.0
C      1  0.5832640000000  0.7194040000000  0.5465500000000 1.0
C      1  0.4379820000000  0.7264020000000  0.4534710000000 1.0
C      1  0.3152570000000  0.6479750000000  0.5467410000000 1.0
C      1  0.2644660000000  0.5118130000000  0.4530600000000 1.0
C      1  0.3035960000000  0.3703910000000  0.5462760000000 1.0
C      1  0.4168990000000  0.2804770000000  0.4536240000000 1.0
C      1  0.5617360000000  0.2736100000000  0.5466340000000 1.0
C      1  0.6336360000000  0.6752190000000  0.3976780000000 1.0
C      1  0.5059740000000  0.7209000000000  0.6024110000000 1.0
C      1  0.3750720000000  0.6831110000000  0.3977510000000 1.0
C      1  0.2904900000000  0.5755840000000  0.6024340000000 1.0
C      1  0.2874080000000  0.4379620000000  0.3981360000000 1.0
C      1  0.3663890000000  0.3248510000000  0.6021170000000 1.0
C      1  0.4941610000000  0.2793000000000  0.3976630000000 1.0
C      1  0.6247580000000  0.3168660000000  0.6021530000000 1.0
C      1  0.7095630000000  0.4243610000000  0.3974890000000 1.0
C      1  0.7125440000000  0.5619690000000  0.6019590000000 1.0
C      1  0.4599500000000  0.5713390000000  0.3167250000000 1.0
C      1  0.4254790000000  0.5343770000000  0.6820890000000 1.0
C      1  0.4195980000000  0.4837610000000  0.3171360000000 1.0
C      1  0.4445750000000  0.4399570000000  0.6824150000000 1.0
C      1  0.4904880000000  0.4187350000000  0.3173280000000 1.0
C      1  0.5400780000000  0.4287190000000  0.6832720000000 1.0
C      1  0.5745180000000  0.4656100000000  0.3178970000000 1.0
C      1  0.5803200000000  0.5162030000000  0.6828440000000 1.0
C      1  0.5553760000000  0.5600330000000  0.3175870000000 1.0
C      1  0.5095270000000  0.5812590000000  0.6826160000000 1.0
END
