TITL C-1525613-7943-705 0.0754891151954727 3375 -9202.28715199682 0 0 60 (C1) n - 1
REM
REM in /home/nfs/bkarasulu/CARBON/AIRSS/Generating-Clusters/ReaxFF-fromJPCA2015/Units_Real/Try2-Higher-symm/Only-C60
REM
REM
REM
REM
REM
REM ./C.cell (863b2abdce7293c0672fb3ba77bf323a)
REM AIRSS Version 0.9.1 bugfix July 2018 build 013d7b7c2542+ Fri, 06 Jul 2018 19:26:36 +0100
REM compiler GCC version 9.2.1 20190827 (Red Hat 9.2.1-1)
REM options -cpp -mtune=generic -march=x86-64 -g -O0 -fpre-include=/usr/include/finclude/math-vector-fortran.h
REM seed -1840121233 -776363971 -1997216857 -689288074 2012531157 1199275505 -1529156312 764733484 -716184330 813428845 1499568348 1582695425 1449709562 -816500083 804678807 694360099 1876229032 -1742734005 1565325074 1401567099 -1814856519 1538939187 1112208500 1411582646 -1190218960 65513105 -448964993 -1493382625 -1537019722 1219850917 1931742293 -841046743 -414392635
REM
CELL 1.54180   15.00000   15.00000   15.00000   90.00000   90.00000   90.00000
LATT -1
SFAC C  
C      1  0.5304450000000  0.2618820000000  0.5732320000000 1.0
C      1  0.5299240000000  0.3401620000000  0.7055570000000 1.0
C      1  0.5173810000000  0.4992590000000  0.7377370000000 1.0
C      1  0.5011180000000  0.6484140000000  0.7159390000000 1.0
C      1  0.5305190000000  0.7284840000000  0.5938380000000 1.0
C      1  0.5307120000000  0.7384630000000  0.4270260000000 1.0
C      1  0.5306270000000  0.6608380000000  0.2938560000000 1.0
C      1  0.5188170000000  0.4997580000000  0.2643810000000 1.0
C      1  0.5013370000000  0.3501670000000  0.2837290000000 1.0
C      1  0.5292690000000  0.2691420000000  0.4064170000000 1.0
C      1  0.4819570000000  0.5868550000000  0.2558050000000 1.0
C      1  0.4547640000000  0.4289070000000  0.2704040000000 1.0
C      1  0.4652610000000  0.2809220000000  0.3343630000000 1.0
C      1  0.4867000000000  0.2585810000000  0.4906080000000 1.0
C      1  0.4773830000000  0.2900570000000  0.6451000000000 1.0
C      1  0.4798510000000  0.4119650000000  0.7455640000000 1.0
C      1  0.4538760000000  0.5704110000000  0.7299350000000 1.0
C      1  0.4656610000000  0.7180480000000  0.6655550000000 1.0
C      1  0.4874910000000  0.7401680000000  0.5099210000000 1.0
C      1  0.4780840000000  0.7098450000000  0.3552730000000 1.0
C      1  0.3864680000000  0.5910240000000  0.2559870000000 1.0
C      1  0.3681180000000  0.4420500000000  0.3079220000000 1.0
C      1  0.3715860000000  0.2849160000000  0.3446900000000 1.0
C      1  0.3912330000000  0.2845620000000  0.4913550000000 1.0
C      1  0.3844610000000  0.3150370000000  0.6324570000000 1.0
C      1  0.3841990000000  0.4088610000000  0.7446210000000 1.0
C      1  0.3669110000000  0.5576640000000  0.6932980000000 1.0
C      1  0.3717830000000  0.7143080000000  0.6560250000000 1.0
C      1  0.3919340000000  0.7143100000000  0.5096950000000 1.0
C      1  0.3856510000000  0.6843870000000  0.3687010000000 1.0
C      1  0.5881580000000  0.6257650000000  0.6896870000000 1.0
C      1  0.6113220000000  0.6766470000000  0.6104560000000 1.0
C      1  0.6200660000000  0.7215450000000  0.4054170000000 1.0
C      1  0.6216430000000  0.6695560000000  0.3251980000000 1.0
C      1  0.6040820000000  0.4659510000000  0.2976350000000 1.0
C      1  0.5886270000000  0.3715240000000  0.3108150000000 1.0
C      1  0.6108950000000  0.3202850000000  0.3896290000000 1.0
C      1  0.6194410000000  0.2813720000000  0.5938490000000 1.0
C      1  0.6209800000000  0.3339860000000  0.6734550000000 1.0
C      1  0.6016710000000  0.5324770000000  0.7057430000000 1.0
C      1  0.3296810000000  0.3752140000000  0.6776590000000 1.0
C      1  0.3284850000000  0.4707100000000  0.7044460000000 1.0
C      1  0.3246990000000  0.6347410000000  0.6549770000000 1.0
C      1  0.3290150000000  0.6953370000000  0.5768870000000 1.0
C      1  0.3501530000000  0.6810170000000  0.4442390000000 1.0
C      1  0.3314650000000  0.6243340000000  0.3229760000000 1.0
C      1  0.3302860000000  0.5290450000000  0.2951930000000 1.0
C      1  0.3253380000000  0.3650610000000  0.3456010000000 1.0
C      1  0.3289670000000  0.3044950000000  0.4239420000000 1.0
C      1  0.3496130000000  0.3180580000000  0.5567860000000 1.0
C      1  0.6786400000000  0.5083360000000  0.3492240000000 1.0
C      1  0.6890540000000  0.4368040000000  0.4061000000000 1.0
C      1  0.6815120000000  0.3566260000000  0.4508340000000 1.0
C      1  0.6827130000000  0.3414370000000  0.5502910000000 1.0
C      1  0.6828150000000  0.3965980000000  0.6308020000000 1.0
C      1  0.6744450000000  0.4955150000000  0.6481580000000 1.0
C      1  0.6902780000000  0.5643790000000  0.5892000000000 1.0
C      1  0.6830860000000  0.6443120000000  0.5472900000000 1.0
C      1  0.6846530000000  0.6619770000000  0.4476550000000 1.0
C      1  0.6846930000000  0.6074480000000  0.3668640000000 1.0
END
