TITL C-1525613-7943-3906 0.285826529923518 3375 -8302.82917596045 0 0 60 (C1) n - 1
REM
REM in /home/nfs/bkarasulu/CARBON/AIRSS/Generating-Clusters/ReaxFF-fromJPCA2015/Units_Real/Try2-Higher-symm/Only-C60
REM
REM
REM
REM
REM
REM ./C.cell (863b2abdce7293c0672fb3ba77bf323a)
REM AIRSS Version 0.9.1 bugfix July 2018 build 013d7b7c2542+ Fri, 06 Jul 2018 19:26:36 +0100
REM compiler GCC version 9.2.1 20190827 (Red Hat 9.2.1-1)
REM options -cpp -mtune=generic -march=x86-64 -g -O0 -fpre-include=/usr/include/finclude/math-vector-fortran.h
REM seed -2021985237 58938179 508366053 581987650 -1534549589 845420138 1868025562 964967059 1638990060 -597592803 661814141 -1800100090 114616843 1673363099 -514510941 466049469 -1503247596 -764352703 -114836683 -1656120533 -541713047 2133872868 991996970 -58080513 1707666261 954931364 1490178765 1785383322 1492404174 -2123853779 2026922897 -487442060 -850922831
REM
CELL 1.54180   15.00000   15.00000   15.00000   90.00000   90.00000   90.00000
LATT -1
SFAC C  
C      1  0.5659980000000  0.6344770000000  0.4350970000000 1.0
C      1  0.5774030000000  0.5733560000000  0.3621210000000 1.0
C      1  0.5847350000000  0.4800080000000  0.3404880000000 1.0
C      1  0.5858780000000  0.3923850000000  0.3822220000000 1.0
C      1  0.5846720000000  0.3462090000000  0.4679110000000 1.0
C      1  0.5842520000000  0.3563720000000  0.5647400000000 1.0
C      1  0.5838940000000  0.4196780000000  0.6377230000000 1.0
C      1  0.5795580000000  0.5137550000000  0.6587020000000 1.0
C      1  0.5686120000000  0.5990260000000  0.6161640000000 1.0
C      1  0.5550870000000  0.6456360000000  0.5309660000000 1.0
C      1  0.4738470000000  0.7687000000000  0.4634290000000 1.0
C      1  0.4833350000000  0.7081100000000  0.3011580000000 1.0
C      1  0.4805500000000  0.5634840000000  0.2198770000000 1.0
C      1  0.4659840000000  0.3900670000000  0.2596320000000 1.0
C      1  0.4742760000000  0.2557330000000  0.3616090000000 1.0
C      1  0.4702070000000  0.2381730000000  0.5348290000000 1.0
C      1  0.4821330000000  0.2926140000000  0.6993540000000 1.0
C      1  0.4814970000000  0.4374460000000  0.7808200000000 1.0
C      1  0.4676460000000  0.6109730000000  0.7384980000000 1.0
C      1  0.4802260000000  0.7538890000000  0.6405560000000 1.0
C      1  0.5044320000000  0.5340540000000  0.7885130000000 1.0
C      1  0.5130100000000  0.6966160000000  0.7156430000000 1.0
C      1  0.5113460000000  0.7895770000000  0.5533900000000 1.0
C      1  0.5139850000000  0.7709740000000  0.3718250000000 1.0
C      1  0.5304910000000  0.6496490000000  0.2353390000000 1.0
C      1  0.5044540000000  0.4673930000000  0.2111070000000 1.0
C      1  0.5117070000000  0.3034640000000  0.2828680000000 1.0
C      1  0.5089980000000  0.2155060000000  0.4460360000000 1.0
C      1  0.5109150000000  0.2320220000000  0.6257430000000 1.0
C      1  0.5308490000000  0.3514560000000  0.7638160000000 1.0
C      1  0.4049860000000  0.6984900000000  0.4698440000000 1.0
C      1  0.3953770000000  0.6601550000000  0.3144110000000 1.0
C      1  0.3961590000000  0.5778690000000  0.2699020000000 1.0
C      1  0.3878160000000  0.4149710000000  0.3161100000000 1.0
C      1  0.3805560000000  0.2913250000000  0.3732950000000 1.0
C      1  0.3938410000000  0.3019490000000  0.5301840000000 1.0
C      1  0.3938680000000  0.3400990000000  0.6893890000000 1.0
C      1  0.3956350000000  0.4224110000000  0.7335310000000 1.0
C      1  0.3857630000000  0.5846920000000  0.6842600000000 1.0
C      1  0.3925770000000  0.7075000000000  0.6235740000000 1.0
C      1  0.6757310000000  0.5227080000000  0.6530310000000 1.0
C      1  0.6645170000000  0.6110940000000  0.6154730000000 1.0
C      1  0.6558580000000  0.6649980000000  0.5340350000000 1.0
C      1  0.6624340000000  0.6477990000000  0.4381380000000 1.0
C      1  0.6738940000000  0.5797830000000  0.3677610000000 1.0
C      1  0.6813770000000  0.4846630000000  0.3473530000000 1.0
C      1  0.6835180000000  0.3937780000000  0.3846810000000 1.0
C      1  0.6827350000000  0.3438780000000  0.4693590000000 1.0
C      1  0.6824540000000  0.3566920000000  0.5663350000000 1.0
C      1  0.6811600000000  0.4262790000000  0.6359630000000 1.0
C      1  0.3565130000000  0.3372310000000  0.4548460000000 1.0
C      1  0.3632510000000  0.3534070000000  0.6036100000000 1.0
C      1  0.3525030000000  0.4385190000000  0.6064680000000 1.0
C      1  0.3700130000000  0.4892200000000  0.6724370000000 1.0
C      1  0.3596720000000  0.6242560000000  0.6079180000000 1.0
C      1  0.4231140000000  0.6519490000000  0.5491590000000 1.0
C      1  0.3674610000000  0.6473480000000  0.4013850000000 1.0
C      1  0.3580950000000  0.5608950000000  0.3982290000000 1.0
C      1  0.3740680000000  0.5100510000000  0.3321360000000 1.0
C      1  0.3350770000000  0.3651870000000  0.3670050000000 1.0
END
