TITL C-1525613-7943-2668 0.214568104373416 3375 -8938.28506170608 0 0 60 (D5) n - 1
REM
REM in /home/nfs/bkarasulu/CARBON/AIRSS/Generating-Clusters/ReaxFF-fromJPCA2015/Units_Real/Try2-Higher-symm/Only-C60
REM
REM
REM
REM
REM
REM ./C.cell (863b2abdce7293c0672fb3ba77bf323a)
REM AIRSS Version 0.9.1 bugfix July 2018 build 013d7b7c2542+ Fri, 06 Jul 2018 19:26:36 +0100
REM compiler GCC version 9.2.1 20190827 (Red Hat 9.2.1-1)
REM options -cpp -mtune=generic -march=x86-64 -g -O0 -fpre-include=/usr/include/finclude/math-vector-fortran.h
REM seed -1959895476 -1671112352 -1664904850 888354726 -177910462 -1970052116 -1168344239 2114893398 -722208919 51283012 1773091349 -654616001 114165182 852630649 -403729529 516326748 894572129 59909051 -922311624 -1094838522 211990580 1131366903 -657464246 -1309380732 1240317986 -1886567893 -640909242 -1979566986 -772346688 1070975372 -157666273 -1571117431 -1654692738
REM
CELL 1.54180   15.00000   15.00000   15.00000   90.00000   90.00000   90.00000
LATT -1
SFAC C  
C      1  0.3183130000000  0.5933580000000  0.3779990000000 1.0
C      1  0.5600330000000  0.5932000000000  0.2900140000000 1.0
C      1  0.7186850000000  0.5931130000000  0.4925560000000 1.0
C      1  0.5749890000000  0.5933530000000  0.7050060000000 1.0
C      1  0.3276410000000  0.5932400000000  0.6346870000000 1.0
C      1  0.6816870000000  0.4066420000000  0.3779990000000 1.0
C      1  0.4399670000000  0.4068000000000  0.2900140000000 1.0
C      1  0.2813150000000  0.4068870000000  0.4925560000000 1.0
C      1  0.4250110000000  0.4066470000000  0.7050060000000 1.0
C      1  0.6723590000000  0.4067600000000  0.6346870000000 1.0
C      1  0.5476310000000  0.8650710000000  0.5542560000000 1.0
C      1  0.4632580000000  0.8652110000000  0.5623700000000 1.0
C      1  0.4294680000000  0.8656320000000  0.4846290000000 1.0
C      1  0.4929600000000  0.8657470000000  0.4284740000000 1.0
C      1  0.5659900000000  0.8654050000000  0.4715040000000 1.0
C      1  0.4523690000000  0.1349290000000  0.5542560000000 1.0
C      1  0.5367420000000  0.1347890000000  0.5623700000000 1.0
C      1  0.5705320000000  0.1343680000000  0.4846290000000 1.0
C      1  0.5070400000000  0.1342530000000  0.4284740000000 1.0
C      1  0.4340100000000  0.1345950000000  0.4715040000000 1.0
C      1  0.6607960000000  0.5888780000000  0.6473730000000 1.0
C      1  0.4092070000000  0.5884790000000  0.6978860000000 1.0
C      1  0.2831960000000  0.5887400000000  0.4750350000000 1.0
C      1  0.4569170000000  0.5889300000000  0.2857490000000 1.0
C      1  0.6900940000000  0.5884630000000  0.3932610000000 1.0
C      1  0.3392040000000  0.4111220000000  0.6473730000000 1.0
C      1  0.5907930000000  0.4115210000000  0.6978860000000 1.0
C      1  0.7168040000000  0.4112600000000  0.4750350000000 1.0
C      1  0.5430830000000  0.4110700000000  0.2857490000000 1.0
C      1  0.3099060000000  0.4115370000000  0.3932610000000 1.0
C      1  0.4223470000000  0.3275810000000  0.5293720000000 1.0
C      1  0.4480590000000  0.3273780000000  0.4348820000000 1.0
C      1  0.5458280000000  0.3279300000000  0.4302660000000 1.0
C      1  0.5808900000000  0.3268130000000  0.5218630000000 1.0
C      1  0.5042350000000  0.3275780000000  0.5830230000000 1.0
C      1  0.5776530000000  0.6724190000000  0.5293720000000 1.0
C      1  0.5519410000000  0.6726220000000  0.4348820000000 1.0
C      1  0.4541720000000  0.6720700000000  0.4302660000000 1.0
C      1  0.4191100000000  0.6731870000000  0.5218630000000 1.0
C      1  0.4957650000000  0.6724220000000  0.5830230000000 1.0
C      1  0.3122250000000  0.5014820000000  0.6408180000000 1.0
C      1  0.3049900000000  0.5018220000000  0.3653100000000 1.0
C      1  0.5685500000000  0.5015340000000  0.2753800000000 1.0
C      1  0.7363080000000  0.5015330000000  0.4958800000000 1.0
C      1  0.5771800000000  0.5018680000000  0.7221140000000 1.0
C      1  0.6877750000000  0.4985180000000  0.6408180000000 1.0
C      1  0.6950100000000  0.4981780000000  0.3653100000000 1.0
C      1  0.4314500000000  0.4984660000000  0.2753800000000 1.0
C      1  0.2636920000000  0.4984670000000  0.4958800000000 1.0
C      1  0.4228200000000  0.4981320000000  0.7221140000000 1.0
C      1  0.6066030000000  0.6345750000000  0.3661700000000 1.0
C      1  0.6608350000000  0.6355780000000  0.5598190000000 1.0
C      1  0.4925310000000  0.6352680000000  0.6712680000000 1.0
C      1  0.3344410000000  0.6356490000000  0.5460050000000 1.0
C      1  0.4052320000000  0.6347630000000  0.3570310000000 1.0
C      1  0.3933970000000  0.3654250000000  0.3661700000000 1.0
C      1  0.3391650000000  0.3644220000000  0.5598190000000 1.0
C      1  0.5074690000000  0.3647320000000  0.6712680000000 1.0
C      1  0.6655590000000  0.3643510000000  0.5460050000000 1.0
C      1  0.5947680000000  0.3652370000000  0.3570310000000 1.0
END
