TITL C-1525613-7943-2844 -0.0210081137261974 3375 -8546.0524222447 0 0 60 (C1) n - 1
REM
REM in /home/nfs/bkarasulu/CARBON/AIRSS/Generating-Clusters/ReaxFF-fromJPCA2015/Units_Real/Try2-Higher-symm/Only-C60
REM
REM
REM
REM
REM
REM ./C.cell (863b2abdce7293c0672fb3ba77bf323a)
REM AIRSS Version 0.9.1 bugfix July 2018 build 013d7b7c2542+ Fri, 06 Jul 2018 19:26:36 +0100
REM compiler GCC version 9.2.1 20190827 (Red Hat 9.2.1-1)
REM options -cpp -mtune=generic -march=x86-64 -g -O0 -fpre-include=/usr/include/finclude/math-vector-fortran.h
REM seed 1193498513 823934234 -105649048 318624196 -1447921539 -2036416434 -2107657572 1245252682 1364937405 220098775 -748423589 72934499 -1935204113 -518420425 -366389604 402329094 1064184091 -629283992 -1483323343 1529191008 1783511431 -264731032 -946284332 767711184 -1962735043 959116131 -1607772508 -711660826 755535028 913720394 129553421 -800908489 600353754
REM
CELL 1.54180   15.00000   15.00000   15.00000   90.00000   90.00000   90.00000
LATT -1
SFAC C  
C      1  0.6861540000000  0.4994310000000  0.4110790000000 1.0
C      1  0.5945120000000  0.7002560000000  0.4236100000000 1.0
C      1  0.3277450000000  0.6675070000000  0.4118530000000 1.0
C      1  0.3045660000000  0.3924020000000  0.4222060000000 1.0
C      1  0.5429770000000  0.2789230000000  0.4192240000000 1.0
C      1  0.3050090000000  0.5002060000000  0.5860650000000 1.0
C      1  0.4032880000000  0.6968170000000  0.5804550000000 1.0
C      1  0.6717600000000  0.6628600000000  0.5881620000000 1.0
C      1  0.7055470000000  0.3875730000000  0.5750950000000 1.0
C      1  0.4574390000000  0.2800020000000  0.5845110000000 1.0
C      1  0.5475610000000  0.7234100000000  0.5037350000000 1.0
C      1  0.2881320000000  0.6299660000000  0.4915720000000 1.0
C      1  0.3300370000000  0.3532960000000  0.5071470000000 1.0
C      1  0.5952610000000  0.2948850000000  0.4956900000000 1.0
C      1  0.7128920000000  0.5341380000000  0.4971190000000 1.0
C      1  0.4522210000000  0.7232660000000  0.5011930000000 1.0
C      1  0.7094840000000  0.6279170000000  0.5070170000000 1.0
C      1  0.6733210000000  0.3514130000000  0.4928390000000 1.0
C      1  0.4048490000000  0.2939380000000  0.5073670000000 1.0
C      1  0.2847280000000  0.5349760000000  0.4967530000000 1.0
C      1  0.4352710000000  0.3842010000000  0.2505570000000 1.0
C      1  0.5718200000000  0.3946330000000  0.2403860000000 1.0
C      1  0.5882760000000  0.5300050000000  0.2486150000000 1.0
C      1  0.4975150000000  0.6282220000000  0.2652960000000 1.0
C      1  0.4131310000000  0.5197760000000  0.2606630000000 1.0
C      1  0.5679660000000  0.3917220000000  0.7460710000000 1.0
C      1  0.4204460000000  0.3971620000000  0.7544220000000 1.0
C      1  0.4053330000000  0.5293360000000  0.7547000000000 1.0
C      1  0.4985800000000  0.6244680000000  0.7351760000000 1.0
C      1  0.5901180000000  0.5229670000000  0.7456980000000 1.0
C      1  0.5909760000000  0.6327530000000  0.6346970000000 1.0
C      1  0.3809700000000  0.6098140000000  0.6201270000000 1.0
C      1  0.3644750000000  0.4430450000000  0.6399610000000 1.0
C      1  0.5045430000000  0.3407230000000  0.6374030000000 1.0
C      1  0.6591210000000  0.4421140000000  0.6310730000000 1.0
C      1  0.4087140000000  0.6352470000000  0.3681810000000 1.0
C      1  0.6155260000000  0.6135570000000  0.3801570000000 1.0
C      1  0.6347320000000  0.4333340000000  0.3545800000000 1.0
C      1  0.4946580000000  0.3369020000000  0.3639390000000 1.0
C      1  0.3545180000000  0.4557970000000  0.3668850000000 1.0
C      1  0.4932790000000  0.3537450000000  0.7307990000000 1.0
C      1  0.6265430000000  0.4486170000000  0.7211360000000 1.0
C      1  0.5810260000000  0.6070140000000  0.7265980000000 1.0
C      1  0.4159530000000  0.6034520000000  0.7126780000000 1.0
C      1  0.3661670000000  0.4562480000000  0.7345890000000 1.0
C      1  0.5075670000000  0.3441250000000  0.2694220000000 1.0
C      1  0.3759770000000  0.4445830000000  0.2741340000000 1.0
C      1  0.4176030000000  0.6061920000000  0.2771290000000 1.0
C      1  0.5809430000000  0.6119840000000  0.2886570000000 1.0
C      1  0.6325060000000  0.4488980000000  0.2624900000000 1.0
C      1  0.2809590000000  0.4818100000000  0.4188120000000 1.0
C      1  0.4498270000000  0.2748700000000  0.4235870000000 1.0
C      1  0.6943720000000  0.4050140000000  0.4166860000000 1.0
C      1  0.6797200000000  0.6649270000000  0.4276910000000 1.0
C      1  0.4088290000000  0.7135640000000  0.4172140000000 1.0
C      1  0.7276680000000  0.4788840000000  0.5757510000000 1.0
C      1  0.5508320000000  0.2778170000000  0.5798520000000 1.0
C      1  0.3061870000000  0.4044630000000  0.5828960000000 1.0
C      1  0.3181730000000  0.6634390000000  0.5737860000000 1.0
C      1  0.5916990000000  0.7113930000000  0.5848150000000 1.0
END
