TITL C-1525613-7943-2907 -0.00363698758081103 3375 -8691.63870584471 0 0 60 (C1) n - 1
REM
REM in /home/nfs/bkarasulu/CARBON/AIRSS/Generating-Clusters/ReaxFF-fromJPCA2015/Units_Real/Try2-Higher-symm/Only-C60
REM
REM
REM
REM
REM
REM ./C.cell (863b2abdce7293c0672fb3ba77bf323a)
REM AIRSS Version 0.9.1 bugfix July 2018 build 013d7b7c2542+ Fri, 06 Jul 2018 19:26:36 +0100
REM compiler GCC version 9.2.1 20190827 (Red Hat 9.2.1-1)
REM options -cpp -mtune=generic -march=x86-64 -g -O0 -fpre-include=/usr/include/finclude/math-vector-fortran.h
REM seed 299628495 -1136702978 1328516819 590165290 -1580741938 888143843 811790959 -1926907430 1974946988 -175451683 710008427 -1944832174 -711519137 -915920885 996775804 300322141 1663289255 537011001 120861333 -1236189224 -204493375 1217143075 -1728585461 -1640491286 -1188576723 -1708555449 1633940445 -226042328 1113629443 415772306 -448655681 -1163997428 671073920
REM
CELL 1.54180   15.00000   15.00000   15.00000   90.00000   90.00000   90.00000
LATT -1
SFAC C  
C      1  0.6185250000000  0.6423520000000  0.3993330000000 1.0
C      1  0.6549600000000  0.6419550000000  0.4881980000000 1.0
C      1  0.6327290000000  0.6424530000000  0.5817010000000 1.0
C      1  0.5592090000000  0.6452040000000  0.6433900000000 1.0
C      1  0.4635710000000  0.6446420000000  0.6497200000000 1.0
C      1  0.3818840000000  0.6446510000000  0.5994120000000 1.0
C      1  0.3449170000000  0.6420180000000  0.5108100000000 1.0
C      1  0.3671940000000  0.6432390000000  0.4174690000000 1.0
C      1  0.4407740000000  0.6437860000000  0.3556510000000 1.0
C      1  0.5366520000000  0.6431360000000  0.3488980000000 1.0
C      1  0.4014190000000  0.3943010000000  0.3819180000000 1.0
C      1  0.4889080000000  0.4015650000000  0.3461790000000 1.0
C      1  0.5782100000000  0.4028390000000  0.3708240000000 1.0
C      1  0.6372810000000  0.4017990000000  0.4440270000000 1.0
C      1  0.6478040000000  0.4011290000000  0.5363940000000 1.0
C      1  0.5994660000000  0.3941400000000  0.6176620000000 1.0
C      1  0.5114020000000  0.4013740000000  0.6521610000000 1.0
C      1  0.4213280000000  0.4029500000000  0.6290770000000 1.0
C      1  0.3610570000000  0.4036520000000  0.5572930000000 1.0
C      1  0.3550160000000  0.4014130000000  0.4647590000000 1.0
C      1  0.7324560000000  0.5855370000000  0.4820160000000 1.0
C      1  0.7005050000000  0.5881370000000  0.6232680000000 1.0
C      1  0.5910780000000  0.5901030000000  0.7193430000000 1.0
C      1  0.4438860000000  0.5884430000000  0.7298280000000 1.0
C      1  0.3195060000000  0.5883180000000  0.6514700000000 1.0
C      1  0.2667110000000  0.5859860000000  0.5155970000000 1.0
C      1  0.3004680000000  0.5877290000000  0.3758440000000 1.0
C      1  0.4106060000000  0.5890980000000  0.2824530000000 1.0
C      1  0.5549610000000  0.5875220000000  0.2727640000000 1.0
C      1  0.6779440000000  0.5857910000000  0.3491040000000 1.0
C      1  0.5151640000000  0.3871480000000  0.8236160000000 1.0
C      1  0.3232020000000  0.3856950000000  0.7701210000000 1.0
C      1  0.1976680000000  0.3897390000000  0.6167980000000 1.0
C      1  0.1931120000000  0.3844190000000  0.4162920000000 1.0
C      1  0.3175590000000  0.3738240000000  0.2675420000000 1.0
C      1  0.4845260000000  0.3924230000000  0.1739010000000 1.0
C      1  0.6770110000000  0.3901980000000  0.2293760000000 1.0
C      1  0.7983850000000  0.3844950000000  0.3891450000000 1.0
C      1  0.8133160000000  0.3909960000000  0.5857680000000 1.0
C      1  0.6819510000000  0.3726930000000  0.7306850000000 1.0
C      1  0.2484020000000  0.5413750000000  0.4368060000000 1.0
C      1  0.3306750000000  0.5463490000000  0.2992740000000 1.0
C      1  0.4798740000000  0.5441790000000  0.2402130000000 1.0
C      1  0.6361130000000  0.5428560000000  0.2784960000000 1.0
C      1  0.7393740000000  0.5404480000000  0.4014490000000 1.0
C      1  0.7525580000000  0.5426070000000  0.5616020000000 1.0
C      1  0.6727930000000  0.5458420000000  0.7000270000000 1.0
C      1  0.5206110000000  0.5414970000000  0.7628350000000 1.0
C      1  0.3606820000000  0.5408870000000  0.7238370000000 1.0
C      1  0.2571850000000  0.5419850000000  0.5962830000000 1.0
C      1  0.7333610000000  0.4379710000000  0.4048960000000 1.0
C      1  0.7480270000000  0.4400900000000  0.5602500000000 1.0
C      1  0.6631110000000  0.4441540000000  0.6922120000000 1.0
C      1  0.5178020000000  0.4391020000000  0.7551530000000 1.0
C      1  0.3643710000000  0.4387590000000  0.7166790000000 1.0
C      1  0.2634230000000  0.4407760000000  0.5955960000000 1.0
C      1  0.2549890000000  0.4386870000000  0.4400370000000 1.0
C      1  0.3385480000000  0.4432400000000  0.3075430000000 1.0
C      1  0.4820360000000  0.4417320000000  0.2437680000000 1.0
C      1  0.6337460000000  0.4405750000000  0.2832350000000 1.0
END
