TITL C-1525613-7943-5533 0.307804048535566 3375 -7844.43097920392 0 0 60 (C1) n - 1
REM
REM in /home/nfs/bkarasulu/CARBON/AIRSS/Generating-Clusters/ReaxFF-fromJPCA2015/Units_Real/Try2-Higher-symm/Only-C60
REM
REM
REM
REM
REM
REM ./C.cell (863b2abdce7293c0672fb3ba77bf323a)
REM AIRSS Version 0.9.1 bugfix July 2018 build 013d7b7c2542+ Fri, 06 Jul 2018 19:26:36 +0100
REM compiler GCC version 9.2.1 20190827 (Red Hat 9.2.1-1)
REM options -cpp -mtune=generic -march=x86-64 -g -O0 -fpre-include=/usr/include/finclude/math-vector-fortran.h
REM seed 232813493 -873735753 -1579078398 12879403 1266799854 -2063062581 -1965694451 -1724125928 -1824991696 -1283037887 731484190 1488678611 1443559197 938054404 -1788642400 -936679926 753557666 692769904 -1981761737 -305175043 -578061645 -236457697 1882340298 -901814670 1910551269 625664717 -840336271 -1015371432 -1524379646 -1984464800 1741375517 -1035726780 -278409159
REM
CELL 1.54180   15.00000   15.00000   15.00000   90.00000   90.00000   90.00000
LATT -1
SFAC C  
C      1  0.3566020000000  0.7412580000000  0.6377100000000 1.0
C      1  0.2534400000000  0.4500100000000  0.6233590000000 1.0
C      1  0.4476680000000  0.2295620000000  0.6441800000000 1.0
C      1  0.7566770000000  0.3793840000000  0.6202790000000 1.0
C      1  0.6996550000000  0.6952410000000  0.6408800000000 1.0
C      1  0.3554180000000  0.2587870000000  0.6377050000000 1.0
C      1  0.2532140000000  0.5502900000000  0.6231990000000 1.0
C      1  0.4491540000000  0.7696230000000  0.6426410000000 1.0
C      1  0.7562470000000  0.6212070000000  0.6196480000000 1.0
C      1  0.7002260000000  0.3049250000000  0.6412970000000 1.0
C      1  0.6139750000000  0.7063080000000  0.6016140000000 1.0
C      1  0.3402520000000  0.6692810000000  0.5767030000000 1.0
C      1  0.2818700000000  0.3984630000000  0.5439220000000 1.0
C      1  0.5226160000000  0.2741160000000  0.6001810000000 1.0
C      1  0.7202870000000  0.4483100000000  0.5569710000000 1.0
C      1  0.6156170000000  0.2954000000000  0.6004560000000 1.0
C      1  0.3401130000000  0.3308990000000  0.5766590000000 1.0
C      1  0.2819970000000  0.6018480000000  0.5438520000000 1.0
C      1  0.5215200000000  0.7229090000000  0.6036420000000 1.0
C      1  0.7202750000000  0.5518350000000  0.5568860000000 1.0
C      1  0.6482360000000  0.5477880000000  0.3036220000000 1.0
C      1  0.4996800000000  0.6581500000000  0.2973230000000 1.0
C      1  0.3486420000000  0.5501770000000  0.3040060000000 1.0
C      1  0.4072110000000  0.3710050000000  0.2890820000000 1.0
C      1  0.5926500000000  0.3723870000000  0.2914840000000 1.0
C      1  0.6482660000000  0.4522440000000  0.3036760000000 1.0
C      1  0.4996920000000  0.3417480000000  0.2970400000000 1.0
C      1  0.3486110000000  0.4498780000000  0.3039170000000 1.0
C      1  0.4073070000000  0.6289210000000  0.2889580000000 1.0
C      1  0.5925740000000  0.6276590000000  0.2915230000000 1.0
C      1  0.4757530000000  0.3177320000000  0.6742050000000 1.0
C      1  0.6859820000000  0.4386460000000  0.6506880000000 1.0
C      1  0.6313820000000  0.6382680000000  0.6711640000000 1.0
C      1  0.3835520000000  0.6458490000000  0.6682250000000 1.0
C      1  0.3300270000000  0.4528040000000  0.6844470000000 1.0
C      1  0.4744740000000  0.6812050000000  0.6718430000000 1.0
C      1  0.6860010000000  0.5614680000000  0.6505190000000 1.0
C      1  0.6313510000000  0.3616460000000  0.6706020000000 1.0
C      1  0.3829190000000  0.3543290000000  0.6691350000000 1.0
C      1  0.3301270000000  0.5479520000000  0.6840660000000 1.0
C      1  0.7148220000000  0.4298580000000  0.3819010000000 1.0
C      1  0.6375560000000  0.6907050000000  0.3590700000000 1.0
C      1  0.3625160000000  0.6897420000000  0.3608660000000 1.0
C      1  0.2828270000000  0.4278120000000  0.3776320000000 1.0
C      1  0.4998610000000  0.2685180000000  0.3731220000000 1.0
C      1  0.7148050000000  0.5701400000000  0.3817900000000 1.0
C      1  0.6375060000000  0.3093600000000  0.3591510000000 1.0
C      1  0.3624240000000  0.3102530000000  0.3609940000000 1.0
C      1  0.2827720000000  0.5723000000000  0.3776800000000 1.0
C      1  0.4998970000000  0.7314490000000  0.3735670000000 1.0
C      1  0.5999330000000  0.6499310000000  0.4448610000000 1.0
C      1  0.4052410000000  0.6351550000000  0.4352540000000 1.0
C      1  0.3320840000000  0.4406030000000  0.4677990000000 1.0
C      1  0.4988970000000  0.3323510000000  0.4510320000000 1.0
C      1  0.6707450000000  0.4144580000000  0.4693930000000 1.0
C      1  0.5998140000000  0.3501450000000  0.4448750000000 1.0
C      1  0.4051700000000  0.3649460000000  0.4353030000000 1.0
C      1  0.3321110000000  0.5595360000000  0.4677620000000 1.0
C      1  0.4990080000000  0.6675410000000  0.4513370000000 1.0
C      1  0.6707540000000  0.5856830000000  0.4693020000000 1.0
END
