TITL C-1525613-7943-6622 -2.07922312619258e-05 3375 -8369.7655806959 0 0 60 (S10) n - 1
REM
REM in /home/nfs/bkarasulu/CARBON/AIRSS/Generating-Clusters/ReaxFF-fromJPCA2015/Units_Real/Try2-Higher-symm/Only-C60
REM
REM
REM
REM
REM
REM ./C.cell (863b2abdce7293c0672fb3ba77bf323a)
REM AIRSS Version 0.9.1 bugfix July 2018 build 013d7b7c2542+ Fri, 06 Jul 2018 19:26:36 +0100
REM compiler GCC version 9.2.1 20190827 (Red Hat 9.2.1-1)
REM options -cpp -mtune=generic -march=x86-64 -g -O0 -fpre-include=/usr/include/finclude/math-vector-fortran.h
REM seed -280510954 -925191591 -18290643 -922470259 -52436604 -909601367 -187158677 1647269456 -1574957673 -424681345 -176408598 -2089762115 1056002490 276271517 -696258428 1827744961 -1819385072 -2066027746 522318904 -169321337 883750325 1324101877 1548369731 1908137447 -1566498702 -181909734 1505229377 180529174 762500048 94419692 362313168 -391569424 -763830252
REM
CELL 1.54180   15.00000   15.00000   15.00000   90.00000   90.00000   90.00000
LATT -1
SFAC C  
C      1  0.4515050000000  0.6683290000000  0.6739320000000 1.0
C      1  0.5484740000000  0.5337910000000  0.7399040000000 1.0
C      1  0.4515770000000  0.3864300000000  0.7138570000000 1.0
C      1  0.5482880000000  0.2825950000000  0.6063060000000 1.0
C      1  0.4511510000000  0.2615780000000  0.4581330000000 1.0
C      1  0.5484940000000  0.3316700000000  0.3260680000000 1.0
C      1  0.4515260000000  0.4662090000000  0.2600960000000 1.0
C      1  0.5484230000000  0.6135700000000  0.2861430000000 1.0
C      1  0.4517120000000  0.7174050000000  0.3936940000000 1.0
C      1  0.5488490000000  0.7384220000000  0.5418670000000 1.0
C      1  0.5388850000000  0.3457510000000  0.6825820000000 1.0
C      1  0.4609340000000  0.2680970000000  0.5569820000000 1.0
C      1  0.5386170000000  0.2789060000000  0.4099380000000 1.0
C      1  0.4611980000000  0.3742660000000  0.2970800000000 1.0
C      1  0.5388360000000  0.5174960000000  0.2618490000000 1.0
C      1  0.4611150000000  0.6542490000000  0.3174180000000 1.0
C      1  0.5390660000000  0.7319030000000  0.4430180000000 1.0
C      1  0.4613830000000  0.7210950000000  0.5900620000000 1.0
C      1  0.5388020000000  0.6257340000000  0.7029200000000 1.0
C      1  0.4611640000000  0.4825040000000  0.7381510000000 1.0
C      1  0.3842150000000  0.5554400000000  0.4359290000000 1.0
C      1  0.6167970000000  0.5823000000000  0.4806190000000 1.0
C      1  0.3830920000000  0.5774580000000  0.5323490000000 1.0
C      1  0.6169720000000  0.5431710000000  0.5720340000000 1.0
C      1  0.3831820000000  0.4926230000000  0.5841890000000 1.0
C      1  0.6157850000000  0.4445600000000  0.5640710000000 1.0
C      1  0.3832030000000  0.4177000000000  0.5193810000000 1.0
C      1  0.6169080000000  0.4225420000000  0.4676510000000 1.0
C      1  0.3830280000000  0.4568290000000  0.4279660000000 1.0
C      1  0.6168180000000  0.5073770000000  0.4158100000000 1.0
C      1  0.3837260000000  0.6015420000000  0.6664840000000 1.0
C      1  0.6159820000000  0.4837430000000  0.6944830000000 1.0
C      1  0.3835860000000  0.3726580000000  0.6482590000000 1.0
C      1  0.6163650000000  0.3102010000000  0.5453000000000 1.0
C      1  0.3834430000000  0.3201080000000  0.4248780000000 1.0
C      1  0.6162740000000  0.3984580000000  0.3335160000000 1.0
C      1  0.3840180000000  0.5162570000000  0.3055170000000 1.0
C      1  0.6164150000000  0.6273420000000  0.3517410000000 1.0
C      1  0.3836350000000  0.6897990000000  0.4547000000000 1.0
C      1  0.6165570000000  0.6798920000000  0.5751220000000 1.0
C      1  0.5268380000000  0.4193070000000  0.5972360000000 1.0
C      1  0.4736380000000  0.3776630000000  0.5316510000000 1.0
C      1  0.5262040000000  0.3825120000000  0.4536150000000 1.0
C      1  0.4736920000000  0.4324290000000  0.3932570000000 1.0
C      1  0.5262050000000  0.5083040000000  0.3740120000000 1.0
C      1  0.4731620000000  0.5806930000000  0.4027640000000 1.0
C      1  0.5263620000000  0.6223370000000  0.4683490000000 1.0
C      1  0.4737960000000  0.6174880000000  0.5463850000000 1.0
C      1  0.5263080000000  0.5675710000000  0.6067430000000 1.0
C      1  0.4737950000000  0.4916960000000  0.6259880000000 1.0
C      1  0.6318960000000  0.6691880000000  0.6676010000000 1.0
C      1  0.3680530000000  0.5383930000000  0.7348000000000 1.0
C      1  0.6320720000000  0.3926070000000  0.7130210000000 1.0
C      1  0.3678900000000  0.2881440000000  0.6093310000000 1.0
C      1  0.6314950000000  0.2642220000000  0.4643000000000 1.0
C      1  0.3681040000000  0.3308120000000  0.3323990000000 1.0
C      1  0.6319460000000  0.4616060000000  0.2652000000000 1.0
C      1  0.3679280000000  0.6073940000000  0.2869790000000 1.0
C      1  0.6321100000000  0.7118560000000  0.3906690000000 1.0
C      1  0.3685050000000  0.7357780000000  0.5357000000000 1.0
END
