TITL C-1525613-7943-2242 -6.97688213631902e-05 3375 -9891.22392068154 0 0 60 (Ih) n - 1
REM
REM in /home/nfs/bkarasulu/CARBON/AIRSS/Generating-Clusters/ReaxFF-fromJPCA2015/Units_Real/Try2-Higher-symm/Only-C60
REM
REM
REM
REM
REM
REM ./C.cell (863b2abdce7293c0672fb3ba77bf323a)
REM AIRSS Version 0.9.1 bugfix July 2018 build 013d7b7c2542+ Fri, 06 Jul 2018 19:26:36 +0100
REM compiler GCC version 9.2.1 20190827 (Red Hat 9.2.1-1)
REM options -cpp -mtune=generic -march=x86-64 -g -O0 -fpre-include=/usr/include/finclude/math-vector-fortran.h
REM seed -1987462882 -121490848 -1769500924 -642755597 -703932422 2069349593 -1145649782 -1103992904 -173966467 -445318597 -1228165049 750535207 -1054155696 1253162662 1800949528 -681505180 1690585200 -27071102 1859981244 1863872832 109648542 -1379803310 822717858 -1594738700 54857663 604815926 633208995 1076437246 -776623428 1024002825 -207129188 -1049756255 -1642034574
REM
CELL 1.54180   15.00000   15.00000   15.00000   90.00000   90.00000   90.00000
LATT -1
SFAC C  
C      1  0.4843820000000  0.3779370000000  0.2974290000000 1.0
C      1  0.6878560000000  0.3779980000000  0.4225130000000 1.0
C      1  0.6317700000000  0.3779810000000  0.6546810000000 1.0
C      1  0.3936340000000  0.3779100000000  0.6730850000000 1.0
C      1  0.3025430000000  0.3778820000000  0.4522910000000 1.0
C      1  0.5156180000000  0.6220630000000  0.2974290000000 1.0
C      1  0.3121440000000  0.6220020000000  0.4225130000000 1.0
C      1  0.3682300000000  0.6220190000000  0.6546820000000 1.0
C      1  0.6063660000000  0.6220900000000  0.6730850000000 1.0
C      1  0.6974570000000  0.6221180000000  0.4522910000000 1.0
C      1  0.7285690000000  0.4594850000000  0.5478890000000 1.0
C      1  0.5250940000000  0.4594230000000  0.7321690000000 1.0
C      1  0.2869580000000  0.4593520000000  0.5955980000000 1.0
C      1  0.3432550000000  0.4593690000000  0.3269150000000 1.0
C      1  0.6161860000000  0.4594510000000  0.2974290000000 1.0
C      1  0.2714310000000  0.5405150000000  0.5478900000000 1.0
C      1  0.4749060000000  0.5405760000000  0.7321690000000 1.0
C      1  0.7130420000000  0.5406480000000  0.5955980000000 1.0
C      1  0.6567450000000  0.5406310000000  0.3269150000000 1.0
C      1  0.3838140000000  0.5405490000000  0.2974290000000 1.0
C      1  0.4496890000000  0.6723980000000  0.6546820000000 1.0
C      1  0.3373060000000  0.6723640000000  0.5000000000000 1.0
C      1  0.4496890000000  0.6723980000000  0.3453180000000 1.0
C      1  0.6315280000000  0.6724530000000  0.4044020000000 1.0
C      1  0.6315280000000  0.6724530000000  0.5955980000000 1.0
C      1  0.5503110000000  0.3276020000000  0.6546820000000 1.0
C      1  0.6626940000000  0.3276360000000  0.5000000000000 1.0
C      1  0.5503110000000  0.3276020000000  0.3453180000000 1.0
C      1  0.3684720000000  0.3275470000000  0.4044020000000 1.0
C      1  0.3684720000000  0.3275470000000  0.5955980000000 1.0
C      1  0.4341530000000  0.2774020000000  0.5478890000000 1.0
C      1  0.4341530000000  0.2774020000000  0.4521110000000 1.0
C      1  0.5252440000000  0.2774290000000  0.4225130000000 1.0
C      1  0.5815410000000  0.2774460000000  0.5000000000000 1.0
C      1  0.5252440000000  0.2774290000000  0.5774870000000 1.0
C      1  0.5658470000000  0.7225980000000  0.5478890000000 1.0
C      1  0.5658470000000  0.7225980000000  0.4521110000000 1.0
C      1  0.4747560000000  0.7225710000000  0.4225130000000 1.0
C      1  0.4184590000000  0.7225540000000  0.5000000000000 1.0
C      1  0.4747560000000  0.7225710000000  0.5774870000000 1.0
C      1  0.7285690000000  0.4594850000000  0.4521100000000 1.0
C      1  0.6161860000000  0.4594510000000  0.7025710000000 1.0
C      1  0.3432550000000  0.4593690000000  0.6730850000000 1.0
C      1  0.2869580000000  0.4593520000000  0.4044020000000 1.0
C      1  0.5250940000000  0.4594240000000  0.2678310000000 1.0
C      1  0.2714310000000  0.5405150000000  0.4521110000000 1.0
C      1  0.3838140000000  0.5405490000000  0.7025710000000 1.0
C      1  0.6567450000000  0.5406310000000  0.6730850000000 1.0
C      1  0.7130420000000  0.5406480000000  0.4044020000000 1.0
C      1  0.4749060000000  0.5405770000000  0.2678310000000 1.0
C      1  0.6063660000000  0.6220900000000  0.3269150000000 1.0
C      1  0.6974570000000  0.6221180000000  0.5477090000000 1.0
C      1  0.5156180000000  0.6220630000000  0.7025710000000 1.0
C      1  0.3121440000000  0.6220020000000  0.5774870000000 1.0
C      1  0.3682300000000  0.6220190000000  0.3453190000000 1.0
C      1  0.3936340000000  0.3779100000000  0.3269150000000 1.0
C      1  0.3025430000000  0.3778820000000  0.5477090000000 1.0
C      1  0.4843820000000  0.3779370000000  0.7025710000000 1.0
C      1  0.6878560000000  0.3779980000000  0.5774870000000 1.0
C      1  0.6317700000000  0.3779810000000  0.3453190000000 1.0
END
