TITL C-1525613-7943-6726 0.178562061457844 3375 -7973.81373691159 0 0 60 (C1) n - 1
REM
REM in /home/nfs/bkarasulu/CARBON/AIRSS/Generating-Clusters/ReaxFF-fromJPCA2015/Units_Real/Try2-Higher-symm/Only-C60
REM
REM
REM
REM
REM
REM ./C.cell (863b2abdce7293c0672fb3ba77bf323a)
REM AIRSS Version 0.9.1 bugfix July 2018 build 013d7b7c2542+ Fri, 06 Jul 2018 19:26:36 +0100
REM compiler GCC version 9.2.1 20190827 (Red Hat 9.2.1-1)
REM options -cpp -mtune=generic -march=x86-64 -g -O0 -fpre-include=/usr/include/finclude/math-vector-fortran.h
REM seed 556040098 194768306 -184981415 95546857 1327701557 1248736799 -1366467024 -173620969 1122737477 -353544468 -9904186 -1623819325 265768105 665460 -481462807 -75855506 -304783896 -1212979334 -201445052 -2140576887 675937467 -725108224 1134931931 -969703044 -1115293964 -755312680 1020148733 597212718 1458815882 2035180452 -1339262594 874398852 1503296486
REM
CELL 1.54180   15.00000   15.00000   15.00000   90.00000   90.00000   90.00000
LATT -1
SFAC C  
C      1  0.5167760000000  0.5979530000000  0.3585250000000 1.0
C      1  0.6095870000000  0.5780930000000  0.6112400000000 1.0
C      1  0.6144860000000  0.4830470000000  0.3620210000000 1.0
C      1  0.5814520000000  0.4420850000000  0.6494200000000 1.0
C      1  0.5417850000000  0.4228300000000  0.3362480000000 1.0
C      1  0.4824990000000  0.4038850000000  0.6468610000000 1.0
C      1  0.3977070000000  0.4190790000000  0.3865410000000 1.0
C      1  0.3770160000000  0.5172360000000  0.6399810000000 1.0
C      1  0.4230230000000  0.5646560000000  0.3594400000000 1.0
C      1  0.4342060000000  0.5994140000000  0.6311510000000 1.0
C      1  0.7545160000000  0.5533590000000  0.5780580000000 1.0
C      1  0.7247980000000  0.4149610000000  0.4955230000000 1.0
C      1  0.6223740000000  0.2857170000000  0.5032470000000 1.0
C      1  0.4476570000000  0.2690210000000  0.4352410000000 1.0
C      1  0.3216060000000  0.3394850000000  0.5354150000000 1.0
C      1  0.2493910000000  0.4458450000000  0.4188070000000 1.0
C      1  0.2769890000000  0.5844530000000  0.5028520000000 1.0
C      1  0.3766580000000  0.7186020000000  0.4838530000000 1.0
C      1  0.5445700000000  0.7287230000000  0.5662650000000 1.0
C      1  0.6699940000000  0.6592070000000  0.4704660000000 1.0
C      1  0.4300020000000  0.3809890000000  0.7290480000000 1.0
C      1  0.3197040000000  0.4608040000000  0.3469180000000 1.0
C      1  0.3490940000000  0.5458670000000  0.7279870000000 1.0
C      1  0.3998030000000  0.6249620000000  0.2931520000000 1.0
C      1  0.4963420000000  0.6387530000000  0.7005860000000 1.0
C      1  0.5754830000000  0.6176970000000  0.2808570000000 1.0
C      1  0.6846290000000  0.5346910000000  0.6554730000000 1.0
C      1  0.6596850000000  0.4583870000000  0.2797990000000 1.0
C      1  0.6064590000000  0.3716300000000  0.7081930000000 1.0
C      1  0.5165550000000  0.3404190000000  0.2942990000000 1.0
C      1  0.5739300000000  0.3725490000000  0.5006890000000 1.0
C      1  0.4835060000000  0.3389440000000  0.5050180000000 1.0
C      1  0.4138860000000  0.3937730000000  0.5505720000000 1.0
C      1  0.4066840000000  0.4599710000000  0.4766920000000 1.0
C      1  0.3706870000000  0.5471860000000  0.5011570000000 1.0
C      1  0.4196110000000  0.6274140000000  0.4908110000000 1.0
C      1  0.5061390000000  0.6430280000000  0.5252260000000 1.0
C      1  0.5735110000000  0.6098810000000  0.4593840000000 1.0
C      1  0.5942200000000  0.5370180000000  0.5228360000000 1.0
C      1  0.6251420000000  0.4557480000000  0.4769300000000 1.0
C      1  0.4405440000000  0.3348230000000  0.3548450000000 1.0
C      1  0.3655200000000  0.4495750000000  0.7112210000000 1.0
C      1  0.3468640000000  0.5423120000000  0.3037020000000 1.0
C      1  0.4003590000000  0.6297800000000  0.7185040000000 1.0
C      1  0.4898870000000  0.6605640000000  0.2897070000000 1.0
C      1  0.5703720000000  0.6646000000000  0.6457020000000 1.0
C      1  0.6404200000000  0.5519660000000  0.2984340000000 1.0
C      1  0.6614950000000  0.4541600000000  0.7030420000000 1.0
C      1  0.5974490000000  0.3873570000000  0.2681310000000 1.0
C      1  0.5153360000000  0.3362910000000  0.7116720000000 1.0
C      1  0.5572650000000  0.2260680000000  0.4738390000000 1.0
C      1  0.3590920000000  0.2828570000000  0.4726020000000 1.0
C      1  0.2635270000000  0.3774540000000  0.4730260000000 1.0
C      1  0.2393740000000  0.5072430000000  0.4653920000000 1.0
C      1  0.2811590000000  0.6825990000000  0.4902020000000 1.0
C      1  0.4409310000000  0.7791280000000  0.5208280000000 1.0
C      1  0.6360070000000  0.7136960000000  0.5370260000000 1.0
C      1  0.7333760000000  0.6201930000000  0.5259700000000 1.0
C      1  0.7651480000000  0.4917080000000  0.5329240000000 1.0
C      1  0.7237140000000  0.3202640000000  0.5064530000000 1.0
END
