TITL C-1525613-7943-3623 5.11280408120084e-05 3375 -8699.98130581001 0 0 60 (C5) n - 1
REM
REM in /home/nfs/bkarasulu/CARBON/AIRSS/Generating-Clusters/ReaxFF-fromJPCA2015/Units_Real/Try2-Higher-symm/Only-C60
REM
REM
REM
REM
REM
REM ./C.cell (863b2abdce7293c0672fb3ba77bf323a)
REM AIRSS Version 0.9.1 bugfix July 2018 build 013d7b7c2542+ Fri, 06 Jul 2018 19:26:36 +0100
REM compiler GCC version 9.2.1 20190827 (Red Hat 9.2.1-1)
REM options -cpp -mtune=generic -march=x86-64 -g -O0 -fpre-include=/usr/include/finclude/math-vector-fortran.h
REM seed -1694946844 256597422 -178758079 -917500225 1581678865 -1937501674 -903374510 -2140105424 -309240010 894124206 -932375053 -687526214 -666042887 624497538 1468173873 1766961760 1825566611 -895788040 542988098 -1307055274 393122031 -505767465 1047959965 -1863566562 1523210253 695083529 361307052 937964346 -1746675201 895762266 -1848688306 1767378610 306702106
REM
CELL 1.54180   15.00000   15.00000   15.00000   90.00000   90.00000   90.00000
LATT -1
SFAC C  
C      1  0.3230010000000  0.3508450000000  0.4133700000000 1.0
C      1  0.3228340000000  0.3710120000000  0.6149600000000 1.0
C      1  0.3227400000000  0.5693430000000  0.6586390000000 1.0
C      1  0.3228360000000  0.6722700000000  0.4828920000000 1.0
C      1  0.3229780000000  0.5364060000000  0.3312010000000 1.0
C      1  0.6769990000000  0.3508450000000  0.4133700000000 1.0
C      1  0.6771660000000  0.3710120000000  0.6149600000000 1.0
C      1  0.6772600000000  0.5693430000000  0.6586390000000 1.0
C      1  0.6771640000000  0.6722700000000  0.4828920000000 1.0
C      1  0.6770220000000  0.5364060000000  0.3312010000000 1.0
C      1  0.4063760000000  0.4874570000000  0.3209870000000 1.0
C      1  0.4067970000000  0.3267710000000  0.4562710000000 1.0
C      1  0.4066710000000  0.4042910000000  0.6511820000000 1.0
C      1  0.4061370000000  0.6151220000000  0.6384050000000 1.0
C      1  0.4059910000000  0.6673350000000  0.4326420000000 1.0
C      1  0.5936240000000  0.4874570000000  0.3209870000000 1.0
C      1  0.5932030000000  0.3267710000000  0.4562710000000 1.0
C      1  0.5933290000000  0.4042910000000  0.6511820000000 1.0
C      1  0.5938630000000  0.6151220000000  0.6384050000000 1.0
C      1  0.5940090000000  0.6673350000000  0.4326420000000 1.0
C      1  0.4471710000000  0.5552720000000  0.2631010000000 1.0
C      1  0.4471270000000  0.2921980000000  0.3739360000000 1.0
C      1  0.4471480000000  0.3152370000000  0.6579060000000 1.0
C      1  0.4471880000000  0.5931190000000  0.7247800000000 1.0
C      1  0.4471930000000  0.7427180000000  0.4800730000000 1.0
C      1  0.5528290000000  0.5552720000000  0.2631010000000 1.0
C      1  0.5528730000000  0.2921980000000  0.3739360000000 1.0
C      1  0.5528520000000  0.3152370000000  0.6579060000000 1.0
C      1  0.5528120000000  0.5931190000000  0.7247800000000 1.0
C      1  0.5528070000000  0.7427180000000  0.4800730000000 1.0
C      1  0.7199950000000  0.5828460000000  0.4951200000000 1.0
C      1  0.7201390000000  0.5208740000000  0.4199960000000 1.0
C      1  0.7204070000000  0.4302890000000  0.4556830000000 1.0
C      1  0.7204450000000  0.4362100000000  0.5528540000000 1.0
C      1  0.7201890000000  0.5304880000000  0.5772510000000 1.0
C      1  0.2800050000000  0.5828460000000  0.4951200000000 1.0
C      1  0.2798610000000  0.5208740000000  0.4199960000000 1.0
C      1  0.2795930000000  0.4302890000000  0.4556830000000 1.0
C      1  0.2795550000000  0.4362100000000  0.5528540000000 1.0
C      1  0.2798110000000  0.5304880000000  0.5772510000000 1.0
C      1  0.3663040000000  0.2766880000000  0.6116180000000 1.0
C      1  0.3667200000000  0.5365320000000  0.7468440000000 1.0
C      1  0.3669390000000  0.7461850000000  0.5410150000000 1.0
C      1  0.3667370000000  0.6142190000000  0.2780930000000 1.0
C      1  0.3663320000000  0.3241500000000  0.3227660000000 1.0
C      1  0.6336960000000  0.2766880000000  0.6116180000000 1.0
C      1  0.6332800000000  0.5365320000000  0.7468440000000 1.0
C      1  0.6330610000000  0.7461850000000  0.5410150000000 1.0
C      1  0.6332630000000  0.6142190000000  0.2780930000000 1.0
C      1  0.6336680000000  0.3241500000000  0.3227660000000 1.0
C      1  0.4483630000000  0.5803010000000  0.4607790000000 1.0
C      1  0.4490880000000  0.4878070000000  0.4124610000000 1.0
C      1  0.4495930000000  0.4140210000000  0.4841500000000 1.0
C      1  0.4490820000000  0.4582110000000  0.5770590000000 1.0
C      1  0.4483320000000  0.5617810000000  0.5639650000000 1.0
C      1  0.5516370000000  0.5803010000000  0.4607790000000 1.0
C      1  0.5509120000000  0.4878070000000  0.4124610000000 1.0
C      1  0.5504070000000  0.4140210000000  0.4841500000000 1.0
C      1  0.5509180000000  0.4582110000000  0.5770590000000 1.0
C      1  0.5516680000000  0.5617810000000  0.5639650000000 1.0
END
