TITL C-1525613-7943-1804 0.0338428464966277 3375 -9445.33035177226 0 0 60 (D5) n - 1
REM
REM in /home/nfs/bkarasulu/CARBON/AIRSS/Generating-Clusters/ReaxFF-fromJPCA2015/Units_Real/Try2-Higher-symm/Only-C60
REM
REM
REM
REM
REM
REM ./C.cell (863b2abdce7293c0672fb3ba77bf323a)
REM AIRSS Version 0.9.1 bugfix July 2018 build 013d7b7c2542+ Fri, 06 Jul 2018 19:26:36 +0100
REM compiler GCC version 9.2.1 20190827 (Red Hat 9.2.1-1)
REM options -cpp -mtune=generic -march=x86-64 -g -O0 -fpre-include=/usr/include/finclude/math-vector-fortran.h
REM seed -799505042 -639104641 -915899551 -1484884287 201818011 595734257 -1329044182 453456567 -1033089605 -753607994 162038011 -1197191804 -1384274005 -2088418067 -244174017 1415157225 1351815945 781913360 -1693734716 -282730007 -1226211673 -482653206 520154932 1234521878 1969385329 1324871347 -292182659 -381147299 1891584488 2074632208 -428171281 -1359554145 -719065599
REM
CELL 1.54180   15.00000   15.00000   15.00000   90.00000   90.00000   90.00000
LATT -1
SFAC C  
C      1  0.2842590000000  0.4029120000000  0.5100610000000 1.0
C      1  0.4237500000000  0.4028770000000  0.2979420000000 1.0
C      1  0.6685900000000  0.4028140000000  0.3650470000000 1.0
C      1  0.6804270000000  0.4028050000000  0.6186640000000 1.0
C      1  0.4428990000000  0.4028620000000  0.7082830000000 1.0
C      1  0.7157410000000  0.5970880000000  0.5100600000000 1.0
C      1  0.5762500000000  0.5971220000000  0.2979420000000 1.0
C      1  0.3314100000000  0.5971860000000  0.3650480000000 1.0
C      1  0.3195730000000  0.5971950000000  0.6186640000000 1.0
C      1  0.5571010000000  0.5971380000000  0.7082830000000 1.0
C      1  0.2469200000000  0.4513740000000  0.3502880000000 1.0
C      1  0.5641800000000  0.4512900000000  0.2130400000000 1.0
C      1  0.7927480000000  0.4512430000000  0.4723890000000 1.0
C      1  0.6167290000000  0.4513000000000  0.7698990000000 1.0
C      1  0.2793950000000  0.4513790000000  0.6944070000000 1.0
C      1  0.7530730000000  0.5486260000000  0.3502890000000 1.0
C      1  0.4358200000000  0.5487090000000  0.2130410000000 1.0
C      1  0.2072560000000  0.5487570000000  0.4723900000000 1.0
C      1  0.3832710000000  0.5487000000000  0.7698990000000 1.0
C      1  0.7206050000000  0.5486210000000  0.6944060000000 1.0
C      1  0.6954730000000  0.4790110000000  0.3089400000000 1.0
C      1  0.7421210000000  0.4790020000000  0.6268540000000 1.0
C      1  0.4541760000000  0.4790900000000  0.7694830000000 1.0
C      1  0.2295470000000  0.4791400000000  0.5396860000000 1.0
C      1  0.3786890000000  0.4790900000000  0.2550580000000 1.0
C      1  0.3045310000000  0.5209940000000  0.3089360000000 1.0
C      1  0.2578780000000  0.5209990000000  0.6268530000000 1.0
C      1  0.5458240000000  0.5209100000000  0.7694830000000 1.0
C      1  0.7704530000000  0.5208620000000  0.5396890000000 1.0
C      1  0.6213130000000  0.5209110000000  0.2550590000000 1.0
C      1  0.3549310000000  0.3920770000000  0.6653640000000 1.0
C      1  0.2978730000000  0.3920970000000  0.4131560000000 1.0
C      1  0.5200840000000  0.3920360000000  0.2809490000000 1.0
C      1  0.7145190000000  0.3919690000000  0.4514290000000 1.0
C      1  0.6124240000000  0.3919870000000  0.6890450000000 1.0
C      1  0.6450690000000  0.6079230000000  0.6653640000000 1.0
C      1  0.7021310000000  0.6078980000000  0.4131510000000 1.0
C      1  0.4799160000000  0.6079640000000  0.2809480000000 1.0
C      1  0.2854780000000  0.6080280000000  0.4514290000000 1.0
C      1  0.3875760000000  0.6080120000000  0.6890450000000 1.0
C      1  0.5732320000000  0.6748770000000  0.5337480000000 1.0
C      1  0.4905580000000  0.6749230000000  0.5800270000000 1.0
C      1  0.4209970000000  0.6749390000000  0.5156870000000 1.0
C      1  0.4607160000000  0.6749340000000  0.4296940000000 1.0
C      1  0.5547580000000  0.6749010000000  0.4408570000000 1.0
C      1  0.4267680000000  0.3251230000000  0.5337480000000 1.0
C      1  0.5094420000000  0.3250770000000  0.5800270000000 1.0
C      1  0.5790030000000  0.3250610000000  0.5156870000000 1.0
C      1  0.5392840000000  0.3250660000000  0.4296940000000 1.0
C      1  0.4452420000000  0.3250990000000  0.4408560000000 1.0
C      1  0.3484740000000  0.3649760000000  0.5709100000000 1.0
C      1  0.3857230000000  0.3649680000000  0.3778290000000 1.0
C      1  0.5808640000000  0.3649010000000  0.3535910000000 1.0
C      1  0.6642190000000  0.3648830000000  0.5317000000000 1.0
C      1  0.5205780000000  0.3649190000000  0.6659760000000 1.0
C      1  0.6515260000000  0.6350240000000  0.5709110000000 1.0
C      1  0.6142770000000  0.6350330000000  0.3778290000000 1.0
C      1  0.4191360000000  0.6350990000000  0.3535910000000 1.0
C      1  0.3357810000000  0.6351170000000  0.5317000000000 1.0
C      1  0.4794220000000  0.6350810000000  0.6659760000000 1.0
END
