TITL C-1525613-7943-2299 0.00246864075447624 3375 -9345.69775774505 0 0 60 (C5) n - 1
REM
REM in /home/nfs/bkarasulu/CARBON/AIRSS/Generating-Clusters/ReaxFF-fromJPCA2015/Units_Real/Try2-Higher-symm/Only-C60
REM
REM
REM
REM
REM
REM ./C.cell (863b2abdce7293c0672fb3ba77bf323a)
REM AIRSS Version 0.9.1 bugfix July 2018 build 013d7b7c2542+ Fri, 06 Jul 2018 19:26:36 +0100
REM compiler GCC version 9.2.1 20190827 (Red Hat 9.2.1-1)
REM options -cpp -mtune=generic -march=x86-64 -g -O0 -fpre-include=/usr/include/finclude/math-vector-fortran.h
REM seed 634700383 -2021478745 206140435 -736009270 971939560 -1023014880 -383879066 703330764 1029145862 333433808 -1677911087 -759423490 899402263 712556208 -1925941461 239150092 2111336780 1315843689 -413891063 -2146979127 2046658000 610922324 -2019530641 -1911708790 521875365 1585175763 808965100 -592811869 856440659 -1128879432 -856583946 -120613609 1549728392
REM
CELL 1.54180   15.00000   15.00000   15.00000   90.00000   90.00000   90.00000
LATT -1
SFAC C  
C      1  0.5481580000000  0.2344280000000  0.4638450000000 1.0
C      1  0.5483180000000  0.3835620000000  0.7414340000000 1.0
C      1  0.5483230000000  0.6936120000000  0.6853550000000 1.0
C      1  0.5481330000000  0.7360810000000  0.3731600000000 1.0
C      1  0.5480950000000  0.4523150000000  0.2361990000000 1.0
C      1  0.5474630000000  0.7635390000000  0.4636310000000 1.0
C      1  0.5476220000000  0.6160740000000  0.7394430000000 1.0
C      1  0.5476090000000  0.3081500000000  0.6844120000000 1.0
C      1  0.5474250000000  0.2653420000000  0.3744940000000 1.0
C      1  0.5473980000000  0.5468340000000  0.2380300000000 1.0
C      1  0.3341490000000  0.6235550000000  0.4116350000000 1.0
C      1  0.3341300000000  0.4541030000000  0.3552030000000 1.0
C      1  0.3341270000000  0.3480480000000  0.4989040000000 1.0
C      1  0.3342360000000  0.4520010000000  0.6441450000000 1.0
C      1  0.3342640000000  0.6222370000000  0.5901920000000 1.0
C      1  0.3365070000000  0.3777130000000  0.4109460000000 1.0
C      1  0.3364620000000  0.5469360000000  0.3562110000000 1.0
C      1  0.3364240000000  0.6513400000000  0.5002210000000 1.0
C      1  0.3366020000000  0.5465680000000  0.6439440000000 1.0
C      1  0.3366510000000  0.3775280000000  0.5887620000000 1.0
C      1  0.3852210000000  0.7003620000000  0.6177010000000 1.0
C      1  0.3850780000000  0.6738720000000  0.3458110000000 1.0
C      1  0.3850510000000  0.4070540000000  0.2869880000000 1.0
C      1  0.3850940000000  0.2686510000000  0.5225780000000 1.0
C      1  0.3852210000000  0.4499880000000  0.7269520000000 1.0
C      1  0.3870840000000  0.2996880000000  0.6151480000000 1.0
C      1  0.3869020000000  0.3285370000000  0.3450430000000 1.0
C      1  0.3868640000000  0.5944020000000  0.2890540000000 1.0
C      1  0.3868560000000  0.7298670000000  0.5246150000000 1.0
C      1  0.3870470000000  0.5476170000000  0.7261290000000 1.0
C      1  0.4505430000000  0.3801410000000  0.7462450000000 1.0
C      1  0.4505520000000  0.6971370000000  0.6900780000000 1.0
C      1  0.4503720000000  0.7417490000000  0.3712620000000 1.0
C      1  0.4503360000000  0.4522340000000  0.2302770000000 1.0
C      1  0.4503920000000  0.2287060000000  0.4620780000000 1.0
C      1  0.4520210000000  0.6170790000000  0.7466210000000 1.0
C      1  0.4520240000000  0.3016370000000  0.6875550000000 1.0
C      1  0.4518350000000  0.2602700000000  0.3692720000000 1.0
C      1  0.4517880000000  0.5502450000000  0.2316200000000 1.0
C      1  0.4518500000000  0.7707760000000  0.4648700000000 1.0
C      1  0.6081160000000  0.7272340000000  0.5227500000000 1.0
C      1  0.6079950000000  0.5918490000000  0.2908430000000 1.0
C      1  0.6079400000000  0.3295520000000  0.3480210000000 1.0
C      1  0.6081810000000  0.3027390000000  0.6152180000000 1.0
C      1  0.6082580000000  0.5486130000000  0.7232390000000 1.0
C      1  0.6095800000000  0.2717500000000  0.5260430000000 1.0
C      1  0.6095440000000  0.4046490000000  0.2908200000000 1.0
C      1  0.6094930000000  0.6693450000000  0.3447630000000 1.0
C      1  0.6097420000000  0.7000440000000  0.6131550000000 1.0
C      1  0.6097480000000  0.4542290000000  0.7252170000000 1.0
C      1  0.6713590000000  0.4498770000000  0.3499500000000 1.0
C      1  0.6713280000000  0.3419730000000  0.5012860000000 1.0
C      1  0.6715000000000  0.4523960000000  0.6507700000000 1.0
C      1  0.6715100000000  0.6286840000000  0.5918740000000 1.0
C      1  0.6712750000000  0.6270600000000  0.4060120000000 1.0
C      1  0.6699880000000  0.5464320000000  0.3495000000000 1.0
C      1  0.6700610000000  0.6573860000000  0.4976810000000 1.0
C      1  0.6701930000000  0.5508600000000  0.6490410000000 1.0
C      1  0.6701080000000  0.3740100000000  0.5944070000000 1.0
C      1  0.6698580000000  0.3713390000000  0.4093460000000 1.0
END
