TITL C-1525613-7943-7640 0.0129225742833658 3375 -9516.78489048401 0 0 60 (C1) n - 1
REM
REM in /home/nfs/bkarasulu/CARBON/AIRSS/Generating-Clusters/ReaxFF-fromJPCA2015/Units_Real/Try2-Higher-symm/Only-C60
REM
REM
REM
REM
REM
REM ./C.cell (863b2abdce7293c0672fb3ba77bf323a)
REM AIRSS Version 0.9.1 bugfix July 2018 build 013d7b7c2542+ Fri, 06 Jul 2018 19:26:36 +0100
REM compiler GCC version 9.2.1 20190827 (Red Hat 9.2.1-1)
REM options -cpp -mtune=generic -march=x86-64 -g -O0 -fpre-include=/usr/include/finclude/math-vector-fortran.h
REM seed 1193787521 1921545402 -1804998068 626792056 -160137620 -165368286 -917710945 2118159243 -169751935 1574521167 1176900458 1111128525 -1497551488 365056713 1175828760 908582622 961205767 1376391018 678281549 -1186300863 -2033037896 -1106049664 2046443644 889832960 -1145197886 2138323178 -312964926 847200900 -430825253 1801298691 1941728463 -1999973978 -1319962485
REM
CELL 1.54180   15.00000   15.00000   15.00000   90.00000   90.00000   90.00000
LATT -1
SFAC C  
C      1  0.6207620000000  0.6495370000000  0.6657720000000 1.0
C      1  0.6207180000000  0.3886400000000  0.6914560000000 1.0
C      1  0.6233140000000  0.2784430000000  0.4523960000000 1.0
C      1  0.6220410000000  0.4782600000000  0.2793180000000 1.0
C      1  0.6219420000000  0.7065580000000  0.4084820000000 1.0
C      1  0.6209670000000  0.6484380000000  0.3347770000000 1.0
C      1  0.6237680000000  0.3865600000000  0.3043960000000 1.0
C      1  0.6219840000000  0.2824670000000  0.5473500000000 1.0
C      1  0.6218970000000  0.4768580000000  0.7238160000000 1.0
C      1  0.6207460000000  0.7042500000000  0.5909190000000 1.0
C      1  0.3126180000000  0.4985410000000  0.6570220000000 1.0
C      1  0.3111480000000  0.3542210000000  0.5477390000000 1.0
C      1  0.3145000000000  0.4110980000000  0.3764750000000 1.0
C      1  0.3155560000000  0.5905620000000  0.3754680000000 1.0
C      1  0.3098830000000  0.6489190000000  0.5488530000000 1.0
C      1  0.3118670000000  0.4992140000000  0.3467120000000 1.0
C      1  0.3123610000000  0.3555680000000  0.4529600000000 1.0
C      1  0.3148780000000  0.4097030000000  0.6267490000000 1.0
C      1  0.3097800000000  0.5925680000000  0.6274490000000 1.0
C      1  0.3134040000000  0.6468050000000  0.4503020000000 1.0
C      1  0.6902760000000  0.4085880000000  0.3738570000000 1.0
C      1  0.6869370000000  0.5913550000000  0.3726920000000 1.0
C      1  0.6890580000000  0.6505450000000  0.5480110000000 1.0
C      1  0.6900470000000  0.5000900000000  0.6567470000000 1.0
C      1  0.6854970000000  0.3517260000000  0.5495060000000 1.0
C      1  0.6860830000000  0.4069820000000  0.6250610000000 1.0
C      1  0.6889070000000  0.5922180000000  0.6274870000000 1.0
C      1  0.6904790000000  0.6505470000000  0.4513370000000 1.0
C      1  0.6851940000000  0.5018250000000  0.3448030000000 1.0
C      1  0.6898610000000  0.3513150000000  0.4518810000000 1.0
C      1  0.3766310000000  0.5215150000000  0.2753600000000 1.0
C      1  0.3786960000000  0.7166460000000  0.4534120000000 1.0
C      1  0.3777750000000  0.6128410000000  0.6952240000000 1.0
C      1  0.3771770000000  0.3519850000000  0.6672210000000 1.0
C      1  0.3751430000000  0.2935210000000  0.4099490000000 1.0
C      1  0.3786470000000  0.5231570000000  0.7216270000000 1.0
C      1  0.3775730000000  0.7198890000000  0.5467660000000 1.0
C      1  0.3771890000000  0.6128880000000  0.3075110000000 1.0
C      1  0.3757690000000  0.3511950000000  0.3309710000000 1.0
C      1  0.3765540000000  0.2936140000000  0.5906740000000 1.0
C      1  0.4591090000000  0.3845060000000  0.7030500000000 1.0
C      1  0.4591190000000  0.2666460000000  0.4516140000000 1.0
C      1  0.4608260000000  0.4738370000000  0.2642210000000 1.0
C      1  0.4589270000000  0.7132550000000  0.4052050000000 1.0
C      1  0.4594590000000  0.6581960000000  0.6740950000000 1.0
C      1  0.4599410000000  0.3819240000000  0.2925580000000 1.0
C      1  0.4602410000000  0.2679250000000  0.5478750000000 1.0
C      1  0.4587790000000  0.4759110000000  0.7322150000000 1.0
C      1  0.4593800000000  0.7144000000000  0.5964320000000 1.0
C      1  0.4596180000000  0.6575070000000  0.3274050000000 1.0
C      1  0.5407790000000  0.3392640000000  0.3235980000000 1.0
C      1  0.5410270000000  0.6159890000000  0.2982290000000 1.0
C      1  0.5405090000000  0.7294360000000  0.5484710000000 1.0
C      1  0.5398950000000  0.5263900000000  0.7331110000000 1.0
C      1  0.5414920000000  0.2863120000000  0.5957720000000 1.0
C      1  0.5406300000000  0.3435410000000  0.6724510000000 1.0
C      1  0.5406000000000  0.6170760000000  0.7030120000000 1.0
C      1  0.5399420000000  0.7302170000000  0.4528860000000 1.0
C      1  0.5417960000000  0.5254940000000  0.2676990000000 1.0
C      1  0.5403020000000  0.2825250000000  0.4015920000000 1.0
END
