TITL C-1525613-7943-7504 -0.115292123487495 3375 -9187.02050354338 0 0 60 (C5) n - 1
REM
REM in /home/nfs/bkarasulu/CARBON/AIRSS/Generating-Clusters/ReaxFF-fromJPCA2015/Units_Real/Try2-Higher-symm/Only-C60
REM
REM
REM
REM
REM
REM ./C.cell (863b2abdce7293c0672fb3ba77bf323a)
REM AIRSS Version 0.9.1 bugfix July 2018 build 013d7b7c2542+ Fri, 06 Jul 2018 19:26:36 +0100
REM compiler GCC version 9.2.1 20190827 (Red Hat 9.2.1-1)
REM options -cpp -mtune=generic -march=x86-64 -g -O0 -fpre-include=/usr/include/finclude/math-vector-fortran.h
REM seed -505959115 -1101989800 1072564472 1824608192 1112381932 -463960348 -1590383034 356202123 1799503680 -1133452359 267488469 1462522619 -1386998117 -2031188485 1381381574 1344837236 -507910373 -977313697 -1210694712 -1292492390 1854088243 -1432192771 -1885404217 2013174898 1600173077 -1923576527 -123088588 -870275439 -225459490 1124879718 1209455472 -1390621949 -208819205
REM
CELL 1.54180   15.00000   15.00000   15.00000   90.00000   90.00000   90.00000
LATT -1
SFAC C  
C      1  0.7330420000000  0.6174340000000  0.5491900000000 1.0
C      1  0.5249570000000  0.6179170000000  0.7374530000000 1.0
C      1  0.2823560000000  0.6173770000000  0.5972050000000 1.0
C      1  0.3402970000000  0.6175200000000  0.3229420000000 1.0
C      1  0.6191890000000  0.6175720000000  0.2933020000000 1.0
C      1  0.7334850000000  0.6179960000000  0.4504610000000 1.0
C      1  0.5252290000000  0.6173380000000  0.2629150000000 1.0
C      1  0.2822990000000  0.6175350000000  0.4028660000000 1.0
C      1  0.3401420000000  0.6177490000000  0.6772610000000 1.0
C      1  0.6186930000000  0.6169890000000  0.7063270000000 1.0
C      1  0.4947180000000  0.4573220000000  0.7808510000000 1.0
C      1  0.2326910000000  0.4563560000000  0.5810610000000 1.0
C      1  0.3404730000000  0.4564920000000  0.2701880000000 1.0
C      1  0.6690460000000  0.4567950000000  0.2766970000000 1.0
C      1  0.7630940000000  0.4562720000000  0.5912260000000 1.0
C      1  0.4940250000000  0.4563360000000  0.2206830000000 1.0
C      1  0.2314600000000  0.4568310000000  0.4183480000000 1.0
C      1  0.3402470000000  0.4567440000000  0.7289620000000 1.0
C      1  0.6696740000000  0.4562450000000  0.7237870000000 1.0
C      1  0.7646700000000  0.4570990000000  0.4087960000000 1.0
C      1  0.4074140000000  0.3341970000000  0.6271110000000 1.0
C      1  0.3506540000000  0.3353820000000  0.4515130000000 1.0
C      1  0.4998740000000  0.3336510000000  0.3422950000000 1.0
C      1  0.6493520000000  0.3352520000000  0.4516600000000 1.0
C      1  0.5928080000000  0.3339420000000  0.6273930000000 1.0
C      1  0.4074710000000  0.3341170000000  0.3726800000000 1.0
C      1  0.3500480000000  0.3336650000000  0.5487190000000 1.0
C      1  0.5001140000000  0.3363830000000  0.6565440000000 1.0
C      1  0.6504250000000  0.3323830000000  0.5488320000000 1.0
C      1  0.5921370000000  0.3346670000000  0.3728260000000 1.0
C      1  0.5937870000000  0.6719100000000  0.6280850000000 1.0
C      1  0.4069230000000  0.6726560000000  0.6294160000000 1.0
C      1  0.3484880000000  0.6724700000000  0.4514970000000 1.0
C      1  0.4993290000000  0.6722450000000  0.3408750000000 1.0
C      1  0.6513850000000  0.6730560000000  0.4499550000000 1.0
C      1  0.5942370000000  0.6725290000000  0.3715630000000 1.0
C      1  0.4070110000000  0.6725600000000  0.3707390000000 1.0
C      1  0.3485950000000  0.6722020000000  0.5485340000000 1.0
C      1  0.4991620000000  0.6730500000000  0.6595890000000 1.0
C      1  0.6509010000000  0.6723350000000  0.5496860000000 1.0
C      1  0.6230740000000  0.3706610000000  0.2842110000000 1.0
C      1  0.7439520000000  0.3693100000000  0.5507480000000 1.0
C      1  0.5272960000000  0.3714250000000  0.7468110000000 1.0
C      1  0.2731150000000  0.3698380000000  0.6022880000000 1.0
C      1  0.3328430000000  0.3702710000000  0.3159050000000 1.0
C      1  0.6235610000000  0.3701480000000  0.7160680000000 1.0
C      1  0.7434310000000  0.3707090000000  0.4497180000000 1.0
C      1  0.5270910000000  0.3699230000000  0.2525600000000 1.0
C      1  0.2734830000000  0.3707790000000  0.3977730000000 1.0
C      1  0.3327640000000  0.3702450000000  0.6839310000000 1.0
C      1  0.6898000000000  0.5482890000000  0.7005830000000 1.0
C      1  0.3676390000000  0.5486870000000  0.7427550000000 1.0
C      1  0.2282290000000  0.5487290000000  0.4492890000000 1.0
C      1  0.4643400000000  0.5484490000000  0.2259700000000 1.0
C      1  0.7497360000000  0.5488770000000  0.3813920000000 1.0
C      1  0.6901830000000  0.5487160000000  0.2991870000000 1.0
C      1  0.3677840000000  0.5486330000000  0.2572600000000 1.0
C      1  0.2285430000000  0.5483620000000  0.5507910000000 1.0
C      1  0.4640540000000  0.5491700000000  0.7744870000000 1.0
C      1  0.7491750000000  0.5482110000000  0.6182400000000 1.0
END
