TITL C-1525613-7943-7211 0.176751071461689 3375 -8648.94050488864 0 0 60 (D5) n - 1
REM
REM in /home/nfs/bkarasulu/CARBON/AIRSS/Generating-Clusters/ReaxFF-fromJPCA2015/Units_Real/Try2-Higher-symm/Only-C60
REM
REM
REM
REM
REM
REM ./C.cell (863b2abdce7293c0672fb3ba77bf323a)
REM AIRSS Version 0.9.1 bugfix July 2018 build 013d7b7c2542+ Fri, 06 Jul 2018 19:26:36 +0100
REM compiler GCC version 9.2.1 20190827 (Red Hat 9.2.1-1)
REM options -cpp -mtune=generic -march=x86-64 -g -O0 -fpre-include=/usr/include/finclude/math-vector-fortran.h
REM seed 50589899 -694811253 1852197936 -1378906257 1677118122 -110559623 1239073718 -256717593 -70209816 568610542 684304688 1275168434 7294861 1545243799 1456338959 749344622 424866378 1161623140 -799758808 -1697382860 -1322061464 1448785411 1024953494 -1634714131 1070363313 -571382906 -407004266 360276944 936190406 186474130 417572035 38584874 508711089
REM
CELL 1.54180   15.00000   15.00000   15.00000   90.00000   90.00000   90.00000
LATT -1
SFAC C  
C      1  0.6635920000000  0.4741150000000  0.2978020000000 1.0
C      1  0.5259090000000  0.3368200000000  0.2976990000000 1.0
C      1  0.3519700000000  0.4244470000000  0.2969270000000 1.0
C      1  0.3827720000000  0.6167310000000  0.2978460000000 1.0
C      1  0.5746880000000  0.6472560000000  0.2982980000000 1.0
C      1  0.6635920000000  0.5258850000000  0.7021980000000 1.0
C      1  0.5259090000000  0.6631800000000  0.7023010000000 1.0
C      1  0.3519700000000  0.5755530000000  0.7030730000000 1.0
C      1  0.3827720000000  0.3832690000000  0.7021540000000 1.0
C      1  0.5746880000000  0.3527440000000  0.7017020000000 1.0
C      1  0.4385780000000  0.3002360000000  0.6165130000000 1.0
C      1  0.2915990000000  0.4966200000000  0.6168310000000 1.0
C      1  0.4320360000000  0.6986380000000  0.6169630000000 1.0
C      1  0.6678260000000  0.6258390000000  0.6165920000000 1.0
C      1  0.6714560000000  0.3793530000000  0.6163150000000 1.0
C      1  0.4385780000000  0.6997640000000  0.3834870000000 1.0
C      1  0.2915990000000  0.5033800000000  0.3831690000000 1.0
C      1  0.4320360000000  0.3013620000000  0.3830370000000 1.0
C      1  0.6678260000000  0.3741610000000  0.3834080000000 1.0
C      1  0.6714560000000  0.6206470000000  0.3836850000000 1.0
C      1  0.7204110000000  0.4513900000000  0.3701800000000 1.0
C      1  0.5217560000000  0.2753610000000  0.3697220000000 1.0
C      1  0.2932290000000  0.4100130000000  0.3698620000000 1.0
C      1  0.3504780000000  0.6687330000000  0.3702450000000 1.0
C      1  0.6142550000000  0.6945200000000  0.3702880000000 1.0
C      1  0.7204110000000  0.5486100000000  0.6298200000000 1.0
C      1  0.5217560000000  0.7246390000000  0.6302780000000 1.0
C      1  0.2932290000000  0.5899870000000  0.6301380000000 1.0
C      1  0.3504780000000  0.3312670000000  0.6297550000000 1.0
C      1  0.6142550000000  0.3054800000000  0.6297120000000 1.0
C      1  0.5852330000000  0.4873680000000  0.2491400000000 1.0
C      1  0.5141330000000  0.4154490000000  0.2491180000000 1.0
C      1  0.4232290000000  0.4598190000000  0.2483950000000 1.0
C      1  0.4382610000000  0.5598090000000  0.2492790000000 1.0
C      1  0.5380280000000  0.5767560000000  0.2496500000000 1.0
C      1  0.5852330000000  0.5126320000000  0.7508600000000 1.0
C      1  0.5141330000000  0.5845510000000  0.7508820000000 1.0
C      1  0.4232290000000  0.5401810000000  0.7516050000000 1.0
C      1  0.4382610000000  0.4401910000000  0.7507210000000 1.0
C      1  0.5380280000000  0.4232440000000  0.7503500000000 1.0
C      1  0.3313880000000  0.4661460000000  0.5413340000000 1.0
C      1  0.4158640000000  0.6503600000000  0.5418460000000 1.0
C      1  0.6168410000000  0.6265430000000  0.5415630000000 1.0
C      1  0.6563940000000  0.4280330000000  0.5412610000000 1.0
C      1  0.4798980000000  0.3289500000000  0.5410930000000 1.0
C      1  0.3313880000000  0.5338540000000  0.4586660000000 1.0
C      1  0.4158640000000  0.3496400000000  0.4581540000000 1.0
C      1  0.6168410000000  0.3734570000000  0.4584370000000 1.0
C      1  0.6563940000000  0.5719670000000  0.4587390000000 1.0
C      1  0.4798980000000  0.6710500000000  0.4589070000000 1.0
C      1  0.3022540000000  0.6240250000000  0.4539200000000 1.0
C      1  0.5566960000000  0.7264740000000  0.4539530000000 1.0
C      1  0.7330050000000  0.5161730000000  0.4537300000000 1.0
C      1  0.5871170000000  0.2835100000000  0.4533940000000 1.0
C      1  0.3211060000000  0.3501020000000  0.4534400000000 1.0
C      1  0.3022540000000  0.3759750000000  0.5460800000000 1.0
C      1  0.5566960000000  0.2735260000000  0.5460470000000 1.0
C      1  0.7330050000000  0.4838270000000  0.5462700000000 1.0
C      1  0.5871170000000  0.7164900000000  0.5466060000000 1.0
C      1  0.3211060000000  0.6498980000000  0.5465600000000 1.0
END
