TITL C-1525613-7943-6122 -0.10272754221247 3375 -8650.82385150473 0 0 60 (C2) n - 1
REM
REM in /home/nfs/bkarasulu/CARBON/AIRSS/Generating-Clusters/ReaxFF-fromJPCA2015/Units_Real/Try2-Higher-symm/Only-C60
REM
REM
REM
REM
REM
REM ./C.cell (863b2abdce7293c0672fb3ba77bf323a)
REM AIRSS Version 0.9.1 bugfix July 2018 build 013d7b7c2542+ Fri, 06 Jul 2018 19:26:36 +0100
REM compiler GCC version 9.2.1 20190827 (Red Hat 9.2.1-1)
REM options -cpp -mtune=generic -march=x86-64 -g -O0 -fpre-include=/usr/include/finclude/math-vector-fortran.h
REM seed -521559811 -1351501534 1131876481 -82713573 1459076460 2040307745 853459153 -716675464 -525680317 -806928163 -897972898 1207357715 -2045929126 -1590034446 2050008387 -972456271 486914279 -1141236809 522470912 1320252794 419157740 421891469 -344023620 -1639681422 1556624641 -2029532484 1245788553 -2023730008 606052641 1380049729 -922811660 826419721 -1681154453
REM
CELL 1.54180   15.00000   15.00000   15.00000   90.00000   90.00000   90.00000
LATT -1
SFAC C  
C      1  0.5513890000000  0.7259450000000  0.5902060000000 1.0
C      1  0.5492210000000  0.6703070000000  0.3258190000000 1.0
C      1  0.5523720000000  0.3245190000000  0.2916410000000 1.0
C      1  0.5499560000000  0.2627930000000  0.5538830000000 1.0
C      1  0.5507540000000  0.4819050000000  0.7311080000000 1.0
C      1  0.4491670000000  0.7262460000000  0.4084560000000 1.0
C      1  0.4511840000000  0.6704230000000  0.6733400000000 1.0
C      1  0.4474100000000  0.3227420000000  0.7081530000000 1.0
C      1  0.4508410000000  0.2621230000000  0.4469880000000 1.0
C      1  0.4495720000000  0.4818920000000  0.2682420000000 1.0
C      1  0.3928050000000  0.5531090000000  0.2989410000000 1.0
C      1  0.4065970000000  0.3176430000000  0.3807990000000 1.0
C      1  0.3949690000000  0.3031270000000  0.6321980000000 1.0
C      1  0.4021190000000  0.5911630000000  0.6987680000000 1.0
C      1  0.4012590000000  0.7369840000000  0.4917300000000 1.0
C      1  0.6072600000000  0.5533000000000  0.7006790000000 1.0
C      1  0.5935770000000  0.3184660000000  0.6189400000000 1.0
C      1  0.6053220000000  0.3042630000000  0.3677640000000 1.0
C      1  0.5985120000000  0.5907770000000  0.3015730000000 1.0
C      1  0.5981240000000  0.7382110000000  0.5068890000000 1.0
C      1  0.4512690000000  0.2661900000000  0.5512760000000 1.0
C      1  0.4591380000000  0.5153700000000  0.7268290000000 1.0
C      1  0.4533750000000  0.7202130000000  0.5848020000000 1.0
C      1  0.4518060000000  0.6452270000000  0.3396190000000 1.0
C      1  0.4614510000000  0.3748630000000  0.3101860000000 1.0
C      1  0.5494230000000  0.2675810000000  0.4485670000000 1.0
C      1  0.5414630000000  0.5148400000000  0.2742610000000 1.0
C      1  0.5471370000000  0.7210530000000  0.4136610000000 1.0
C      1  0.5484200000000  0.6447800000000  0.6599880000000 1.0
C      1  0.5378460000000  0.3755750000000  0.6865130000000 1.0
C      1  0.4980740000000  0.4182880000000  0.6084440000000 1.0
C      1  0.5183760000000  0.5732890000000  0.5987730000000 1.0
C      1  0.5375820000000  0.6125550000000  0.4646150000000 1.0
C      1  0.5298360000000  0.5007420000000  0.3719920000000 1.0
C      1  0.5347980000000  0.3813890000000  0.4677910000000 1.0
C      1  0.4958690000000  0.4178500000000  0.3916730000000 1.0
C      1  0.4821740000000  0.5738570000000  0.4010920000000 1.0
C      1  0.4630000000000  0.6124380000000  0.5355750000000 1.0
C      1  0.4697460000000  0.5009810000000  0.6285960000000 1.0
C      1  0.4641340000000  0.3816920000000  0.5321360000000 1.0
C      1  0.3680890000000  0.5701100000000  0.5339630000000 1.0
C      1  0.3096960000000  0.5949780000000  0.4591110000000 1.0
C      1  0.3289180000000  0.4604150000000  0.3748810000000 1.0
C      1  0.3686190000000  0.3973490000000  0.5135950000000 1.0
C      1  0.3200870000000  0.4613840000000  0.6239720000000 1.0
C      1  0.6320240000000  0.5701830000000  0.4667990000000 1.0
C      1  0.6907470000000  0.5948670000000  0.5416940000000 1.0
C      1  0.6717860000000  0.4606340000000  0.6246530000000 1.0
C      1  0.6309660000000  0.3978260000000  0.4864660000000 1.0
C      1  0.6813650000000  0.4621210000000  0.3773340000000 1.0
C      1  0.6743850000000  0.3727610000000  0.4030050000000 1.0
C      1  0.6614430000000  0.3786860000000  0.5801410000000 1.0
C      1  0.6819850000000  0.5485350000000  0.6372110000000 1.0
C      1  0.6719710000000  0.6849130000000  0.5271350000000 1.0
C      1  0.6620110000000  0.5535000000000  0.3720150000000 1.0
C      1  0.3260690000000  0.3722280000000  0.5976660000000 1.0
C      1  0.3387520000000  0.3789230000000  0.4198800000000 1.0
C      1  0.3192790000000  0.5485300000000  0.3634340000000 1.0
C      1  0.3259720000000  0.6844380000000  0.4757980000000 1.0
C      1  0.3385070000000  0.5529100000000  0.6287410000000 1.0
END
