TITL C-1525613-7943-4325 -0.370078823873245 3375 -8589.54959463068 0 0 60 (C2) n - 1
REM
REM in /home/nfs/bkarasulu/CARBON/AIRSS/Generating-Clusters/ReaxFF-fromJPCA2015/Units_Real/Try2-Higher-symm/Only-C60
REM
REM
REM
REM
REM
REM ./C.cell (863b2abdce7293c0672fb3ba77bf323a)
REM AIRSS Version 0.9.1 bugfix July 2018 build 013d7b7c2542+ Fri, 06 Jul 2018 19:26:36 +0100
REM compiler GCC version 9.2.1 20190827 (Red Hat 9.2.1-1)
REM options -cpp -mtune=generic -march=x86-64 -g -O0 -fpre-include=/usr/include/finclude/math-vector-fortran.h
REM seed -1510319027 -249877007 498519314 -1995129332 -1339832229 949852119 -66771048 -1594792860 -1551179555 1854259911 -1476646000 81752846 194146057 -1151477738 543436496 504742836 -1936456033 1043650234 1833025614 963495212 -113252729 292041202 861065020 1696843208 579258321 322352146 -2067360488 -187826940 507610282 916239612 -1753913881 259007552 -1415742361
REM
CELL 1.54180   15.00000   15.00000   15.00000   90.00000   90.00000   90.00000
LATT -1
SFAC C  
C      1  0.2733390000000  0.4188580000000  0.5753540000000 1.0
C      1  0.2679220000000  0.5677020000000  0.5760010000000 1.0
C      1  0.3519760000000  0.6908380000000  0.5745680000000 1.0
C      1  0.4904720000000  0.7431960000000  0.5785420000000 1.0
C      1  0.6349140000000  0.7008260000000  0.5756760000000 1.0
C      1  0.7270790000000  0.5808390000000  0.5751890000000 1.0
C      1  0.7323990000000  0.4327060000000  0.5759660000000 1.0
C      1  0.6479160000000  0.3091730000000  0.5747500000000 1.0
C      1  0.5094320000000  0.2569050000000  0.5784580000000 1.0
C      1  0.3651380000000  0.2990760000000  0.5758170000000 1.0
C      1  0.6488550000000  0.5557740000000  0.6287740000000 1.0
C      1  0.6529780000000  0.4575560000000  0.6297890000000 1.0
C      1  0.5986470000000  0.3754600000000  0.6297510000000 1.0
C      1  0.5071180000000  0.3404320000000  0.6313120000000 1.0
C      1  0.4120670000000  0.3664450000000  0.6287940000000 1.0
C      1  0.3510150000000  0.4440750000000  0.6287920000000 1.0
C      1  0.3468000000000  0.5427130000000  0.6296370000000 1.0
C      1  0.4014250000000  0.6245720000000  0.6295190000000 1.0
C      1  0.4928960000000  0.6595050000000  0.6312990000000 1.0
C      1  0.5879530000000  0.6334050000000  0.6287240000000 1.0
C      1  0.3252390000000  0.6478210000000  0.4362940000000 1.0
C      1  0.4474210000000  0.7224280000000  0.4329220000000 1.0
C      1  0.5869100000000  0.7094240000000  0.4389560000000 1.0
C      1  0.7085110000000  0.6402190000000  0.4268370000000 1.0
C      1  0.7300870000000  0.4857110000000  0.4346890000000 1.0
C      1  0.6750650000000  0.3520050000000  0.4357210000000 1.0
C      1  0.5528270000000  0.2780920000000  0.4334080000000 1.0
C      1  0.4127040000000  0.2897590000000  0.4387020000000 1.0
C      1  0.2921540000000  0.3600970000000  0.4270930000000 1.0
C      1  0.2729220000000  0.5143750000000  0.4338230000000 1.0
C      1  0.6335340000000  0.3905990000000  0.3550280000000 1.0
C      1  0.5456510000000  0.3333960000000  0.3516090000000 1.0
C      1  0.4491700000000  0.3341880000000  0.3600230000000 1.0
C      1  0.3562730000000  0.4111970000000  0.3693210000000 1.0
C      1  0.3276230000000  0.5190880000000  0.3546960000000 1.0
C      1  0.3653620000000  0.6081640000000  0.3559650000000 1.0
C      1  0.4546100000000  0.6663240000000  0.3519290000000 1.0
C      1  0.5506230000000  0.6665090000000  0.3591110000000 1.0
C      1  0.6428120000000  0.5908810000000  0.3694640000000 1.0
C      1  0.6717920000000  0.4803310000000  0.3569120000000 1.0
C      1  0.2328560000000  0.4923250000000  0.5240020000000 1.0
C      1  0.2793500000000  0.6498540000000  0.5242430000000 1.0
C      1  0.4113230000000  0.7491050000000  0.5237190000000 1.0
C      1  0.5728850000000  0.7555010000000  0.5263160000000 1.0
C      1  0.7112900000000  0.6626060000000  0.5222890000000 1.0
C      1  0.7664770000000  0.5075070000000  0.5248010000000 1.0
C      1  0.7192880000000  0.3506040000000  0.5239120000000 1.0
C      1  0.5886260000000  0.2511830000000  0.5234670000000 1.0
C      1  0.4270130000000  0.2445760000000  0.5262650000000 1.0
C      1  0.2887250000000  0.3374230000000  0.5222200000000 1.0
C      1  0.3982080000000  0.4426420000000  0.4525000000000 1.0
C      1  0.3572960000000  0.5142960000000  0.4889530000000 1.0
C      1  0.3935640000000  0.5941720000000  0.4834200000000 1.0
C      1  0.4711190000000  0.6350790000000  0.4798930000000 1.0
C      1  0.5594860000000  0.6277850000000  0.4866050000000 1.0
C      1  0.6011100000000  0.5581220000000  0.4525540000000 1.0
C      1  0.6422810000000  0.4853590000000  0.4845010000000 1.0
C      1  0.6070270000000  0.4049220000000  0.4849420000000 1.0
C      1  0.5295470000000  0.3640540000000  0.4808560000000 1.0
C      1  0.4408950000000  0.3722230000000  0.4853270000000 1.0
END
