TITL C-1525613-7943-2349 -0.00342863438085277 3375 -8807.10369256578 0 0 60 (C1) n - 1
REM
REM in /home/nfs/bkarasulu/CARBON/AIRSS/Generating-Clusters/ReaxFF-fromJPCA2015/Units_Real/Try2-Higher-symm/Only-C60
REM
REM
REM
REM
REM
REM ./C.cell (863b2abdce7293c0672fb3ba77bf323a)
REM AIRSS Version 0.9.1 bugfix July 2018 build 013d7b7c2542+ Fri, 06 Jul 2018 19:26:36 +0100
REM compiler GCC version 9.2.1 20190827 (Red Hat 9.2.1-1)
REM options -cpp -mtune=generic -march=x86-64 -g -O0 -fpre-include=/usr/include/finclude/math-vector-fortran.h
REM seed -136093939 -1939432442 -241126645 1193483117 868612115 -1212969099 907373437 1910460716 -444433775 -1644428380 -579038994 2097639634 -474362624 2014825365 1568629627 2033913322 -500170437 505801198 -967721732 1896420695 -269495031 1800819064 -437971432 1494421193 -1216361258 1792542421 1038466304 -1727759500 -1902935254 1448400877 -1455104262 1223171266 1949234896
REM
CELL 1.54180   15.00000   15.00000   15.00000   90.00000   90.00000   90.00000
LATT -1
SFAC C  
C      1  0.3088910000000  0.7099420000000  0.4446570000000 1.0
C      1  0.2403670000000  0.3835510000000  0.4493750000000 1.0
C      1  0.5281090000000  0.2676760000000  0.4767420000000 1.0
C      1  0.7768890000000  0.4427880000000  0.4426870000000 1.0
C      1  0.6138430000000  0.7046190000000  0.4750040000000 1.0
C      1  0.3410180000000  0.6739680000000  0.5273490000000 1.0
C      1  0.2855520000000  0.3963620000000  0.5327620000000 1.0
C      1  0.5321530000000  0.2182320000000  0.5586790000000 1.0
C      1  0.7303400000000  0.4548430000000  0.5254670000000 1.0
C      1  0.6405330000000  0.7456470000000  0.5573330000000 1.0
C      1  0.7620780000000  0.5133260000000  0.6027040000000 1.0
C      1  0.5765130000000  0.7673590000000  0.6334500000000 1.0
C      1  0.2822750000000  0.6444410000000  0.6050770000000 1.0
C      1  0.2964860000000  0.3292760000000  0.6091950000000 1.0
C      1  0.5983780000000  0.2385920000000  0.6332730000000 1.0
C      1  0.7768090000000  0.5111390000000  0.3672110000000 1.0
C      1  0.5671170000000  0.7526350000000  0.3981700000000 1.0
C      1  0.2674550000000  0.6541210000000  0.3698900000000 1.0
C      1  0.2807190000000  0.3320950000000  0.3716010000000 1.0
C      1  0.5921850000000  0.2565960000000  0.3982600000000 1.0
C      1  0.4523540000000  0.3252180000000  0.3306260000000 1.0
C      1  0.6534330000000  0.4009070000000  0.3217180000000 1.0
C      1  0.6409910000000  0.6164950000000  0.3268200000000 1.0
C      1  0.4328770000000  0.6717640000000  0.3232760000000 1.0
C      1  0.3175630000000  0.4932240000000  0.3328100000000 1.0
C      1  0.4550340000000  0.3212450000000  0.6804570000000 1.0
C      1  0.6540110000000  0.4013710000000  0.6720730000000 1.0
C      1  0.6422420000000  0.6151840000000  0.6772640000000 1.0
C      1  0.4347140000000  0.6696490000000  0.6736160000000 1.0
C      1  0.3181930000000  0.4863870000000  0.6770560000000 1.0
C      1  0.6575640000000  0.7076230000000  0.6450080000000 1.0
C      1  0.3620010000000  0.7056770000000  0.6169550000000 1.0
C      1  0.2629250000000  0.4237800000000  0.6232330000000 1.0
C      1  0.4979950000000  0.2382180000000  0.6473820000000 1.0
C      1  0.7332050000000  0.4167090000000  0.6149510000000 1.0
C      1  0.6502900000000  0.6955570000000  0.3852680000000 1.0
C      1  0.3493630000000  0.7129540000000  0.3565900000000 1.0
C      1  0.2498450000000  0.4285710000000  0.3636650000000 1.0
C      1  0.4910440000000  0.2547230000000  0.3877970000000 1.0
C      1  0.7454630000000  0.4153660000000  0.3550810000000 1.0
C      1  0.6421480000000  0.3249220000000  0.3633290000000 1.0
C      1  0.7165040000000  0.5792610000000  0.3533730000000 1.0
C      1  0.4860510000000  0.7267790000000  0.3644380000000 1.0
C      1  0.2744070000000  0.5637600000000  0.3562090000000 1.0
C      1  0.3694870000000  0.3118790000000  0.3574170000000 1.0
C      1  0.6434450000000  0.3176730000000  0.6466310000000 1.0
C      1  0.7118670000000  0.5817900000000  0.6368510000000 1.0
C      1  0.4934140000000  0.7305950000000  0.6479770000000 1.0
C      1  0.2849230000000  0.5585720000000  0.6374680000000 1.0
C      1  0.3784540000000  0.3051480000000  0.6417690000000 1.0
C      1  0.4195530000000  0.4920060000000  0.6989860000000 1.0
C      1  0.4822680000000  0.4205510000000  0.6999350000000 1.0
C      1  0.5693840000000  0.4576630000000  0.6975640000000 1.0
C      1  0.5608490000000  0.5521700000000  0.6979750000000 1.0
C      1  0.4686720000000  0.5737140000000  0.6972130000000 1.0
C      1  0.4197850000000  0.4947430000000  0.3046030000000 1.0
C      1  0.4810970000000  0.4226790000000  0.3045610000000 1.0
C      1  0.5687680000000  0.4591440000000  0.3010010000000 1.0
C      1  0.5613650000000  0.5537590000000  0.3010360000000 1.0
C      1  0.4687410000000  0.5753610000000  0.3011250000000 1.0
END
