TITL C-1525613-7943-2137 -0.0310333080205125 3375 -8341.20026024791 0 0 60 (Cs) n - 1
REM
REM in /home/nfs/bkarasulu/CARBON/AIRSS/Generating-Clusters/ReaxFF-fromJPCA2015/Units_Real/Try2-Higher-symm/Only-C60
REM
REM
REM
REM
REM
REM ./C.cell (863b2abdce7293c0672fb3ba77bf323a)
REM AIRSS Version 0.9.1 bugfix July 2018 build 013d7b7c2542+ Fri, 06 Jul 2018 19:26:36 +0100
REM compiler GCC version 9.2.1 20190827 (Red Hat 9.2.1-1)
REM options -cpp -mtune=generic -march=x86-64 -g -O0 -fpre-include=/usr/include/finclude/math-vector-fortran.h
REM seed 757744396 1096406136 2115161934 -230444944 1192646598 1900445062 1557393632 1519816387 1653409728 -1169130352 1478830128 2134976272 -631039201 -65441638 1738603586 680787369 1601077634 -129293956 -117896017 -1561904875 -1079435188 -1897269455 -951639366 461134408 529095616 1406685656 1667571841 739532612 1401319348 183263318 -1013392384 1205374955 -2088091152
REM
CELL 1.54180   15.00000   15.00000   15.00000   90.00000   90.00000   90.00000
LATT -1
SFAC C  
C      1  0.4170860000000  0.4873480000000  0.2443320000000 1.0
C      1  0.4630880000000  0.5749550000000  0.2445240000000 1.0
C      1  0.5603770000000  0.5589170000000  0.2440290000000 1.0
C      1  0.5745060000000  0.4609640000000  0.2447520000000 1.0
C      1  0.4859330000000  0.4167490000000  0.2440140000000 1.0
C      1  0.4171260000000  0.4872400000000  0.7557600000000 1.0
C      1  0.4631550000000  0.5748920000000  0.7553790000000 1.0
C      1  0.5604100000000  0.5590130000000  0.7559590000000 1.0
C      1  0.5745030000000  0.4610730000000  0.7551670000000 1.0
C      1  0.4860280000000  0.4166810000000  0.7559640000000 1.0
C      1  0.5700160000000  0.3473240000000  0.6454580000000 1.0
C      1  0.3757370000000  0.3871400000000  0.6446270000000 1.0
C      1  0.3563970000000  0.5821540000000  0.6437150000000 1.0
C      1  0.5330440000000  0.6654330000000  0.6456200000000 1.0
C      1  0.6658850000000  0.5176100000000  0.6440580000000 1.0
C      1  0.5699130000000  0.3471630000000  0.3544620000000 1.0
C      1  0.3757210000000  0.3872160000000  0.3553350000000 1.0
C      1  0.3565150000000  0.5820510000000  0.3563160000000 1.0
C      1  0.5329990000000  0.6653200000000  0.3543390000000 1.0
C      1  0.6658970000000  0.5175890000000  0.3561010000000 1.0
C      1  0.5712420000000  0.4612000000000  0.5665220000000 1.0
C      1  0.4847660000000  0.4238430000000  0.5700140000000 1.0
C      1  0.4207280000000  0.4935400000000  0.5669710000000 1.0
C      1  0.4639200000000  0.5726060000000  0.5670330000000 1.0
C      1  0.5566480000000  0.5539070000000  0.5704250000000 1.0
C      1  0.5709360000000  0.4612660000000  0.4331470000000 1.0
C      1  0.4847690000000  0.4238010000000  0.4297640000000 1.0
C      1  0.4206040000000  0.4935280000000  0.4336020000000 1.0
C      1  0.4637410000000  0.5728770000000  0.4330040000000 1.0
C      1  0.5565770000000  0.5539460000000  0.4296880000000 1.0
C      1  0.4758170000000  0.3530610000000  0.3157950000000 1.0
C      1  0.3562030000000  0.4766540000000  0.3171990000000 1.0
C      1  0.4352760000000  0.6302380000000  0.3174890000000 1.0
C      1  0.6049470000000  0.6054050000000  0.3157600000000 1.0
C      1  0.6292210000000  0.4317020000000  0.3175090000000 1.0
C      1  0.4757600000000  0.3532080000000  0.6840510000000 1.0
C      1  0.3561640000000  0.4764670000000  0.6829440000000 1.0
C      1  0.4353220000000  0.6302070000000  0.6824180000000 1.0
C      1  0.6050740000000  0.6054510000000  0.6842170000000 1.0
C      1  0.6293150000000  0.4319880000000  0.6822700000000 1.0
C      1  0.3173260000000  0.4683910000000  0.4501570000000 1.0
C      1  0.4170600000000  0.6612020000000  0.4499350000000 1.0
C      1  0.6282940000000  0.6364570000000  0.4508230000000 1.0
C      1  0.6610190000000  0.4186450000000  0.4501630000000 1.0
C      1  0.4759330000000  0.3145310000000  0.4509130000000 1.0
C      1  0.3174910000000  0.4683550000000  0.5499390000000 1.0
C      1  0.4163440000000  0.6612570000000  0.5499260000000 1.0
C      1  0.6282530000000  0.6364850000000  0.5492150000000 1.0
C      1  0.6600060000000  0.4192860000000  0.5499170000000 1.0
C      1  0.4760100000000  0.3146260000000  0.5490120000000 1.0
C      1  0.5702340000000  0.3024920000000  0.4428220000000 1.0
C      1  0.3347540000000  0.3734530000000  0.4463160000000 1.0
C      1  0.3307010000000  0.6174630000000  0.4454080000000 1.0
C      1  0.5589870000000  0.7016970000000  0.4429870000000 1.0
C      1  0.7060960000000  0.5044880000000  0.4447660000000 1.0
C      1  0.5703640000000  0.3027220000000  0.5570780000000 1.0
C      1  0.3347110000000  0.3733560000000  0.5536610000000 1.0
C      1  0.3300470000000  0.6171570000000  0.5544600000000 1.0
C      1  0.5591570000000  0.7018380000000  0.5572050000000 1.0
C      1  0.7058490000000  0.5043730000000  0.5555710000000 1.0
END
