TITL C-1525613-7943-5120 0.303861183044864 3375 -8354.41646069812 0 0 60 (Cs) n - 1
REM
REM in /home/nfs/bkarasulu/CARBON/AIRSS/Generating-Clusters/ReaxFF-fromJPCA2015/Units_Real/Try2-Higher-symm/Only-C60
REM
REM
REM
REM
REM
REM ./C.cell (863b2abdce7293c0672fb3ba77bf323a)
REM AIRSS Version 0.9.1 bugfix July 2018 build 013d7b7c2542+ Fri, 06 Jul 2018 19:26:36 +0100
REM compiler GCC version 9.2.1 20190827 (Red Hat 9.2.1-1)
REM options -cpp -mtune=generic -march=x86-64 -g -O0 -fpre-include=/usr/include/finclude/math-vector-fortran.h
REM seed -631624249 -451311520 1932484235 -824077265 -1759650459 -1396720684 -526919179 -364165274 542988511 25051284 248516051 100202343 -1388545768 -1848454632 876854520 -1663503594 -1008267669 -658828191 2070189882 -1166011971 -788854444 694254817 479636151 -2018880861 1673599188 762775245 1781461210 645567487 1829880321 -812842901 -1581846671 924734476 -90920993
REM
CELL 1.54180   15.00000   15.00000   15.00000   90.00000   90.00000   90.00000
LATT -1
SFAC C  
C      1  0.4094510000000  0.5432650000000  0.5694180000000 1.0
C      1  0.4087560000000  0.5790000000000  0.4793520000000 1.0
C      1  0.4132410000000  0.5033950000000  0.4186010000000 1.0
C      1  0.4516470000000  0.4316770000000  0.4728140000000 1.0
C      1  0.4132980000000  0.4465380000000  0.5613270000000 1.0
C      1  0.5905470000000  0.5431950000000  0.5694080000000 1.0
C      1  0.5912530000000  0.5789840000000  0.4793720000000 1.0
C      1  0.5867690000000  0.5033840000000  0.4186140000000 1.0
C      1  0.5483930000000  0.4317010000000  0.4728780000000 1.0
C      1  0.5868040000000  0.4466220000000  0.5612820000000 1.0
C      1  0.4519500000000  0.4962040000000  0.7127420000000 1.0
C      1  0.4520320000000  0.7005830000000  0.5696300000000 1.0
C      1  0.4520040000000  0.6283770000000  0.3306370000000 1.0
C      1  0.4520890000000  0.3774850000000  0.3255310000000 1.0
C      1  0.4521030000000  0.2963490000000  0.5608540000000 1.0
C      1  0.5480510000000  0.4962070000000  0.7127420000000 1.0
C      1  0.5479660000000  0.7005790000000  0.5696310000000 1.0
C      1  0.5479950000000  0.6283730000000  0.3306370000000 1.0
C      1  0.5479120000000  0.3774870000000  0.3255320000000 1.0
C      1  0.5479070000000  0.2963620000000  0.5608650000000 1.0
C      1  0.6717050000000  0.3266310000000  0.4388610000000 1.0
C      1  0.6708830000000  0.3824730000000  0.6505280000000 1.0
C      1  0.6717600000000  0.6092810000000  0.6579720000000 1.0
C      1  0.6720390000000  0.6840890000000  0.4451760000000 1.0
C      1  0.6707800000000  0.5019530000000  0.3090130000000 1.0
C      1  0.3282940000000  0.3266250000000  0.4388600000000 1.0
C      1  0.3290690000000  0.3824610000000  0.6505570000000 1.0
C      1  0.3282330000000  0.6092870000000  0.6579790000000 1.0
C      1  0.3279830000000  0.6840640000000  0.4451860000000 1.0
C      1  0.3292140000000  0.5019520000000  0.3090080000000 1.0
C      1  0.4078270000000  0.6956120000000  0.3890370000000 1.0
C      1  0.4082340000000  0.4540280000000  0.2791030000000 1.0
C      1  0.4067330000000  0.2783140000000  0.4747430000000 1.0
C      1  0.4068030000000  0.4077270000000  0.7039290000000 1.0
C      1  0.4080410000000  0.6661340000000  0.6519150000000 1.0
C      1  0.5921590000000  0.6956070000000  0.3890230000000 1.0
C      1  0.5917600000000  0.4540290000000  0.2791070000000 1.0
C      1  0.5932670000000  0.2783160000000  0.4747440000000 1.0
C      1  0.5931880000000  0.4077260000000  0.7039040000000 1.0
C      1  0.5919510000000  0.6661360000000  0.6519230000000 1.0
C      1  0.5925940000000  0.5536450000000  0.2819540000000 1.0
C      1  0.5929540000000  0.3096300000000  0.3818230000000 1.0
C      1  0.5913680000000  0.3271790000000  0.6451800000000 1.0
C      1  0.5914600000000  0.5855220000000  0.7092830000000 1.0
C      1  0.5915370000000  0.7249040000000  0.4834550000000 1.0
C      1  0.4074040000000  0.5536470000000  0.2819620000000 1.0
C      1  0.4070470000000  0.3096300000000  0.3818200000000 1.0
C      1  0.4086320000000  0.3272070000000  0.6451610000000 1.0
C      1  0.4085290000000  0.5855220000000  0.7092770000000 1.0
C      1  0.4084470000000  0.7249000000000  0.4834410000000 1.0
C      1  0.2985540000000  0.4133300000000  0.4685100000000 1.0
C      1  0.3105110000000  0.4381380000000  0.5647770000000 1.0
C      1  0.3089860000000  0.5535760000000  0.5762280000000 1.0
C      1  0.3082690000000  0.5903210000000  0.4765560000000 1.0
C      1  0.3110380000000  0.4946530000000  0.4110460000000 1.0
C      1  0.7014300000000  0.4133240000000  0.4684970000000 1.0
C      1  0.6894300000000  0.4381380000000  0.5647670000000 1.0
C      1  0.6910080000000  0.5535660000000  0.5762410000000 1.0
C      1  0.6917550000000  0.5903210000000  0.4765420000000 1.0
C      1  0.6889560000000  0.4946370000000  0.4110440000000 1.0
END
