TITL C-1525613-7943-1942 -0.0143906158504386 3375 -8749.14317988929 0 0 60 (C1) n - 1
REM
REM in /home/nfs/bkarasulu/CARBON/AIRSS/Generating-Clusters/ReaxFF-fromJPCA2015/Units_Real/Try2-Higher-symm/Only-C60
REM
REM
REM
REM
REM
REM ./C.cell (863b2abdce7293c0672fb3ba77bf323a)
REM AIRSS Version 0.9.1 bugfix July 2018 build 013d7b7c2542+ Fri, 06 Jul 2018 19:26:36 +0100
REM compiler GCC version 9.2.1 20190827 (Red Hat 9.2.1-1)
REM options -cpp -mtune=generic -march=x86-64 -g -O0 -fpre-include=/usr/include/finclude/math-vector-fortran.h
REM seed -199822179 -1197824576 -1172064269 -1910130952 2119211727 263893194 -443826629 1401705155 1539359052 443239590 429717983 -1491876927 1949255192 392380372 -46322622 1660045017 352448100 -782637234 -347117803 -1581775469 1419433322 -1343627660 450319888 1583266677 1137753166 -1755920682 -1242383983 -1067798878 -304517953 -247943296 353651785 -1337497670 -1029185016
REM
CELL 1.54180   15.00000   15.00000   15.00000   90.00000   90.00000   90.00000
LATT -1
SFAC C  
C      1  0.5744760000000  0.4479730000000  0.7262700000000 1.0
C      1  0.3155940000000  0.4482930000000  0.6214540000000 1.0
C      1  0.3325220000000  0.4501820000000  0.3788070000000 1.0
C      1  0.5786420000000  0.4508860000000  0.2817780000000 1.0
C      1  0.7268330000000  0.4485500000000  0.4846560000000 1.0
C      1  0.5717090000000  0.5572610000000  0.7272380000000 1.0
C      1  0.3218590000000  0.5479230000000  0.6199300000000 1.0
C      1  0.3353490000000  0.5474050000000  0.3775870000000 1.0
C      1  0.5787040000000  0.5482690000000  0.2810480000000 1.0
C      1  0.7272810000000  0.5505400000000  0.4831590000000 1.0
C      1  0.6260240000000  0.5532520000000  0.3732280000000 1.0
C      1  0.6687450000000  0.5496190000000  0.5619330000000 1.0
C      1  0.4838220000000  0.5547430000000  0.6817640000000 1.0
C      1  0.2746410000000  0.5491810000000  0.5324130000000 1.0
C      1  0.4295530000000  0.5582020000000  0.3422860000000 1.0
C      1  0.6258910000000  0.4447320000000  0.3741540000000 1.0
C      1  0.6686420000000  0.4512600000000  0.5629930000000 1.0
C      1  0.4867860000000  0.4542110000000  0.6832280000000 1.0
C      1  0.2714840000000  0.4501080000000  0.5323840000000 1.0
C      1  0.4264120000000  0.4456340000000  0.3431060000000 1.0
C      1  0.6295010000000  0.2939670000000  0.4953140000000 1.0
C      1  0.5399200000000  0.2978200000000  0.6480530000000 1.0
C      1  0.3609490000000  0.2946990000000  0.5805550000000 1.0
C      1  0.4076380000000  0.2833120000000  0.4246030000000 1.0
C      1  0.5546000000000  0.3095110000000  0.3430310000000 1.0
C      1  0.6273420000000  0.7104150000000  0.4975880000000 1.0
C      1  0.5430610000000  0.7078920000000  0.6486960000000 1.0
C      1  0.3623910000000  0.6983050000000  0.5846000000000 1.0
C      1  0.4076330000000  0.7157280000000  0.4268400000000 1.0
C      1  0.5551430000000  0.6892750000000  0.3455560000000 1.0
C      1  0.5126460000000  0.6148180000000  0.2990020000000 1.0
C      1  0.6990830000000  0.6109830000000  0.4108150000000 1.0
C      1  0.5931480000000  0.6392280000000  0.6872690000000 1.0
C      1  0.3678790000000  0.6281930000000  0.6560040000000 1.0
C      1  0.3050210000000  0.6005600000000  0.4550400000000 1.0
C      1  0.5122160000000  0.3850190000000  0.2996460000000 1.0
C      1  0.6978630000000  0.3858560000000  0.4139110000000 1.0
C      1  0.5917690000000  0.3653510000000  0.6878170000000 1.0
C      1  0.3583480000000  0.3638590000000  0.6509240000000 1.0
C      1  0.3029580000000  0.3981070000000  0.4555420000000 1.0
C      1  0.5766820000000  0.4205230000000  0.5387790000000 1.0
C      1  0.4943130000000  0.4237490000000  0.5883820000000 1.0
C      1  0.4330620000000  0.4508560000000  0.5198400000000 1.0
C      1  0.4660800000000  0.4242050000000  0.4329700000000 1.0
C      1  0.5573250000000  0.4232850000000  0.4463560000000 1.0
C      1  0.5770010000000  0.5797570000000  0.5375570000000 1.0
C      1  0.4940090000000  0.5778500000000  0.5857530000000 1.0
C      1  0.4329130000000  0.5473720000000  0.5187610000000 1.0
C      1  0.4671400000000  0.5754690000000  0.4330080000000 1.0
C      1  0.5579590000000  0.5756110000000  0.4459740000000 1.0
C      1  0.4739320000000  0.7204380000000  0.3762540000000 1.0
C      1  0.6398460000000  0.6884400000000  0.4090150000000 1.0
C      1  0.6058200000000  0.7186950000000  0.5806700000000 1.0
C      1  0.4375510000000  0.6970600000000  0.6406450000000 1.0
C      1  0.3422570000000  0.6864770000000  0.4849980000000 1.0
C      1  0.4734750000000  0.2779600000000  0.3739740000000 1.0
C      1  0.6395320000000  0.3087260000000  0.4065500000000 1.0
C      1  0.6010120000000  0.2880180000000  0.5783750000000 1.0
C      1  0.4346220000000  0.3034570000000  0.6397830000000 1.0
C      1  0.3413920000000  0.3109270000000  0.4821370000000 1.0
END
