TITL C-1525613-7943-4508 -0.000207588627534796 3375 -9858.8686250478 0 0 60 (D5) n - 1
REM
REM in /home/nfs/bkarasulu/CARBON/AIRSS/Generating-Clusters/ReaxFF-fromJPCA2015/Units_Real/Try2-Higher-symm/Only-C60
REM
REM
REM
REM
REM
REM ./C.cell (863b2abdce7293c0672fb3ba77bf323a)
REM AIRSS Version 0.9.1 bugfix July 2018 build 013d7b7c2542+ Fri, 06 Jul 2018 19:26:36 +0100
REM compiler GCC version 9.2.1 20190827 (Red Hat 9.2.1-1)
REM options -cpp -mtune=generic -march=x86-64 -g -O0 -fpre-include=/usr/include/finclude/math-vector-fortran.h
REM seed 1471288756 -1805457702 -2119233021 1247285267 -1299449614 1878678520 -1003798800 -1040873831 -1161096730 937012185 -830138779 -1224089812 -1837240135 551492034 -1605771659 729489205 1843506589 -2025321958 -1923849918 -2111326129 1479816699 838405827 1033365182 -1495049735 -1744497808 -460646593 107991514 723724178 546150558 861560075 1242871962 -584941835 -1504641648
REM
CELL 1.54180   15.00000   15.00000   15.00000   90.00000   90.00000   90.00000
LATT -1
SFAC C  
C      1  0.3211850000000  0.3224600000000  0.4772810000000 1.0
C      1  0.6136060000000  0.2750920000000  0.4772120000000 1.0
C      1  0.7490230000000  0.5385560000000  0.4773580000000 1.0
C      1  0.5402940000000  0.7487560000000  0.4775140000000 1.0
C      1  0.2758730000000  0.6152050000000  0.4774650000000 1.0
C      1  0.6792990000000  0.3242750000000  0.5214480000000 1.0
C      1  0.3882960000000  0.2751680000000  0.5214600000000 1.0
C      1  0.2516640000000  0.5367500000000  0.5216380000000 1.0
C      1  0.4582310000000  0.7475220000000  0.5217400000000 1.0
C      1  0.7225250000000  0.6162070000000  0.5216220000000 1.0
C      1  0.3527800000000  0.5764600000000  0.6486580000000 1.0
C      1  0.3817080000000  0.3835290000000  0.6485380000000 1.0
C      1  0.5741410000000  0.3514250000000  0.6484910000000 1.0
C      1  0.6641410000000  0.5245120000000  0.6485850000000 1.0
C      1  0.5273300000000  0.6635890000000  0.6486870000000 1.0
C      1  0.6476200000000  0.5757720000000  0.3512560000000 1.0
C      1  0.6175750000000  0.3830710000000  0.3511420000000 1.0
C      1  0.4250200000000  0.3521010000000  0.3511540000000 1.0
C      1  0.3360560000000  0.5256530000000  0.3512670000000 1.0
C      1  0.4736310000000  0.6638930000000  0.3513320000000 1.0
C      1  0.2682560000000  0.3840260000000  0.5287290000000 1.0
C      1  0.5386720000000  0.2437510000000  0.5286060000000 1.0
C      1  0.7556480000000  0.4575770000000  0.5287100000000 1.0
C      1  0.6193320000000  0.7300030000000  0.5288940000000 1.0
C      1  0.3181110000000  0.6845480000000  0.5289060000000 1.0
C      1  0.7300600000000  0.3847010000000  0.4720170000000 1.0
C      1  0.4614170000000  0.2455850000000  0.4719700000000 1.0
C      1  0.2460880000000  0.4580830000000  0.4721300000000 1.0
C      1  0.3816540000000  0.7285340000000  0.4722770000000 1.0
C      1  0.6807680000000  0.6831860000000  0.4722060000000 1.0
C      1  0.7055370000000  0.4478160000000  0.6106840000000 1.0
C      1  0.6130830000000  0.6792780000000  0.6108330000000 1.0
C      1  0.3643760000000  0.6628860000000  0.6108590000000 1.0
C      1  0.3031150000000  0.4212860000000  0.6107210000000 1.0
C      1  0.5139630000000  0.2883680000000  0.6106110000000 1.0
C      1  0.2942890000000  0.4487700000000  0.3902170000000 1.0
C      1  0.3876300000000  0.6798420000000  0.3903420000000 1.0
C      1  0.6362430000000  0.6624810000000  0.3902960000000 1.0
C      1  0.6965510000000  0.4206720000000  0.3901430000000 1.0
C      1  0.4852130000000  0.2885970000000  0.3900930000000 1.0
C      1  0.6595990000000  0.3634580000000  0.6065930000000 1.0
C      1  0.6791240000000  0.6095280000000  0.6067380000000 1.0
C      1  0.4511250000000  0.7041380000000  0.6068310000000 1.0
C      1  0.2906890000000  0.5165390000000  0.6067370000000 1.0
C      1  0.4195330000000  0.3059850000000  0.6065930000000 1.0
C      1  0.3399250000000  0.3639440000000  0.3929110000000 1.0
C      1  0.3210550000000  0.6102300000000  0.3930600000000 1.0
C      1  0.5494640000000  0.7042780000000  0.3930890000000 1.0
C      1  0.7094910000000  0.5161190000000  0.3929550000000 1.0
C      1  0.5799900000000  0.3057810000000  0.3928420000000 1.0
C      1  0.4196270000000  0.5127000000000  0.3074460000000 1.0
C      1  0.4631880000000  0.4275990000000  0.3073920000000 1.0
C      1  0.5575850000000  0.4427270000000  0.3073860000000 1.0
C      1  0.5723680000000  0.5371800000000  0.3074390000000 1.0
C      1  0.4871050000000  0.5804250000000  0.3074750000000 1.0
C      1  0.5805660000000  0.5119520000000  0.6922810000000 1.0
C      1  0.5363980000000  0.4270120000000  0.6922350000000 1.0
C      1  0.4419670000000  0.4427680000000  0.6922580000000 1.0
C      1  0.4277710000000  0.5374460000000  0.6923160000000 1.0
C      1  0.5134290000000  0.5802030000000  0.6923300000000 1.0
END
