TITL C-1525613-7943-3751 -0.0691235200222977 3375 -8815.22954506616 0 0 60 (C5) n - 1
REM
REM in /home/nfs/bkarasulu/CARBON/AIRSS/Generating-Clusters/ReaxFF-fromJPCA2015/Units_Real/Try2-Higher-symm/Only-C60
REM
REM
REM
REM
REM
REM ./C.cell (863b2abdce7293c0672fb3ba77bf323a)
REM AIRSS Version 0.9.1 bugfix July 2018 build 013d7b7c2542+ Fri, 06 Jul 2018 19:26:36 +0100
REM compiler GCC version 9.2.1 20190827 (Red Hat 9.2.1-1)
REM options -cpp -mtune=generic -march=x86-64 -g -O0 -fpre-include=/usr/include/finclude/math-vector-fortran.h
REM seed 736111422 1218113638 -17726217 993306434 60055715 1645662573 -1192901300 -1958790244 1317799764 -576114177 -722469905 -2102994251 -1981806997 -1265741315 150693185 399626777 -2133270298 -1833736629 -1608379260 -1416889316 2116202815 -1747426937 1941777750 -1033879762 -182271256 1377539175 -2028577779 -1257844018 1171296312 -1660496975 1719586272 1638739682 1353369587
REM
CELL 1.54180   15.00000   15.00000   15.00000   90.00000   90.00000   90.00000
LATT -1
SFAC C  
C      1  0.3046730000000  0.6288590000000  0.5954930000000 1.0
C      1  0.3046880000000  0.6306050000000  0.4070260000000 1.0
C      1  0.3046150000000  0.4518780000000  0.3470120000000 1.0
C      1  0.3046380000000  0.3396490000000  0.4985340000000 1.0
C      1  0.3046560000000  0.4490120000000  0.6520760000000 1.0
C      1  0.6953270000000  0.6288590000000  0.5954930000000 1.0
C      1  0.6953120000000  0.6306050000000  0.4070260000000 1.0
C      1  0.6953850000000  0.4518780000000  0.3470120000000 1.0
C      1  0.6953620000000  0.3396490000000  0.4985340000000 1.0
C      1  0.6953440000000  0.4490120000000  0.6520760000000 1.0
C      1  0.3036740000000  0.5496000000000  0.3516760000000 1.0
C      1  0.3036350000000  0.3742520000000  0.4069870000000 1.0
C      1  0.3036290000000  0.3726880000000  0.5908720000000 1.0
C      1  0.3037140000000  0.5470890000000  0.6492320000000 1.0
C      1  0.3036660000000  0.6564210000000  0.5013700000000 1.0
C      1  0.6963260000000  0.5496000000000  0.3516760000000 1.0
C      1  0.6963650000000  0.3742520000000  0.4069870000000 1.0
C      1  0.6963710000000  0.3726880000000  0.5908720000000 1.0
C      1  0.6962860000000  0.5470890000000  0.6492320000000 1.0
C      1  0.6963340000000  0.6564210000000  0.5013700000000 1.0
C      1  0.3876030000000  0.4527020000000  0.2928270000000 1.0
C      1  0.3876300000000  0.2884130000000  0.4809660000000 1.0
C      1  0.3876460000000  0.4165340000000  0.6953610000000 1.0
C      1  0.3876920000000  0.6600250000000  0.6397960000000 1.0
C      1  0.3876300000000  0.6823800000000  0.3909980000000 1.0
C      1  0.6123970000000  0.4527020000000  0.2928270000000 1.0
C      1  0.6123700000000  0.2884130000000  0.4809660000000 1.0
C      1  0.6123540000000  0.4165340000000  0.6953610000000 1.0
C      1  0.6123080000000  0.6600250000000  0.6397960000000 1.0
C      1  0.6123700000000  0.6823800000000  0.3909980000000 1.0
C      1  0.4526310000000  0.3833580000000  0.3100360000000 1.0
C      1  0.4526340000000  0.2833110000000  0.5522370000000 1.0
C      1  0.4526290000000  0.4827270000000  0.7223320000000 1.0
C      1  0.4526410000000  0.7060740000000  0.5850760000000 1.0
C      1  0.4526260000000  0.6445860000000  0.3303240000000 1.0
C      1  0.5473690000000  0.3833580000000  0.3100360000000 1.0
C      1  0.5473660000000  0.2833110000000  0.5522370000000 1.0
C      1  0.5473710000000  0.4827270000000  0.7223320000000 1.0
C      1  0.5473590000000  0.7060740000000  0.5850760000000 1.0
C      1  0.5473740000000  0.6445860000000  0.3303240000000 1.0
C      1  0.4305120000000  0.5275760000000  0.5738040000000 1.0
C      1  0.4306240000000  0.5788700000000  0.4964080000000 1.0
C      1  0.4301930000000  0.5209340000000  0.4239920000000 1.0
C      1  0.4301820000000  0.4342260000000  0.4564820000000 1.0
C      1  0.4304790000000  0.4381360000000  0.5490740000000 1.0
C      1  0.5694880000000  0.5275760000000  0.5738040000000 1.0
C      1  0.5693760000000  0.5788700000000  0.4964080000000 1.0
C      1  0.5698070000000  0.5209340000000  0.4239920000000 1.0
C      1  0.5698180000000  0.4342260000000  0.4564820000000 1.0
C      1  0.5695210000000  0.4381360000000  0.5490740000000 1.0
C      1  0.5971340000000  0.6787360000000  0.4925530000000 1.0
C      1  0.5972030000000  0.5481330000000  0.3276950000000 1.0
C      1  0.5972170000000  0.3510710000000  0.4009530000000 1.0
C      1  0.5971540000000  0.3597910000000  0.6110050000000 1.0
C      1  0.5971720000000  0.5623650000000  0.6678030000000 1.0
C      1  0.4028660000000  0.6787360000000  0.4925530000000 1.0
C      1  0.4027970000000  0.5481330000000  0.3276950000000 1.0
C      1  0.4027830000000  0.3510710000000  0.4009530000000 1.0
C      1  0.4028460000000  0.3597910000000  0.6110050000000 1.0
C      1  0.4028280000000  0.5623650000000  0.6678030000000 1.0
END
