TITL C-1525613-7943-7397 0.0605557573753929 3375 -8431.36364743905 0 0 60 (C1) n - 1
REM
REM in /home/nfs/bkarasulu/CARBON/AIRSS/Generating-Clusters/ReaxFF-fromJPCA2015/Units_Real/Try2-Higher-symm/Only-C60
REM
REM
REM
REM
REM
REM ./C.cell (863b2abdce7293c0672fb3ba77bf323a)
REM AIRSS Version 0.9.1 bugfix July 2018 build 013d7b7c2542+ Fri, 06 Jul 2018 19:26:36 +0100
REM compiler GCC version 9.2.1 20190827 (Red Hat 9.2.1-1)
REM options -cpp -mtune=generic -march=x86-64 -g -O0 -fpre-include=/usr/include/finclude/math-vector-fortran.h
REM seed 716044524 -511183538 140126731 -38345146 1999562813 -1593860597 -325238028 -966523195 -1922458141 -64823904 -1711952511 -761595603 -1729184683 -571816260 -1433089572 841145236 -795020545 697861913 -1921133575 656728622 1640655627 -1817111453 -1647548292 778816755 802334154 1373844803 -1360520056 1711566019 1266117248 473162268 -654376069 -1542336539 852819892
REM
CELL 1.54180   15.00000   15.00000   15.00000   90.00000   90.00000   90.00000
LATT -1
SFAC C  
C      1  0.5724800000000  0.4100290000000  0.7386020000000 1.0
C      1  0.6285580000000  0.4867210000000  0.7413910000000 1.0
C      1  0.5194320000000  0.6015810000000  0.7114040000000 1.0
C      1  0.3861300000000  0.5460560000000  0.7408110000000 1.0
C      1  0.4104900000000  0.4507160000000  0.7361770000000 1.0
C      1  0.4339800000000  0.4157850000000  0.2626880000000 1.0
C      1  0.3832090000000  0.4945390000000  0.2557530000000 1.0
C      1  0.4830210000000  0.5869270000000  0.2766170000000 1.0
C      1  0.6108220000000  0.5411760000000  0.2563690000000 1.0
C      1  0.5906860000000  0.4496840000000  0.2662330000000 1.0
C      1  0.7656850000000  0.5558650000000  0.5189700000000 1.0
C      1  0.5309320000000  0.7633140000000  0.5331120000000 1.0
C      1  0.2516400000000  0.6205590000000  0.5379210000000 1.0
C      1  0.3206360000000  0.2948790000000  0.5261800000000 1.0
C      1  0.6291430000000  0.2557890000000  0.5371750000000 1.0
C      1  0.2301080000000  0.5555300000000  0.4780480000000 1.0
C      1  0.4711600000000  0.7616160000000  0.4688680000000 1.0
C      1  0.7418670000000  0.6225620000000  0.4634850000000 1.0
C      1  0.6787100000000  0.2925580000000  0.4738570000000 1.0
C      1  0.3711080000000  0.2638620000000  0.4618640000000 1.0
C      1  0.4102610000000  0.3925590000000  0.4515740000000 1.0
C      1  0.5837790000000  0.3844520000000  0.4492660000000 1.0
C      1  0.6461160000000  0.5290320000000  0.4571250000000 1.0
C      1  0.5035250000000  0.6326660000000  0.4490610000000 1.0
C      1  0.3600770000000  0.5431930000000  0.4508140000000 1.0
C      1  0.5921800000000  0.3912880000000  0.5493320000000 1.0
C      1  0.4170520000000  0.3845840000000  0.5524190000000 1.0
C      1  0.3464920000000  0.5343010000000  0.5409360000000 1.0
C      1  0.4927950000000  0.6360720000000  0.5500220000000 1.0
C      1  0.6329670000000  0.5445590000000  0.5528520000000 1.0
C      1  0.6218090000000  0.6198790000000  0.6168010000000 1.0
C      1  0.4141440000000  0.6571760000000  0.6065310000000 1.0
C      1  0.3098990000000  0.4682770000000  0.5983520000000 1.0
C      1  0.4793230000000  0.3438910000000  0.6172660000000 1.0
C      1  0.6706490000000  0.4175650000000  0.6008600000000 1.0
C      1  0.3770230000000  0.6169590000000  0.3944230000000 1.0
C      1  0.5834030000000  0.6534340000000  0.3920740000000 1.0
C      1  0.6893020000000  0.4663000000000  0.3979460000000 1.0
C      1  0.5228110000000  0.3445160000000  0.3827510000000 1.0
C      1  0.3319540000000  0.4203980000000  0.3981170000000 1.0
C      1  0.2814740000000  0.5016630000000  0.4183330000000 1.0
C      1  0.4365880000000  0.3044990000000  0.4096240000000 1.0
C      1  0.6762070000000  0.3676370000000  0.4184360000000 1.0
C      1  0.6737050000000  0.6551780000000  0.4216140000000 1.0
C      1  0.4329990000000  0.6947490000000  0.4151480000000 1.0
C      1  0.7204290000000  0.4978440000000  0.5790760000000 1.0
C      1  0.5666530000000  0.3044960000000  0.5894700000000 1.0
C      1  0.3234480000000  0.3705600000000  0.5821150000000 1.0
C      1  0.3231170000000  0.6568100000000  0.5783280000000 1.0
C      1  0.5639610000000  0.6947770000000  0.5894280000000 1.0
C      1  0.3947760000000  0.5832150000000  0.3007340000000 1.0
C      1  0.3506100000000  0.4174040000000  0.3034400000000 1.0
C      1  0.5182560000000  0.3992760000000  0.3020630000000 1.0
C      1  0.6688400000000  0.4813890000000  0.3036470000000 1.0
C      1  0.5663670000000  0.6199230000000  0.2983010000000 1.0
C      1  0.6077150000000  0.5793020000000  0.7077930000000 1.0
C      1  0.6549550000000  0.4130910000000  0.6936580000000 1.0
C      1  0.4839660000000  0.3973570000000  0.6993130000000 1.0
C      1  0.3279750000000  0.4836050000000  0.6932640000000 1.0
C      1  0.4326010000000  0.6263750000000  0.7021680000000 1.0
END
