TITL C-1525613-7943-4555 0.0635824248841488 3375 -7991.46093374057 0 0 60 (S10) n - 1
REM
REM in /home/nfs/bkarasulu/CARBON/AIRSS/Generating-Clusters/ReaxFF-fromJPCA2015/Units_Real/Try2-Higher-symm/Only-C60
REM
REM
REM
REM
REM
REM ./C.cell (863b2abdce7293c0672fb3ba77bf323a)
REM AIRSS Version 0.9.1 bugfix July 2018 build 013d7b7c2542+ Fri, 06 Jul 2018 19:26:36 +0100
REM compiler GCC version 9.2.1 20190827 (Red Hat 9.2.1-1)
REM options -cpp -mtune=generic -march=x86-64 -g -O0 -fpre-include=/usr/include/finclude/math-vector-fortran.h
REM seed -997234071 -1938898679 -1425114968 -1177028845 -1661420265 437285747 531134599 -953256257 -2142315621 -1854986195 -1194266784 1000834904 670052655 -1660201971 326902368 1549601459 695342845 -1457795170 -1985943007 1644480728 1610998147 191852955 -1651555086 773977239 -436095985 -1269738385 45494346 -1323851081 21849944 -2039188815 60655670 1510098599 139567688
REM
CELL 1.54180   15.00000   15.00000   15.00000   90.00000   90.00000   90.00000
LATT -1
SFAC C  
C      1  0.3817510000000  0.3519030000000  0.4389120000000 1.0
C      1  0.4913170000000  0.3108340000000  0.5613160000000 1.0
C      1  0.6041400000000  0.3418390000000  0.4388580000000 1.0
C      1  0.6773580000000  0.4332910000000  0.5610470000000 1.0
C      1  0.6827270000000  0.5503080000000  0.4388240000000 1.0
C      1  0.6182490000000  0.6480970000000  0.5610880000000 1.0
C      1  0.5086830000000  0.6891660000000  0.4386840000000 1.0
C      1  0.3958600000000  0.6581610000000  0.5611420000000 1.0
C      1  0.3226420000000  0.5667090000000  0.4389530000000 1.0
C      1  0.3172730000000  0.4496920000000  0.5611760000000 1.0
C      1  0.5494100000000  0.4344790000000  0.2668950000000 1.0
C      1  0.5785420000000  0.4760200000000  0.7329580000000 1.0
C      1  0.5777770000000  0.5269140000000  0.2666060000000 1.0
C      1  0.5470900000000  0.5673310000000  0.7330950000000 1.0
C      1  0.4984800000000  0.5821630000000  0.2668820000000 1.0
C      1  0.4505900000000  0.5655210000000  0.7331050000000 1.0
C      1  0.4214580000000  0.5239800000000  0.2670420000000 1.0
C      1  0.4222230000000  0.4730860000000  0.7333940000000 1.0
C      1  0.4529100000000  0.4326690000000  0.2669050000000 1.0
C      1  0.5015200000000  0.4178370000000  0.7331180000000 1.0
C      1  0.4839590000000  0.3338510000000  0.6822060000000 1.0
C      1  0.5846790000000  0.3562050000000  0.3175440000000 1.0
C      1  0.6531070000000  0.4333810000000  0.6825440000000 1.0
C      1  0.6629530000000  0.5360820000000  0.3175880000000 1.0
C      1  0.6105650000000  0.6250830000000  0.6824550000000 1.0
C      1  0.5160410000000  0.6661490000000  0.3177940000000 1.0
C      1  0.4153210000000  0.6437950000000  0.6824560000000 1.0
C      1  0.3468930000000  0.5666190000000  0.3174560000000 1.0
C      1  0.3370470000000  0.4639180000000  0.6824120000000 1.0
C      1  0.3894350000000  0.3749170000000  0.3175450000000 1.0
C      1  0.7347810000000  0.4833310000000  0.4927900000000 1.0
C      1  0.6997320000000  0.6244730000000  0.5072220000000 1.0
C      1  0.5883390000000  0.7181050000000  0.4927040000000 1.0
C      1  0.4432270000000  0.7283340000000  0.5072140000000 1.0
C      1  0.3199110000000  0.6515190000000  0.4926900000000 1.0
C      1  0.2652190000000  0.5166690000000  0.5072100000000 1.0
C      1  0.3002680000000  0.3755270000000  0.4927780000000 1.0
C      1  0.4116610000000  0.2818950000000  0.5072960000000 1.0
C      1  0.5567730000000  0.2716660000000  0.4927860000000 1.0
C      1  0.6800890000000  0.3484810000000  0.5073100000000 1.0
C      1  0.6792390000000  0.4445900000000  0.3084670000000 1.0
C      1  0.6775870000000  0.5606090000000  0.6916850000000 1.0
C      1  0.6080920000000  0.6534350000000  0.3083310000000 1.0
C      1  0.4973290000000  0.6876380000000  0.6916650000000 1.0
C      1  0.3875400000000  0.6502080000000  0.3084140000000 1.0
C      1  0.3207610000000  0.5554100000000  0.6915330000000 1.0
C      1  0.3224130000000  0.4393910000000  0.3083150000000 1.0
C      1  0.3919080000000  0.3465650000000  0.6916690000000 1.0
C      1  0.5026710000000  0.3123620000000  0.3083350000000 1.0
C      1  0.6124600000000  0.3497920000000  0.6915860000000 1.0
C      1  0.5765680000000  0.5217350000000  0.4333340000000 1.0
C      1  0.5492040000000  0.5626200000000  0.5669070000000 1.0
C      1  0.5030050000000  0.5795530000000  0.4329810000000 1.0
C      1  0.4556690000000  0.5661890000000  0.5670160000000 1.0
C      1  0.4252790000000  0.5274520000000  0.4330950000000 1.0
C      1  0.4234320000000  0.4782650000000  0.5666660000000 1.0
C      1  0.4507960000000  0.4373800000000  0.4330930000000 1.0
C      1  0.4969950000000  0.4204470000000  0.5670190000000 1.0
C      1  0.5443310000000  0.4338110000000  0.4329840000000 1.0
C      1  0.5747210000000  0.4725480000000  0.5669050000000 1.0
END
