TITL C-1525613-7943-2757 -1.62287938760391e-06 3375 -9573.31229136711 0 0 60 (D10) n - 1
REM
REM in /home/nfs/bkarasulu/CARBON/AIRSS/Generating-Clusters/ReaxFF-fromJPCA2015/Units_Real/Try2-Higher-symm/Only-C60
REM
REM
REM
REM
REM
REM ./C.cell (863b2abdce7293c0672fb3ba77bf323a)
REM AIRSS Version 0.9.1 bugfix July 2018 build 013d7b7c2542+ Fri, 06 Jul 2018 19:26:36 +0100
REM compiler GCC version 9.2.1 20190827 (Red Hat 9.2.1-1)
REM options -cpp -mtune=generic -march=x86-64 -g -O0 -fpre-include=/usr/include/finclude/math-vector-fortran.h
REM seed 1157264743 2004373651 269303588 291351817 -904645379 -289319621 -1894473041 -283526334 1161205284 1172311294 447730886 -1764865212 1716325682 -999277427 727296655 990498954 1251144938 -1489542065 1566679068 -1018421837 -1205042359 -61289352 609532303 -259049299 -1333404136 1227977717 1868168313 1098111922 1232186557 -1851187749 1821005657 -126320605 1526996122
REM
CELL 1.54180   15.00000   15.00000   15.00000   90.00000   90.00000   90.00000
LATT -1
SFAC C  
C      1  0.4506870000000  0.2365170000000  0.4605740000000 1.0
C      1  0.4506900000000  0.2636740000000  0.6227830000000 1.0
C      1  0.4507340000000  0.3810660000000  0.7380430000000 1.0
C      1  0.4503590000000  0.5432520000000  0.7612080000000 1.0
C      1  0.4516990000000  0.6894830000000  0.6865890000000 1.0
C      1  0.4506870000000  0.7634830000000  0.5394260000000 1.0
C      1  0.4506900000000  0.7363260000000  0.3772170000000 1.0
C      1  0.4507340000000  0.6189340000000  0.2619570000000 1.0
C      1  0.4503590000000  0.4567480000000  0.2387920000000 1.0
C      1  0.4516990000000  0.3105170000000  0.3134110000000 1.0
C      1  0.6435850000000  0.3456210000000  0.5258110000000 1.0
C      1  0.6436260000000  0.3900870000000  0.6116830000000 1.0
C      1  0.6435260000000  0.4765930000000  0.6549370000000 1.0
C      1  0.6434880000000  0.5719560000000  0.6387680000000 1.0
C      1  0.6435840000000  0.6397620000000  0.5697770000000 1.0
C      1  0.6435850000000  0.6543790000000  0.4741890000000 1.0
C      1  0.6436260000000  0.6099130000000  0.3883170000000 1.0
C      1  0.6435260000000  0.5234070000000  0.3450630000000 1.0
C      1  0.6434880000000  0.4280440000000  0.3612320000000 1.0
C      1  0.6435840000000  0.3602380000000  0.4302230000000 1.0
C      1  0.4071910000000  0.2661140000000  0.5390050000000 1.0
C      1  0.4072480000000  0.3337550000000  0.6688380000000 1.0
C      1  0.4076610000000  0.4651120000000  0.7339350000000 1.0
C      1  0.4078530000000  0.6085460000000  0.7101450000000 1.0
C      1  0.4073760000000  0.7120930000000  0.6057780000000 1.0
C      1  0.4071910000000  0.7338860000000  0.4609950000000 1.0
C      1  0.4072480000000  0.6662450000000  0.3311620000000 1.0
C      1  0.4076610000000  0.5348880000000  0.2660650000000 1.0
C      1  0.4078530000000  0.3914540000000  0.2898550000000 1.0
C      1  0.4073760000000  0.2879070000000  0.3942220000000 1.0
C      1  0.5483010000000  0.5436810000000  0.7623200000000 1.0
C      1  0.5496410000000  0.6888190000000  0.6855990000000 1.0
C      1  0.5492660000000  0.7631410000000  0.5395930000000 1.0
C      1  0.5493100000000  0.7363550000000  0.3772720000000 1.0
C      1  0.5493120000000  0.6192680000000  0.2617730000000 1.0
C      1  0.5483010000000  0.4563190000000  0.2376800000000 1.0
C      1  0.5496410000000  0.3111810000000  0.3144010000000 1.0
C      1  0.5492660000000  0.2368590000000  0.4604070000000 1.0
C      1  0.5493100000000  0.2636450000000  0.6227280000000 1.0
C      1  0.5493120000000  0.3807320000000  0.7382270000000 1.0
C      1  0.3564150000000  0.6098960000000  0.3885460000000 1.0
C      1  0.3564160000000  0.5232890000000  0.3455330000000 1.0
C      1  0.3565120000000  0.4278540000000  0.3613300000000 1.0
C      1  0.3564740000000  0.3597860000000  0.4300490000000 1.0
C      1  0.3563740000000  0.3454230000000  0.5256930000000 1.0
C      1  0.3564150000000  0.3901040000000  0.6114540000000 1.0
C      1  0.3564160000000  0.4767110000000  0.6544670000000 1.0
C      1  0.3565120000000  0.5721460000000  0.6386700000000 1.0
C      1  0.3564740000000  0.6402140000000  0.5699510000000 1.0
C      1  0.3563740000000  0.6545770000000  0.4743070000000 1.0
C      1  0.5926240000000  0.4645680000000  0.7343450000000 1.0
C      1  0.5921470000000  0.6094960000000  0.7096510000000 1.0
C      1  0.5923380000000  0.7114450000000  0.6059880000000 1.0
C      1  0.5927520000000  0.7337310000000  0.4610900000000 1.0
C      1  0.5928080000000  0.6664120000000  0.3310890000000 1.0
C      1  0.5926240000000  0.5354320000000  0.2656550000000 1.0
C      1  0.5921470000000  0.3905040000000  0.2903490000000 1.0
C      1  0.5923380000000  0.2885550000000  0.3940120000000 1.0
C      1  0.5927520000000  0.2662690000000  0.5389100000000 1.0
C      1  0.5928080000000  0.3335880000000  0.6689110000000 1.0
END
