TITL C-1525613-7943-961 0.371042471492782 3375 -7826.68575542003 0 0 60 (C1) n - 1
REM
REM in /home/nfs/bkarasulu/CARBON/AIRSS/Generating-Clusters/ReaxFF-fromJPCA2015/Units_Real/Try2-Higher-symm/Only-C60
REM
REM
REM
REM
REM
REM ./C.cell (863b2abdce7293c0672fb3ba77bf323a)
REM AIRSS Version 0.9.1 bugfix July 2018 build 013d7b7c2542+ Fri, 06 Jul 2018 19:26:36 +0100
REM compiler GCC version 9.2.1 20190827 (Red Hat 9.2.1-1)
REM options -cpp -mtune=generic -march=x86-64 -g -O0 -fpre-include=/usr/include/finclude/math-vector-fortran.h
REM seed -1486309251 -195087823 1052189727 11248484 1847828564 1257464183 47151861 -349334176 -1622622289 66715842 634618639 -872888036 -1917989012 195129077 -1189265967 -224768627 -1600897550 -786514368 -1404872745 1035187299 1135184818 -1498618659 673679702 -1636944017 -892850197 -976533658 2133028634 -52904048 -1416116462 1744171053 -1857694346 -2084019499 -1988260076
REM
CELL 1.54180   15.00000   15.00000   15.00000   90.00000   90.00000   90.00000
LATT -1
SFAC C  
C      1  0.4312610000000  0.6961500000000  0.3133660000000 1.0
C      1  0.3201190000000  0.6206560000000  0.3093590000000 1.0
C      1  0.2956020000000  0.4868470000000  0.3118790000000 1.0
C      1  0.3205510000000  0.3534070000000  0.3082870000000 1.0
C      1  0.4363730000000  0.2789350000000  0.3062930000000 1.0
C      1  0.5679010000000  0.3142470000000  0.3125200000000 1.0
C      1  0.6889010000000  0.3728290000000  0.3107930000000 1.0
C      1  0.6891070000000  0.5081590000000  0.3105690000000 1.0
C      1  0.6690090000000  0.6426120000000  0.3011040000000 1.0
C      1  0.5639220000000  0.7288640000000  0.3171540000000 1.0
C      1  0.5826330000000  0.3693220000000  0.6363070000000 1.0
C      1  0.6433100000000  0.4431130000000  0.6388170000000 1.0
C      1  0.6495170000000  0.5385750000000  0.6374050000000 1.0
C      1  0.5986510000000  0.6196920000000  0.6363170000000 1.0
C      1  0.5096040000000  0.6551350000000  0.6356110000000 1.0
C      1  0.4167480000000  0.6313840000000  0.6361910000000 1.0
C      1  0.3559100000000  0.5573640000000  0.6359590000000 1.0
C      1  0.3497490000000  0.4616970000000  0.6360710000000 1.0
C      1  0.4009360000000  0.3806620000000  0.6358200000000 1.0
C      1  0.4900020000000  0.3451750000000  0.6361470000000 1.0
C      1  0.7989150000000  0.5242610000000  0.5576860000000 1.0
C      1  0.7268440000000  0.6947370000000  0.5549690000000 1.0
C      1  0.5681660000000  0.7906150000000  0.5531780000000 1.0
C      1  0.3835730000000  0.7761650000000  0.5558250000000 1.0
C      1  0.2425100000000  0.6554840000000  0.5574670000000 1.0
C      1  0.2007770000000  0.4748920000000  0.5568720000000 1.0
C      1  0.2736170000000  0.3044890000000  0.5545060000000 1.0
C      1  0.4323060000000  0.2089320000000  0.5543490000000 1.0
C      1  0.6170150000000  0.2241930000000  0.5573840000000 1.0
C      1  0.7582290000000  0.3440300000000  0.5540040000000 1.0
C      1  0.2694890000000  0.5899160000000  0.6100470000000 1.0
C      1  0.2608660000000  0.4373630000000  0.6094080000000 1.0
C      1  0.3435640000000  0.3090210000000  0.6081020000000 1.0
C      1  0.4858670000000  0.2532560000000  0.6086880000000 1.0
C      1  0.6343570000000  0.2936340000000  0.6091490000000 1.0
C      1  0.7305750000000  0.4099630000000  0.6105830000000 1.0
C      1  0.7384480000000  0.5612760000000  0.6101400000000 1.0
C      1  0.6566310000000  0.6909260000000  0.6083160000000 1.0
C      1  0.5143370000000  0.7466850000000  0.6075760000000 1.0
C      1  0.3662680000000  0.7086570000000  0.6097990000000 1.0
C      1  0.6780210000000  0.5725580000000  0.3576420000000 1.0
C      1  0.6331580000000  0.6974170000000  0.3419480000000 1.0
C      1  0.4998510000000  0.6914240000000  0.3493660000000 1.0
C      1  0.3702910000000  0.6627110000000  0.3719140000000 1.0
C      1  0.2969330000000  0.5566100000000  0.3703160000000 1.0
C      1  0.3319890000000  0.4268050000000  0.3534030000000 1.0
C      1  0.3678830000000  0.2985750000000  0.3377620000000 1.0
C      1  0.4996660000000  0.3133890000000  0.3571520000000 1.0
C      1  0.6310830000000  0.3369900000000  0.3722030000000 1.0
C      1  0.7079850000000  0.4422820000000  0.3685160000000 1.0
C      1  0.3529240000000  0.2559580000000  0.5288750000000 1.0
C      1  0.5256620000000  0.2146360000000  0.5305590000000 1.0
C      1  0.6889430000000  0.2826710000000  0.5308880000000 1.0
C      1  0.7808200000000  0.4341240000000  0.5315940000000 1.0
C      1  0.7643540000000  0.6099090000000  0.5313100000000 1.0
C      1  0.6479410000000  0.7436650000000  0.5288300000000 1.0
C      1  0.4749950000000  0.7845330000000  0.5288420000000 1.0
C      1  0.3104680000000  0.7179440000000  0.5322690000000 1.0
C      1  0.2191710000000  0.5654370000000  0.5321370000000 1.0
C      1  0.2357010000000  0.3890400000000  0.5304560000000 1.0
END
