TITL C-1525613-7943-5613 0.0548843872982252 3375 -8847.53496291059 0 0 60 (C1) n - 1
REM
REM in /home/nfs/bkarasulu/CARBON/AIRSS/Generating-Clusters/ReaxFF-fromJPCA2015/Units_Real/Try2-Higher-symm/Only-C60
REM
REM
REM
REM
REM
REM ./C.cell (863b2abdce7293c0672fb3ba77bf323a)
REM AIRSS Version 0.9.1 bugfix July 2018 build 013d7b7c2542+ Fri, 06 Jul 2018 19:26:36 +0100
REM compiler GCC version 9.2.1 20190827 (Red Hat 9.2.1-1)
REM options -cpp -mtune=generic -march=x86-64 -g -O0 -fpre-include=/usr/include/finclude/math-vector-fortran.h
REM seed 47178860 1518465530 1584330556 766883680 112539483 563667549 -392936539 206468418 409718747 1347474152 -45413525 -705407298 945766749 -1902271625 792973421 -1220274519 -1926447319 -1853225945 -1175102924 903581693 -1987632993 1576711625 738606279 -1752820396 -1406609045 270294223 1833696906 -484640589 -736878400 -1885627612 -689292967 545600861 1527541981
REM
CELL 1.54180   15.00000   15.00000   15.00000   90.00000   90.00000   90.00000
LATT -1
SFAC C  
C      1  0.3873480000000  0.5439280000000  0.6833520000000 1.0
C      1  0.2999700000000  0.4543560000000  0.5831690000000 1.0
C      1  0.2866910000000  0.5437070000000  0.4504760000000 1.0
C      1  0.3570920000000  0.4545000000000  0.3343980000000 1.0
C      1  0.4822100000000  0.5441040000000  0.2822850000000 1.0
C      1  0.6128140000000  0.4563650000000  0.3168290000000 1.0
C      1  0.7002970000000  0.5450640000000  0.4179260000000 1.0
C      1  0.7109380000000  0.4553530000000  0.5500340000000 1.0
C      1  0.6412430000000  0.5440750000000  0.6646660000000 1.0
C      1  0.5177950000000  0.4554830000000  0.7161600000000 1.0
C      1  0.4019140000000  0.5953190000000  0.3133230000000 1.0
C      1  0.5324640000000  0.4004110000000  0.2964070000000 1.0
C      1  0.6469370000000  0.6000990000000  0.3536160000000 1.0
C      1  0.7042250000000  0.4004810000000  0.4680940000000 1.0
C      1  0.6846340000000  0.6002460000000  0.5942550000000 1.0
C      1  0.5961310000000  0.3997460000000  0.6858260000000 1.0
C      1  0.4674170000000  0.5996180000000  0.7039860000000 1.0
C      1  0.3541010000000  0.3998140000000  0.6471190000000 1.0
C      1  0.2936030000000  0.5985280000000  0.5322890000000 1.0
C      1  0.3144270000000  0.3986120000000  0.4061620000000 1.0
C      1  0.5780330000000  0.3123810000000  0.6456400000000 1.0
C      1  0.4766670000000  0.6861740000000  0.6602930000000 1.0
C      1  0.3886390000000  0.3137480000000  0.6177640000000 1.0
C      1  0.3360420000000  0.6858120000000  0.5282910000000 1.0
C      1  0.3543640000000  0.3127630000000  0.4298090000000 1.0
C      1  0.4224550000000  0.6829880000000  0.3552440000000 1.0
C      1  0.5233430000000  0.3134250000000  0.3391070000000 1.0
C      1  0.6133210000000  0.6871660000000  0.3826110000000 1.0
C      1  0.6620570000000  0.3131720000000  0.4717580000000 1.0
C      1  0.6459110000000  0.6867490000000  0.5714310000000 1.0
C      1  0.4639640000000  0.4116520000000  0.4294910000000 1.0
C      1  0.5127790000000  0.5901600000000  0.4181400000000 1.0
C      1  0.5569990000000  0.4083870000000  0.4411450000000 1.0
C      1  0.5782590000000  0.5871090000000  0.4855950000000 1.0
C      1  0.5705050000000  0.4067520000000  0.5334560000000 1.0
C      1  0.5361180000000  0.5880860000000  0.5701930000000 1.0
C      1  0.4896980000000  0.4114530000000  0.5804880000000 1.0
C      1  0.4431780000000  0.5918130000000  0.5567650000000 1.0
C      1  0.4228480000000  0.4132390000000  0.5145600000000 1.0
C      1  0.4288340000000  0.5993510000000  0.4624790000000 1.0
C      1  0.4175910000000  0.4560090000000  0.6998460000000 1.0
C      1  0.3148620000000  0.5431560000000  0.6121220000000 1.0
C      1  0.2835240000000  0.4550210000000  0.4832060000000 1.0
C      1  0.3311690000000  0.5423170000000  0.3581890000000 1.0
C      1  0.4488920000000  0.4561690000000  0.2884370000000 1.0
C      1  0.5833590000000  0.5442570000000  0.3005290000000 1.0
C      1  0.6848270000000  0.4562950000000  0.3889110000000 1.0
C      1  0.7158310000000  0.5444530000000  0.5176000000000 1.0
C      1  0.6653030000000  0.4558050000000  0.6407140000000 1.0
C      1  0.5506020000000  0.5437170000000  0.7107810000000 1.0
C      1  0.6153310000000  0.3228110000000  0.5565550000000 1.0
C      1  0.5653780000000  0.6668500000000  0.6232370000000 1.0
C      1  0.4818190000000  0.3332840000000  0.6412310000000 1.0
C      1  0.3997530000000  0.6676070000000  0.6024200000000 1.0
C      1  0.3649020000000  0.3334630000000  0.5249110000000 1.0
C      1  0.3883290000000  0.6879870000000  0.4467940000000 1.0
C      1  0.4344640000000  0.3324020000000  0.3768060000000 1.0
C      1  0.5207320000000  0.6683390000000  0.3603210000000 1.0
C      1  0.6003110000000  0.3315510000000  0.3968500000000 1.0
C      1  0.6367550000000  0.6663130000000  0.4759060000000 1.0
END
