TITL C-1525613-7943-5743 -0.015762503313469 3375 -8873.87667746374 0 0 60 (C1) n - 1
REM
REM in /home/nfs/bkarasulu/CARBON/AIRSS/Generating-Clusters/ReaxFF-fromJPCA2015/Units_Real/Try2-Higher-symm/Only-C60
REM
REM
REM
REM
REM
REM ./C.cell (863b2abdce7293c0672fb3ba77bf323a)
REM AIRSS Version 0.9.1 bugfix July 2018 build 013d7b7c2542+ Fri, 06 Jul 2018 19:26:36 +0100
REM compiler GCC version 9.2.1 20190827 (Red Hat 9.2.1-1)
REM options -cpp -mtune=generic -march=x86-64 -g -O0 -fpre-include=/usr/include/finclude/math-vector-fortran.h
REM seed -291714049 916920958 971135182 -736556112 -820049132 1197450015 1171654861 247911582 -1826971149 1316937405 498042996 -1608031112 159293059 -337226723 274909207 1950459395 -122047484 1521515449 622454529 -685271956 -1161814603 1221047944 -1322925064 -1439784143 1938254118 -1378531075 1681795833 -1448151007 1564936344 266593912 -1940764642 1913903802 -696042079
REM
CELL 1.54180   15.00000   15.00000   15.00000   90.00000   90.00000   90.00000
LATT -1
SFAC C  
C      1  0.4213900000000  0.6352790000000  0.6107500000000 1.0
C      1  0.4180950000000  0.4347680000000  0.6686480000000 1.0
C      1  0.4167260000000  0.3169280000000  0.4919750000000 1.0
C      1  0.4197380000000  0.4498630000000  0.3229600000000 1.0
C      1  0.4218170000000  0.6508970000000  0.4018420000000 1.0
C      1  0.5785920000000  0.3648810000000  0.6104650000000 1.0
C      1  0.5817070000000  0.5649880000000  0.6683210000000 1.0
C      1  0.5821990000000  0.6845600000000  0.4919110000000 1.0
C      1  0.5803860000000  0.5498790000000  0.3224760000000 1.0
C      1  0.5782370000000  0.3491330000000  0.4017680000000 1.0
C      1  0.4470310000000  0.3578610000000  0.3010850000000 1.0
C      1  0.4494350000000  0.6463620000000  0.3071100000000 1.0
C      1  0.4498740000000  0.7263030000000  0.5795490000000 1.0
C      1  0.4488450000000  0.4954290000000  0.7412110000000 1.0
C      1  0.4477540000000  0.2678610000000  0.5734400000000 1.0
C      1  0.5528530000000  0.6421750000000  0.3005230000000 1.0
C      1  0.5503870000000  0.3535270000000  0.3071520000000 1.0
C      1  0.5497010000000  0.2738700000000  0.5793460000000 1.0
C      1  0.5510900000000  0.5043680000000  0.7411810000000 1.0
C      1  0.5519890000000  0.7323900000000  0.5737150000000 1.0
C      1  0.3821550000000  0.5580860000000  0.7178350000000 1.0
C      1  0.3808940000000  0.3100040000000  0.6250830000000 1.0
C      1  0.3803990000000  0.3231110000000  0.3585880000000 1.0
C      1  0.3850850000000  0.5791710000000  0.2904000000000 1.0
C      1  0.3842860000000  0.7238490000000  0.5117940000000 1.0
C      1  0.6177670000000  0.4417410000000  0.7178060000000 1.0
C      1  0.6190490000000  0.6898560000000  0.6249620000000 1.0
C      1  0.6189340000000  0.6768120000000  0.3583650000000 1.0
C      1  0.6150300000000  0.4205100000000  0.2902380000000 1.0
C      1  0.6154850000000  0.2761050000000  0.5117200000000 1.0
C      1  0.2887820000000  0.4460870000000  0.5650670000000 1.0
C      1  0.2893650000000  0.4211110000000  0.4707000000000 1.0
C      1  0.2930130000000  0.5028900000000  0.4181060000000 1.0
C      1  0.2934020000000  0.5780070000000  0.4789660000000 1.0
C      1  0.2905750000000  0.5433170000000  0.5698770000000 1.0
C      1  0.7112800000000  0.5537520000000  0.5652810000000 1.0
C      1  0.7101750000000  0.5780500000000  0.4711910000000 1.0
C      1  0.7067420000000  0.4969500000000  0.4183000000000 1.0
C      1  0.7065110000000  0.4217930000000  0.4792680000000 1.0
C      1  0.7094750000000  0.4564290000000  0.5700590000000 1.0
C      1  0.3374480000000  0.6656110000000  0.4527980000000 1.0
C      1  0.3347820000000  0.5949980000000  0.6445130000000 1.0
C      1  0.3328510000000  0.3910280000000  0.6378680000000 1.0
C      1  0.3321300000000  0.3349400000000  0.4393840000000 1.0
C      1  0.3371500000000  0.5052800000000  0.3264920000000 1.0
C      1  0.6625340000000  0.3343570000000  0.4528600000000 1.0
C      1  0.6652530000000  0.4048040000000  0.6445510000000 1.0
C      1  0.6670940000000  0.6090240000000  0.6380620000000 1.0
C      1  0.6671650000000  0.6652650000000  0.4399260000000 1.0
C      1  0.6629390000000  0.4943750000000  0.3263470000000 1.0
C      1  0.5762340000000  0.5861970000000  0.5001530000000 1.0
C      1  0.5682290000000  0.5287430000000  0.5755250000000 1.0
C      1  0.5633390000000  0.4386600000000  0.5463990000000 1.0
C      1  0.5502050000000  0.4364550000000  0.4491830000000 1.0
C      1  0.5593670000000  0.5336400000000  0.4215420000000 1.0
C      1  0.4265220000000  0.4144610000000  0.5010260000000 1.0
C      1  0.4321660000000  0.4712030000000  0.5755540000000 1.0
C      1  0.4368830000000  0.5618030000000  0.5466600000000 1.0
C      1  0.4501620000000  0.5640910000000  0.4496500000000 1.0
C      1  0.4413010000000  0.4661130000000  0.4224740000000 1.0
END
