TITL C-1525613-7943-2101 -0.0380158881476885 3375 -8933.42896557637 0 0 60 (S10) n - 1
REM
REM in /home/nfs/bkarasulu/CARBON/AIRSS/Generating-Clusters/ReaxFF-fromJPCA2015/Units_Real/Try2-Higher-symm/Only-C60
REM
REM
REM
REM
REM
REM ./C.cell (863b2abdce7293c0672fb3ba77bf323a)
REM AIRSS Version 0.9.1 bugfix July 2018 build 013d7b7c2542+ Fri, 06 Jul 2018 19:26:36 +0100
REM compiler GCC version 9.2.1 20190827 (Red Hat 9.2.1-1)
REM options -cpp -mtune=generic -march=x86-64 -g -O0 -fpre-include=/usr/include/finclude/math-vector-fortran.h
REM seed 1030668740 571317788 -1232391709 1473518192 -450126985 -2127975478 -1427420962 -1433674177 -1793210942 -2017770589 -1516545412 -1968532143 36056247 1384201647 -597610879 204030053 -525971360 1848803824 -1956731236 -356947695 -586198430 1006346822 249643091 477727703 -1380747947 1232087476 751063556 -1549292762 2074239700 478565992 -429538152 841014118 -1158777774
REM
CELL 1.54180   15.00000   15.00000   15.00000   90.00000   90.00000   90.00000
LATT -1
SFAC C  
C      1  0.3533610000000  0.5497970000000  0.4005600000000 1.0
C      1  0.3530570000000  0.4540570000000  0.5993190000000 1.0
C      1  0.4080630000000  0.3763570000000  0.4007230000000 1.0
C      1  0.4982830000000  0.3457720000000  0.5990600000000 1.0
C      1  0.5886610000000  0.3748380000000  0.4013780000000 1.0
C      1  0.6466470000000  0.4502060000000  0.5994390000000 1.0
C      1  0.6469670000000  0.5459390000000  0.4007160000000 1.0
C      1  0.5919470000000  0.6236440000000  0.5992760000000 1.0
C      1  0.5017280000000  0.6542190000000  0.4009370000000 1.0
C      1  0.4113270000000  0.6251730000000  0.5986220000000 1.0
C      1  0.3878290000000  0.2688500000000  0.5411060000000 1.0
C      1  0.5458150000000  0.2457920000000  0.4588520000000 1.0
C      1  0.6852590000000  0.3217340000000  0.5410200000000 1.0
C      1  0.7554600000000  0.4646020000000  0.4586150000000 1.0
C      1  0.7268710000000  0.6205580000000  0.5411490000000 1.0
C      1  0.6121770000000  0.7311390000000  0.4588900000000 1.0
C      1  0.4541920000000  0.7542050000000  0.5411460000000 1.0
C      1  0.3147400000000  0.6782680000000  0.4589810000000 1.0
C      1  0.2445370000000  0.5354060000000  0.5413790000000 1.0
C      1  0.2731460000000  0.3794560000000  0.4588900000000 1.0
C      1  0.4232420000000  0.4742830000000  0.2741880000000 1.0
C      1  0.4521550000000  0.4349610000000  0.7251670000000 1.0
C      1  0.5000140000000  0.4178580000000  0.2747830000000 1.0
C      1  0.5478300000000  0.4347270000000  0.7258090000000 1.0
C      1  0.5773810000000  0.4739760000000  0.2749480000000 1.0
C      1  0.5767440000000  0.5257140000000  0.7258030000000 1.0
C      1  0.5478260000000  0.5650300000000  0.2748150000000 1.0
C      1  0.4999770000000  0.5821220000000  0.7252010000000 1.0
C      1  0.4521530000000  0.5652790000000  0.2741770000000 1.0
C      1  0.4226030000000  0.5260290000000  0.7250360000000 1.0
C      1  0.3784250000000  0.6892910000000  0.5408210000000 1.0
C      1  0.2895850000000  0.5817730000000  0.4590430000000 1.0
C      1  0.2822720000000  0.4430480000000  0.5408800000000 1.0
C      1  0.3573590000000  0.3261730000000  0.4594270000000 1.0
C      1  0.4873330000000  0.2752830000000  0.5406360000000 1.0
C      1  0.6215740000000  0.3107210000000  0.4591760000000 1.0
C      1  0.7104130000000  0.4182290000000  0.5409500000000 1.0
C      1  0.7177590000000  0.5569720000000  0.4591460000000 1.0
C      1  0.6426510000000  0.6738300000000  0.5405780000000 1.0
C      1  0.5126790000000  0.7247140000000  0.4593640000000 1.0
C      1  0.5097990000000  0.2433240000000  0.3706970000000 1.0
C      1  0.6558890000000  0.2976900000000  0.6291430000000 1.0
C      1  0.7463180000000  0.4283350000000  0.3708520000000 1.0
C      1  0.7403430000000  0.5857400000000  0.6293510000000 1.0
C      1  0.6438810000000  0.7112180000000  0.3706920000000 1.0
C      1  0.4901990000000  0.7566770000000  0.6292990000000 1.0
C      1  0.3441150000000  0.7023060000000  0.3708500000000 1.0
C      1  0.2536590000000  0.5716800000000  0.6291370000000 1.0
C      1  0.2596590000000  0.4142700000000  0.3706800000000 1.0
C      1  0.3560910000000  0.2887520000000  0.6292930000000 1.0
C      1  0.5878510000000  0.6186760000000  0.3570870000000 1.0
C      1  0.5010470000000  0.6480850000000  0.6425910000000 1.0
C      1  0.4141030000000  0.6203140000000  0.3567240000000 1.0
C      1  0.3596570000000  0.5469050000000  0.6426510000000 1.0
C      1  0.3594150000000  0.4555890000000  0.3568270000000 1.0
C      1  0.4121510000000  0.3812940000000  0.6429130000000 1.0
C      1  0.4989560000000  0.3519080000000  0.3574050000000 1.0
C      1  0.5859030000000  0.3796850000000  0.6432730000000 1.0
C      1  0.6403320000000  0.4531080000000  0.3573530000000 1.0
C      1  0.6405890000000  0.5444180000000  0.6431750000000 1.0
END
