TITL C-1525613-7943-2443 1.4946977830722 3375 -6799.92886826565 0 0 60 (C1) n - 1
REM
REM in /home/nfs/bkarasulu/CARBON/AIRSS/Generating-Clusters/ReaxFF-fromJPCA2015/Units_Real/Try2-Higher-symm/Only-C60
REM
REM
REM
REM
REM
REM ./C.cell (863b2abdce7293c0672fb3ba77bf323a)
REM AIRSS Version 0.9.1 bugfix July 2018 build 013d7b7c2542+ Fri, 06 Jul 2018 19:26:36 +0100
REM compiler GCC version 9.2.1 20190827 (Red Hat 9.2.1-1)
REM options -cpp -mtune=generic -march=x86-64 -g -O0 -fpre-include=/usr/include/finclude/math-vector-fortran.h
REM seed -1926001536 1299782449 1384725644 2124676555 1096694798 -1401198934 1843061707 -1362583788 -1829965965 -430393761 -1145349509 1530032415 -982048316 439103531 997885014 1626723590 1101925448 -1838430063 -902790080 942165064 1671202456 1223596131 -1143217922 -2008169394 -1327036619 -1340449895 -1721307732 -614813197 -576235686 -1005532870 1228109672 1431791131 1225034200
REM
CELL 1.54180   15.00000   15.00000   15.00000   90.00000   90.00000   90.00000
LATT -1
SFAC C  
C      1  0.5842010000000  0.7400580000000  0.4483980000000 1.0
C      1  0.4750790000000  0.7394390000000  0.4037360000000 1.0
C      1  0.4007210000000  0.7390290000000  0.4902590000000 1.0
C      1  0.4639170000000  0.7401150000000  0.5914890000000 1.0
C      1  0.5737860000000  0.7410800000000  0.5639490000000 1.0
C      1  0.5829390000000  0.2613680000000  0.4469120000000 1.0
C      1  0.4769780000000  0.2587890000000  0.4070010000000 1.0
C      1  0.4020750000000  0.2599590000000  0.4897200000000 1.0
C      1  0.4642210000000  0.2618150000000  0.5962840000000 1.0
C      1  0.5749250000000  0.2621210000000  0.5692070000000 1.0
C      1  0.5810380000000  0.5472110000000  0.7218060000000 1.0
C      1  0.7352710000000  0.5469780000000  0.4913870000000 1.0
C      1  0.5699480000000  0.5443590000000  0.2720750000000 1.0
C      1  0.3039990000000  0.5471590000000  0.3674090000000 1.0
C      1  0.3148490000000  0.5499280000000  0.6460700000000 1.0
C      1  0.5806760000000  0.4524080000000  0.7216940000000 1.0
C      1  0.7356040000000  0.4525130000000  0.4909880000000 1.0
C      1  0.5636890000000  0.4536490000000  0.2728540000000 1.0
C      1  0.3021380000000  0.4499110000000  0.3643490000000 1.0
C      1  0.3127640000000  0.4527170000000  0.6470530000000 1.0
C      1  0.5350490000000  0.5397330000000  0.3959970000000 1.0
C      1  0.4134530000000  0.5426510000000  0.4348530000000 1.0
C      1  0.4117230000000  0.5418710000000  0.5630670000000 1.0
C      1  0.5328840000000  0.5411300000000  0.6039270000000 1.0
C      1  0.6081020000000  0.5412670000000  0.5006100000000 1.0
C      1  0.5345790000000  0.4611280000000  0.3963160000000 1.0
C      1  0.4125570000000  0.4578450000000  0.4339030000000 1.0
C      1  0.4109690000000  0.4579000000000  0.5629080000000 1.0
C      1  0.5326760000000  0.4585750000000  0.6033720000000 1.0
C      1  0.6084450000000  0.4585710000000  0.5002800000000 1.0
C      1  0.4494120000000  0.4250560000000  0.6491270000000 1.0
C      1  0.6254580000000  0.4271640000000  0.5944670000000 1.0
C      1  0.6292550000000  0.4269610000000  0.4100310000000 1.0
C      1  0.4547680000000  0.4274280000000  0.3496700000000 1.0
C      1  0.3423750000000  0.4263350000000  0.5007460000000 1.0
C      1  0.4491630000000  0.5722310000000  0.6477040000000 1.0
C      1  0.6252090000000  0.5723960000000  0.5947660000000 1.0
C      1  0.6283360000000  0.5724880000000  0.4100180000000 1.0
C      1  0.4531850000000  0.5759080000000  0.3532040000000 1.0
C      1  0.3409320000000  0.5741050000000  0.4991420000000 1.0
C      1  0.4062630000000  0.6819010000000  0.4186840000000 1.0
C      1  0.3941760000000  0.6796050000000  0.5664830000000 1.0
C      1  0.5300470000000  0.6791400000000  0.6222730000000 1.0
C      1  0.6238780000000  0.6799290000000  0.5096450000000 1.0
C      1  0.5481270000000  0.6812490000000  0.3838150000000 1.0
C      1  0.4036560000000  0.3201850000000  0.4180920000000 1.0
C      1  0.3939320000000  0.3187470000000  0.5646220000000 1.0
C      1  0.5275700000000  0.3194920000000  0.6214550000000 1.0
C      1  0.6237130000000  0.3199420000000  0.5089590000000 1.0
C      1  0.5472220000000  0.3203020000000  0.3834180000000 1.0
C      1  0.5197430000000  0.6215520000000  0.7020440000000 1.0
C      1  0.6977690000000  0.6217510000000  0.5428900000000 1.0
C      1  0.6005190000000  0.6215820000000  0.3239880000000 1.0
C      1  0.3678790000000  0.6261710000000  0.3489470000000 1.0
C      1  0.3141820000000  0.6224930000000  0.5819810000000 1.0
C      1  0.5221030000000  0.3762190000000  0.7006650000000 1.0
C      1  0.6978390000000  0.3777730000000  0.5424940000000 1.0
C      1  0.6014640000000  0.3793280000000  0.3255540000000 1.0
C      1  0.3673820000000  0.3763310000000  0.3451430000000 1.0
C      1  0.3151830000000  0.3749620000000  0.5821020000000 1.0
END
