TITL C-1525613-7943-7670 -0.10501489879016 3375 -9580.14393519433 0 0 60 (D5d) n - 1
REM
REM in /home/nfs/bkarasulu/CARBON/AIRSS/Generating-Clusters/ReaxFF-fromJPCA2015/Units_Real/Try2-Higher-symm/Only-C60
REM
REM
REM
REM
REM
REM ./C.cell (863b2abdce7293c0672fb3ba77bf323a)
REM AIRSS Version 0.9.1 bugfix July 2018 build 013d7b7c2542+ Fri, 06 Jul 2018 19:26:36 +0100
REM compiler GCC version 9.2.1 20190827 (Red Hat 9.2.1-1)
REM options -cpp -mtune=generic -march=x86-64 -g -O0 -fpre-include=/usr/include/finclude/math-vector-fortran.h
REM seed 1551082546 -112142576 1612885628 14712124 -1938802731 720546795 1896685173 -475713008 1340661265 -352252932 826025816 -305160371 -1842437738 840803507 171763932 2059203562 967752694 685963911 1891381148 -673831634 1847020179 -271670638 -32845613 198979612 1612408370 -1756779002 1895494000 1581333720 567902540 314614254 -66147450 -452654648 329921953
REM
CELL 1.54180   15.00000   15.00000   15.00000   90.00000   90.00000   90.00000
LATT -1
SFAC C  
C      1  0.3067900000000  0.6274690000000  0.5937150000000 1.0
C      1  0.3066890000000  0.6283950000000  0.4077330000000 1.0
C      1  0.3067480000000  0.4518510000000  0.3496050000000 1.0
C      1  0.3067770000000  0.3417560000000  0.4993590000000 1.0
C      1  0.3069780000000  0.4505810000000  0.6500030000000 1.0
C      1  0.3068650000000  0.3723450000000  0.5933920000000 1.0
C      1  0.3067140000000  0.3715930000000  0.4078180000000 1.0
C      1  0.3066950000000  0.5481180000000  0.3496020000000 1.0
C      1  0.3067750000000  0.6583390000000  0.4991810000000 1.0
C      1  0.3069920000000  0.5495260000000  0.6499850000000 1.0
C      1  0.6942190000000  0.3420210000000  0.5006850000000 1.0
C      1  0.6944310000000  0.4517200000000  0.6505470000000 1.0
C      1  0.6943360000000  0.6282430000000  0.5923440000000 1.0
C      1  0.6942010000000  0.6273920000000  0.4064320000000 1.0
C      1  0.6941310000000  0.4505530000000  0.3497530000000 1.0
C      1  0.6942200000000  0.6580000000000  0.5006640000000 1.0
C      1  0.6944350000000  0.5481750000000  0.6505960000000 1.0
C      1  0.6943510000000  0.3718050000000  0.5923480000000 1.0
C      1  0.6941750000000  0.3725020000000  0.4064920000000 1.0
C      1  0.6941290000000  0.5495270000000  0.3498010000000 1.0
C      1  0.4582870000000  0.4059030000000  0.7110910000000 1.0
C      1  0.4583190000000  0.6717140000000  0.6548070000000 1.0
C      1  0.4581220000000  0.7003260000000  0.3846650000000 1.0
C      1  0.4579770000000  0.4520190000000  0.2738520000000 1.0
C      1  0.4581300000000  0.2700450000000  0.4757260000000 1.0
C      1  0.4582860000000  0.5941460000000  0.7110680000000 1.0
C      1  0.4582300000000  0.3282110000000  0.6547320000000 1.0
C      1  0.4581020000000  0.2997200000000  0.3846150000000 1.0
C      1  0.4579280000000  0.5480160000000  0.2738490000000 1.0
C      1  0.4583600000000  0.7299160000000  0.4755530000000 1.0
C      1  0.6229450000000  0.3088430000000  0.3893780000000 1.0
C      1  0.6230820000000  0.3356570000000  0.6476020000000 1.0
C      1  0.6231310000000  0.5896810000000  0.7019160000000 1.0
C      1  0.6230020000000  0.7196410000000  0.4770790000000 1.0
C      1  0.6227840000000  0.5461350000000  0.2839260000000 1.0
C      1  0.6229040000000  0.6911950000000  0.3893690000000 1.0
C      1  0.6231330000000  0.6642510000000  0.6476490000000 1.0
C      1  0.6231570000000  0.4103680000000  0.7019470000000 1.0
C      1  0.6229230000000  0.2803120000000  0.4771140000000 1.0
C      1  0.6228360000000  0.4539110000000  0.2839550000000 1.0
C      1  0.5414430000000  0.5475800000000  0.7248660000000 1.0
C      1  0.5411340000000  0.7285730000000  0.5242170000000 1.0
C      1  0.5411590000000  0.5937360000000  0.2901150000000 1.0
C      1  0.5410450000000  0.3293600000000  0.3460640000000 1.0
C      1  0.5414330000000  0.3007860000000  0.6147220000000 1.0
C      1  0.5414850000000  0.4524390000000  0.7248670000000 1.0
C      1  0.5412520000000  0.2713760000000  0.5242030000000 1.0
C      1  0.5411110000000  0.4062660000000  0.2901490000000 1.0
C      1  0.5410520000000  0.6706710000000  0.3460380000000 1.0
C      1  0.5413060000000  0.6991990000000  0.6147030000000 1.0
C      1  0.3767280000000  0.4537590000000  0.7175070000000 1.0
C      1  0.3765940000000  0.6928850000000  0.6110980000000 1.0
C      1  0.3764000000000  0.6653420000000  0.3511090000000 1.0
C      1  0.3763170000000  0.4094550000000  0.2968870000000 1.0
C      1  0.3766360000000  0.2785050000000  0.5232300000000 1.0
C      1  0.3767480000000  0.5462890000000  0.7175260000000 1.0
C      1  0.3766000000000  0.3072700000000  0.6112790000000 1.0
C      1  0.3764470000000  0.3346640000000  0.3511360000000 1.0
C      1  0.3763850000000  0.5905670000000  0.2968170000000 1.0
C      1  0.3764360000000  0.7213580000000  0.5235220000000 1.0
END
