TITL C-1525613-7943-2660 0.0921434470515502 3375 -8564.98818028438 0 0 60 (Cs) n - 1
REM
REM in /home/nfs/bkarasulu/CARBON/AIRSS/Generating-Clusters/ReaxFF-fromJPCA2015/Units_Real/Try2-Higher-symm/Only-C60
REM
REM
REM
REM
REM
REM ./C.cell (863b2abdce7293c0672fb3ba77bf323a)
REM AIRSS Version 0.9.1 bugfix July 2018 build 013d7b7c2542+ Fri, 06 Jul 2018 19:26:36 +0100
REM compiler GCC version 9.2.1 20190827 (Red Hat 9.2.1-1)
REM options -cpp -mtune=generic -march=x86-64 -g -O0 -fpre-include=/usr/include/finclude/math-vector-fortran.h
REM seed -758054502 734609006 -2067391041 436301229 2062002148 1219790016 1062285754 314702499 1470821268 277216544 -195260041 -256393026 551597166 -1062370215 909456663 -987172538 868581329 2045211159 -951116416 1703263147 232749050 899423063 462051190 1203793214 -462673260 -1114716470 -1704800642 -1386065921 1634896049 1339163360 -1157656580 473849061 1852091706
REM
CELL 1.54180   15.00000   15.00000   15.00000   90.00000   90.00000   90.00000
LATT -1
SFAC C  
C      1  0.2889300000000  0.5819210000000  0.4521540000000 1.0
C      1  0.5113210000000  0.7256580000000  0.4521170000000 1.0
C      1  0.7199370000000  0.5584740000000  0.4522360000000 1.0
C      1  0.6239770000000  0.3087480000000  0.4521570000000 1.0
C      1  0.3584490000000  0.3251320000000  0.4521810000000 1.0
C      1  0.2889300000000  0.5819210000000  0.5478470000000 1.0
C      1  0.5113220000000  0.7256580000000  0.5478830000000 1.0
C      1  0.7199380000000  0.5584750000000  0.5477640000000 1.0
C      1  0.6239780000000  0.3087480000000  0.5478430000000 1.0
C      1  0.3584490000000  0.3251320000000  0.5478200000000 1.0
C      1  0.4208450000000  0.7038670000000  0.4017540000000 1.0
C      1  0.6681240000000  0.6368540000000  0.4018130000000 1.0
C      1  0.6830000000000  0.3819640000000  0.4026690000000 1.0
C      1  0.4449640000000  0.2894450000000  0.4021000000000 1.0
C      1  0.2830240000000  0.4884460000000  0.4016790000000 1.0
C      1  0.4208450000000  0.7038670000000  0.5982460000000 1.0
C      1  0.6681250000000  0.6368550000000  0.5981860000000 1.0
C      1  0.6830000000000  0.3819650000000  0.5973320000000 1.0
C      1  0.4449640000000  0.2894460000000  0.5979000000000 1.0
C      1  0.2830240000000  0.4884460000000  0.5983210000000 1.0
C      1  0.3869570000000  0.5624090000000  0.3380210000000 1.0
C      1  0.5233970000000  0.6221910000000  0.3359270000000 1.0
C      1  0.6243110000000  0.5161280000000  0.3449860000000 1.0
C      1  0.5525370000000  0.3880850000000  0.3443010000000 1.0
C      1  0.4080150000000  0.4140010000000  0.3375950000000 1.0
C      1  0.3869570000000  0.5624090000000  0.6619790000000 1.0
C      1  0.5233950000000  0.6221900000000  0.6640730000000 1.0
C      1  0.6243150000000  0.5161240000000  0.6550120000000 1.0
C      1  0.5525370000000  0.3880820000000  0.6556980000000 1.0
C      1  0.4080150000000  0.4140010000000  0.6624050000000 1.0
C      1  0.3447580000000  0.6571420000000  0.5692340000000 1.0
C      1  0.5990610000000  0.6935290000000  0.5698170000000 1.0
C      1  0.7192180000000  0.4640710000000  0.5687930000000 1.0
C      1  0.5340760000000  0.2808430000000  0.5691040000000 1.0
C      1  0.3045350000000  0.4018150000000  0.5694190000000 1.0
C      1  0.3447570000000  0.6571420000000  0.4307660000000 1.0
C      1  0.5990600000000  0.6935290000000  0.4301830000000 1.0
C      1  0.7192210000000  0.4640690000000  0.4312070000000 1.0
C      1  0.5340750000000  0.2808420000000  0.4308970000000 1.0
C      1  0.3045350000000  0.4018150000000  0.4305810000000 1.0
C      1  0.5346010000000  0.4246640000000  0.5675880000000 1.0
C      1  0.4412320000000  0.4454250000000  0.5797550000000 1.0
C      1  0.4290630000000  0.5384980000000  0.5805480000000 1.0
C      1  0.5142520000000  0.5781540000000  0.5806490000000 1.0
C      1  0.5823240000000  0.5111480000000  0.5675590000000 1.0
C      1  0.5346020000000  0.4246640000000  0.4324110000000 1.0
C      1  0.4412320000000  0.4454250000000  0.4202450000000 1.0
C      1  0.4290630000000  0.5384970000000  0.4194520000000 1.0
C      1  0.5142530000000  0.5781540000000  0.4193520000000 1.0
C      1  0.5823250000000  0.5111480000000  0.4324400000000 1.0
C      1  0.4702450000000  0.3394250000000  0.6789410000000 1.0
C      1  0.3366950000000  0.4802450000000  0.6804120000000 1.0
C      1  0.4300140000000  0.6495460000000  0.6798290000000 1.0
C      1  0.6204030000000  0.6103900000000  0.6802810000000 1.0
C      1  0.6417310000000  0.4217880000000  0.6776000000000 1.0
C      1  0.4702450000000  0.3394240000000  0.3210590000000 1.0
C      1  0.3366950000000  0.4802450000000  0.3195870000000 1.0
C      1  0.4300140000000  0.6495450000000  0.3201710000000 1.0
C      1  0.6204040000000  0.6103880000000  0.3197200000000 1.0
C      1  0.6417320000000  0.4217890000000  0.3224000000000 1.0
END
