TITL C-1525613-7943-4475 0.478024403652671 3375 -7959.55190583515 0 0 60 (Cs) n - 1
REM
REM in /home/nfs/bkarasulu/CARBON/AIRSS/Generating-Clusters/ReaxFF-fromJPCA2015/Units_Real/Try2-Higher-symm/Only-C60
REM
REM
REM
REM
REM
REM ./C.cell (863b2abdce7293c0672fb3ba77bf323a)
REM AIRSS Version 0.9.1 bugfix July 2018 build 013d7b7c2542+ Fri, 06 Jul 2018 19:26:36 +0100
REM compiler GCC version 9.2.1 20190827 (Red Hat 9.2.1-1)
REM options -cpp -mtune=generic -march=x86-64 -g -O0 -fpre-include=/usr/include/finclude/math-vector-fortran.h
REM seed -1611073585 1110637110 -935028220 -1887188443 311662198 388601293 -409268178 95629683 -472205500 1376908636 -1835546492 372746705 2033586334 -1283771507 -269166864 1150678458 -1044857239 2007174898 -1400921523 1265427592 1391271418 -105643096 875380595 1882604470 -1181483826 -324107728 1212963950 1693114053 -280910181 -2115929560 -596440316 1259103331 -305992168
REM
CELL 1.54180   15.00000   15.00000   15.00000   90.00000   90.00000   90.00000
LATT -1
SFAC C  
C      1  0.7320270000000  0.3187970000000  0.3938110000000 1.0
C      1  0.6770150000000  0.3202770000000  0.6903460000000 1.0
C      1  0.3739810000000  0.3216690000000  0.7262230000000 1.0
C      1  0.2496160000000  0.3204700000000  0.4495760000000 1.0
C      1  0.4716030000000  0.3198670000000  0.2479930000000 1.0
C      1  0.7320230000000  0.3188030000000  0.6061920000000 1.0
C      1  0.6770160000000  0.3202750000000  0.3096560000000 1.0
C      1  0.3739990000000  0.3216600000000  0.2737670000000 1.0
C      1  0.2496210000000  0.3205110000000  0.5504430000000 1.0
C      1  0.4716150000000  0.3198950000000  0.7520010000000 1.0
C      1  0.3790490000000  0.5762130000000  0.3473870000000 1.0
C      1  0.6095540000000  0.5718150000000  0.3512930000000 1.0
C      1  0.6658150000000  0.5632180000000  0.5461010000000 1.0
C      1  0.5181420000000  0.5638470000000  0.6712400000000 1.0
C      1  0.3276120000000  0.5687650000000  0.5797520000000 1.0
C      1  0.3789460000000  0.5762450000000  0.6526250000000 1.0
C      1  0.6095300000000  0.5718060000000  0.6487970000000 1.0
C      1  0.6658150000000  0.5631110000000  0.4539180000000 1.0
C      1  0.5180990000000  0.5638490000000  0.3288150000000 1.0
C      1  0.3276550000000  0.5687190000000  0.4203400000000 1.0
C      1  0.6997630000000  0.4150920000000  0.5861820000000 1.0
C      1  0.4810240000000  0.4147380000000  0.7120460000000 1.0
C      1  0.2886200000000  0.4157080000000  0.5480980000000 1.0
C      1  0.3874150000000  0.4176490000000  0.3071270000000 1.0
C      1  0.6497850000000  0.4172090000000  0.3318980000000 1.0
C      1  0.6997670000000  0.4150750000000  0.4138090000000 1.0
C      1  0.4810920000000  0.4147260000000  0.2879480000000 1.0
C      1  0.2886040000000  0.4156780000000  0.4518900000000 1.0
C      1  0.3873900000000  0.4176310000000  0.6928180000000 1.0
C      1  0.6497840000000  0.4171990000000  0.6680890000000 1.0
C      1  0.7403640000000  0.5329980000000  0.7283610000000 1.0
C      1  0.3579800000000  0.5328450000000  0.8003490000000 1.0
C      1  0.1843760000000  0.5304140000000  0.4619400000000 1.0
C      1  0.4349040000000  0.5266760000000  0.1988570000000 1.0
C      1  0.7686840000000  0.5268090000000  0.3434170000000 1.0
C      1  0.7403630000000  0.5330030000000  0.2716400000000 1.0
C      1  0.3580480000000  0.5328840000000  0.1995200000000 1.0
C      1  0.1845290000000  0.5303660000000  0.5381010000000 1.0
C      1  0.4348890000000  0.5267340000000  0.8011130000000 1.0
C      1  0.7686900000000  0.5268060000000  0.6565850000000 1.0
C      1  0.6490050000000  0.6623620000000  0.4525690000000 1.0
C      1  0.5926390000000  0.6690850000000  0.6263090000000 1.0
C      1  0.4076500000000  0.6668170000000  0.6287820000000 1.0
C      1  0.3526050000000  0.6572700000000  0.4525880000000 1.0
C      1  0.4996630000000  0.6556150000000  0.3479230000000 1.0
C      1  0.6489780000000  0.6623600000000  0.5473760000000 1.0
C      1  0.5926140000000  0.6691630000000  0.3736730000000 1.0
C      1  0.4075830000000  0.6669060000000  0.3712500000000 1.0
C      1  0.3526380000000  0.6572930000000  0.5474540000000 1.0
C      1  0.4996950000000  0.6555340000000  0.6520070000000 1.0
C      1  0.3367570000000  0.5057110000000  0.7081760000000 1.0
C      1  0.2588330000000  0.5000810000000  0.4074620000000 1.0
C      1  0.5122080000000  0.5020400000000  0.2515190000000 1.0
C      1  0.7440590000000  0.5020790000000  0.4327750000000 1.0
C      1  0.6491600000000  0.5038500000000  0.7186760000000 1.0
C      1  0.3367130000000  0.5057120000000  0.2917430000000 1.0
C      1  0.2589240000000  0.5000880000000  0.5926150000000 1.0
C      1  0.5122300000000  0.5020650000000  0.7484900000000 1.0
C      1  0.7440560000000  0.5020870000000  0.5672360000000 1.0
C      1  0.6491860000000  0.5038270000000  0.2813130000000 1.0
END
