TITL C-1525613-7943-2385 0.296009991192039 3375 -8053.1951775407 0 0 60 (Cs) n - 1
REM
REM in /home/nfs/bkarasulu/CARBON/AIRSS/Generating-Clusters/ReaxFF-fromJPCA2015/Units_Real/Try2-Higher-symm/Only-C60
REM
REM
REM
REM
REM
REM ./C.cell (863b2abdce7293c0672fb3ba77bf323a)
REM AIRSS Version 0.9.1 bugfix July 2018 build 013d7b7c2542+ Fri, 06 Jul 2018 19:26:36 +0100
REM compiler GCC version 9.2.1 20190827 (Red Hat 9.2.1-1)
REM options -cpp -mtune=generic -march=x86-64 -g -O0 -fpre-include=/usr/include/finclude/math-vector-fortran.h
REM seed -2071500019 -526346843 -383197079 1887195101 -775134889 1522858555 -2112053078 212100688 -960060678 1660546146 -850598600 122918096 891056530 549949215 2105841934 -1593032908 -2050391010 -239268624 -424174384 856825276 -429745893 291989932 -584817905 277848366 -1193848699 -1271105000 958766242 -1646272865 1191510881 -349066933 400544737 1495003544 1599772364
REM
CELL 1.54180   15.00000   15.00000   15.00000   90.00000   90.00000   90.00000
LATT -1
SFAC C  
C      1  0.3278330000000  0.5838070000000  0.5153060000000 1.0
C      1  0.3257270000000  0.5307480000000  0.4368390000000 1.0
C      1  0.3262240000000  0.4366040000000  0.4407290000000 1.0
C      1  0.3283880000000  0.4268540000000  0.5344820000000 1.0
C      1  0.3288110000000  0.5127360000000  0.5764760000000 1.0
C      1  0.6722270000000  0.5837920000000  0.5153040000000 1.0
C      1  0.6742560000000  0.5307330000000  0.4368680000000 1.0
C      1  0.6737050000000  0.4366300000000  0.4407260000000 1.0
C      1  0.6716040000000  0.4268520000000  0.5344690000000 1.0
C      1  0.6712270000000  0.5127330000000  0.5764800000000 1.0
C      1  0.5520040000000  0.2995350000000  0.6623120000000 1.0
C      1  0.5514720000000  0.5900700000000  0.7353320000000 1.0
C      1  0.5508390000000  0.7576450000000  0.4842270000000 1.0
C      1  0.5508420000000  0.5667680000000  0.2558360000000 1.0
C      1  0.5508940000000  0.2858280000000  0.3597000000000 1.0
C      1  0.4480000000000  0.2995560000000  0.6623250000000 1.0
C      1  0.4485630000000  0.5901260000000  0.7352840000000 1.0
C      1  0.4491930000000  0.7576130000000  0.4842590000000 1.0
C      1  0.4491780000000  0.5668560000000  0.2557180000000 1.0
C      1  0.4490650000000  0.2857440000000  0.3596350000000 1.0
C      1  0.5571230000000  0.3027080000000  0.4998670000000 1.0
C      1  0.5561960000000  0.4399420000000  0.6952380000000 1.0
C      1  0.5587620000000  0.6697000000000  0.6183040000000 1.0
C      1  0.5795730000000  0.6582950000000  0.3903620000000 1.0
C      1  0.5580630000000  0.4339590000000  0.3037950000000 1.0
C      1  0.4428830000000  0.3026660000000  0.4999410000000 1.0
C      1  0.4438010000000  0.4399880000000  0.6952520000000 1.0
C      1  0.4412180000000  0.6696190000000  0.6183270000000 1.0
C      1  0.4204330000000  0.6583230000000  0.3903420000000 1.0
C      1  0.4420040000000  0.4340040000000  0.3038540000000 1.0
C      1  0.4024180000000  0.3469310000000  0.7314010000000 1.0
C      1  0.4027290000000  0.6725020000000  0.7183100000000 1.0
C      1  0.4000470000000  0.7597420000000  0.3995330000000 1.0
C      1  0.4034130000000  0.4900950000000  0.2210900000000 1.0
C      1  0.4040580000000  0.2340930000000  0.4258440000000 1.0
C      1  0.5975900000000  0.3469110000000  0.7313960000000 1.0
C      1  0.5972470000000  0.6724810000000  0.7182730000000 1.0
C      1  0.5999580000000  0.7597480000000  0.3995120000000 1.0
C      1  0.5965910000000  0.4900760000000  0.2210220000000 1.0
C      1  0.5959380000000  0.2340980000000  0.4258860000000 1.0
C      1  0.6032840000000  0.5253460000000  0.6685340000000 1.0
C      1  0.6091740000000  0.6745120000000  0.5323410000000 1.0
C      1  0.6093520000000  0.5761830000000  0.3463680000000 1.0
C      1  0.6088290000000  0.3778900000000  0.3709400000000 1.0
C      1  0.6064520000000  0.3449870000000  0.5755080000000 1.0
C      1  0.3967680000000  0.5253710000000  0.6684790000000 1.0
C      1  0.3908250000000  0.6744510000000  0.5324670000000 1.0
C      1  0.3905930000000  0.5761980000000  0.3463550000000 1.0
C      1  0.3911980000000  0.3777600000000  0.3710480000000 1.0
C      1  0.3935040000000  0.3449540000000  0.5755450000000 1.0
C      1  0.5465780000000  0.4182250000000  0.5998490000000 1.0
C      1  0.5465360000000  0.5712800000000  0.6006740000000 1.0
C      1  0.5475910000000  0.6219050000000  0.4769780000000 1.0
C      1  0.5474230000000  0.5019740000000  0.3759460000000 1.0
C      1  0.5469060000000  0.3890910000000  0.4478690000000 1.0
C      1  0.4534100000000  0.4182590000000  0.5998790000000 1.0
C      1  0.4532880000000  0.5713490000000  0.6006190000000 1.0
C      1  0.4523820000000  0.6219800000000  0.4770280000000 1.0
C      1  0.4526390000000  0.5020470000000  0.3758350000000 1.0
C      1  0.4531740000000  0.3891290000000  0.4478800000000 1.0
END
