TITL C-1525613-7943-1714 0.000546475136387717 3375 -9258.19241123206 0 0 60 (C2) n - 1
REM
REM in /home/nfs/bkarasulu/CARBON/AIRSS/Generating-Clusters/ReaxFF-fromJPCA2015/Units_Real/Try2-Higher-symm/Only-C60
REM
REM
REM
REM
REM
REM ./C.cell (863b2abdce7293c0672fb3ba77bf323a)
REM AIRSS Version 0.9.1 bugfix July 2018 build 013d7b7c2542+ Fri, 06 Jul 2018 19:26:36 +0100
REM compiler GCC version 9.2.1 20190827 (Red Hat 9.2.1-1)
REM options -cpp -mtune=generic -march=x86-64 -g -O0 -fpre-include=/usr/include/finclude/math-vector-fortran.h
REM seed -1279775733 -1315962708 1681501518 -1084991559 -113083132 1561994263 -279580985 -1450091393 -569461993 -801300291 -916601234 798759269 -1310790986 593365150 -1348481173 -1828349593 2074466241 1414416948 -1011401042 865812612 868264094 -750668212 -2079477682 1427376256 -1073918568 -1550534770 -1041064528 247753381 258184185 339750681 1035719444 633236702 -874436210
REM
CELL 1.54180   15.00000   15.00000   15.00000   90.00000   90.00000   90.00000
LATT -1
SFAC C  
C      1  0.6736340000000  0.6150100000000  0.3685880000000 1.0
C      1  0.6030150000000  0.7610440000000  0.3759290000000 1.0
C      1  0.4526250000000  0.7066460000000  0.3855420000000 1.0
C      1  0.2942130000000  0.6795230000000  0.3823970000000 1.0
C      1  0.2931350000000  0.5337180000000  0.3919880000000 1.0
C      1  0.3268390000000  0.3845050000000  0.3688250000000 1.0
C      1  0.3977570000000  0.2387180000000  0.3759700000000 1.0
C      1  0.5481830000000  0.2930060000000  0.3851620000000 1.0
C      1  0.7065300000000  0.3203430000000  0.3817350000000 1.0
C      1  0.7066780000000  0.4657160000000  0.3933300000000 1.0
C      1  0.6580320000000  0.4264310000000  0.6789650000000 1.0
C      1  0.6453820000000  0.5271350000000  0.6719810000000 1.0
C      1  0.5701970000000  0.5782600000000  0.6783490000000 1.0
C      1  0.5090760000000  0.6445750000000  0.6702050000000 1.0
C      1  0.4071390000000  0.6460740000000  0.6803560000000 1.0
C      1  0.3416340000000  0.5745710000000  0.6812060000000 1.0
C      1  0.3555030000000  0.4733320000000  0.6707170000000 1.0
C      1  0.4303090000000  0.4224380000000  0.6777970000000 1.0
C      1  0.4918230000000  0.3557250000000  0.6703300000000 1.0
C      1  0.5927920000000  0.3547310000000  0.6796640000000 1.0
C      1  0.3497550000000  0.6996200000000  0.6209090000000 1.0
C      1  0.2810460000000  0.6279050000000  0.6247280000000 1.0
C      1  0.3079850000000  0.4117170000000  0.6083040000000 1.0
C      1  0.3439430000000  0.3228840000000  0.5935570000000 1.0
C      1  0.4374130000000  0.3000990000000  0.6073590000000 1.0
C      1  0.6499360000000  0.3011510000000  0.6200840000000 1.0
C      1  0.7161960000000  0.3741540000000  0.6201770000000 1.0
C      1  0.6921120000000  0.5881730000000  0.6084740000000 1.0
C      1  0.6568680000000  0.6773720000000  0.5939290000000 1.0
C      1  0.5634610000000  0.7005610000000  0.6077310000000 1.0
C      1  0.3811070000000  0.3150270000000  0.3251400000000 1.0
C      1  0.4690040000000  0.2781950000000  0.3341850000000 1.0
C      1  0.6265580000000  0.3202930000000  0.3379470000000 1.0
C      1  0.6880770000000  0.3961240000000  0.3334060000000 1.0
C      1  0.6781330000000  0.5289900000000  0.3492910000000 1.0
C      1  0.6195840000000  0.6847930000000  0.3250280000000 1.0
C      1  0.5316920000000  0.7215370000000  0.3343000000000 1.0
C      1  0.3740770000000  0.6796660000000  0.3385060000000 1.0
C      1  0.3130640000000  0.6036640000000  0.3330480000000 1.0
C      1  0.3225440000000  0.4706560000000  0.3493480000000 1.0
C      1  0.2716640000000  0.4384750000000  0.5210910000000 1.0
C      1  0.3215180000000  0.2931280000000  0.5067350000000 1.0
C      1  0.4672110000000  0.2567090000000  0.5252830000000 1.0
C      1  0.6352050000000  0.2797540000000  0.5255340000000 1.0
C      1  0.7399630000000  0.3902370000000  0.5305540000000 1.0
C      1  0.7260150000000  0.5600620000000  0.5211270000000 1.0
C      1  0.6789670000000  0.7062960000000  0.5068270000000 1.0
C      1  0.5334370000000  0.7433740000000  0.5253230000000 1.0
C      1  0.3650970000000  0.7193390000000  0.5256800000000 1.0
C      1  0.2559500000000  0.6109270000000  0.5310320000000 1.0
C      1  0.5514010000000  0.2714730000000  0.4794320000000 1.0
C      1  0.7104370000000  0.3167080000000  0.4767900000000 1.0
C      1  0.7362180000000  0.4717890000000  0.4878210000000 1.0
C      1  0.7086010000000  0.6315790000000  0.4593780000000 1.0
C      1  0.6110430000000  0.7591450000000  0.4701270000000 1.0
C      1  0.4493060000000  0.7280880000000  0.4797510000000 1.0
C      1  0.2901830000000  0.6841180000000  0.4767280000000 1.0
C      1  0.2600930000000  0.5269140000000  0.4871590000000 1.0
C      1  0.2909410000000  0.3672450000000  0.4589860000000 1.0
C      1  0.3896980000000  0.2405570000000  0.4701550000000 1.0
END
