TITL C-1525613-7943-340 -0.028524320239782 3375 -8253.21153704255 0 0 60 (Cs) n - 1
REM
REM in /home/nfs/bkarasulu/CARBON/AIRSS/Generating-Clusters/ReaxFF-fromJPCA2015/Units_Real/Try2-Higher-symm/Only-C60
REM
REM
REM
REM
REM
REM ./C.cell (863b2abdce7293c0672fb3ba77bf323a)
REM AIRSS Version 0.9.1 bugfix July 2018 build 013d7b7c2542+ Fri, 06 Jul 2018 19:26:36 +0100
REM compiler GCC version 9.2.1 20190827 (Red Hat 9.2.1-1)
REM options -cpp -mtune=generic -march=x86-64 -g -O0 -fpre-include=/usr/include/finclude/math-vector-fortran.h
REM seed -248888848 -1088758222 -2015297766 -1749455657 -804191075 -2115936968 1797450601 -1588695845 855045719 476760964 2061438064 1101831981 -684846908 -277835553 452705105 -144339230 943815645 774048691 -1847938566 -1574729875 -518635398 108337392 -279872838 -807576313 -1924125615 1909652083 -963277502 248262312 1978364511 615251671 192974378 2125876101 -1266130797
REM
CELL 1.54180   15.00000   15.00000   15.00000   90.00000   90.00000   90.00000
LATT -1
SFAC C  
C      1  0.5636890000000  0.4198840000000  0.2806170000000 1.0
C      1  0.4401590000000  0.4160040000000  0.2782180000000 1.0
C      1  0.4019380000000  0.5309390000000  0.2771320000000 1.0
C      1  0.4962690000000  0.6030650000000  0.2812260000000 1.0
C      1  0.6004270000000  0.5316520000000  0.2779770000000 1.0
C      1  0.5636840000000  0.4198820000000  0.7193870000000 1.0
C      1  0.4401550000000  0.4160030000000  0.7217840000000 1.0
C      1  0.4019380000000  0.5309410000000  0.7228700000000 1.0
C      1  0.4962700000000  0.6030640000000  0.7187740000000 1.0
C      1  0.6004270000000  0.5316500000000  0.7220210000000 1.0
C      1  0.6167350000000  0.5811530000000  0.6339890000000 1.0
C      1  0.6123810000000  0.4159170000000  0.6310230000000 1.0
C      1  0.4548580000000  0.3660780000000  0.6338010000000 1.0
C      1  0.3524020000000  0.5029360000000  0.6336680000000 1.0
C      1  0.4580660000000  0.6378970000000  0.6304340000000 1.0
C      1  0.6167340000000  0.5811530000000  0.3660100000000 1.0
C      1  0.6123890000000  0.4159150000000  0.3689820000000 1.0
C      1  0.4548580000000  0.3660740000000  0.3662010000000 1.0
C      1  0.3524010000000  0.5029380000000  0.3663320000000 1.0
C      1  0.4580660000000  0.6378970000000  0.3695670000000 1.0
C      1  0.3701180000000  0.3238500000000  0.3703870000000 1.0
C      1  0.2891400000000  0.5728550000000  0.3707500000000 1.0
C      1  0.5026550000000  0.7213470000000  0.3713180000000 1.0
C      1  0.7102890000000  0.5670350000000  0.3708380000000 1.0
C      1  0.6283290000000  0.3222730000000  0.3670060000000 1.0
C      1  0.3701180000000  0.3238490000000  0.6296160000000 1.0
C      1  0.2891390000000  0.5728550000000  0.6292490000000 1.0
C      1  0.5026560000000  0.7213470000000  0.6286800000000 1.0
C      1  0.7102900000000  0.5670360000000  0.6291620000000 1.0
C      1  0.6283300000000  0.3222750000000  0.6329890000000 1.0
C      1  0.5968050000000  0.3269790000000  0.7335750000000 1.0
C      1  0.3624350000000  0.3590950000000  0.7346560000000 1.0
C      1  0.3236200000000  0.5864060000000  0.7368690000000 1.0
C      1  0.5254500000000  0.6941400000000  0.7352900000000 1.0
C      1  0.6968300000000  0.5337950000000  0.7345650000000 1.0
C      1  0.5968030000000  0.3269790000000  0.2664160000000 1.0
C      1  0.3624400000000  0.3590980000000  0.2653410000000 1.0
C      1  0.3236210000000  0.5864040000000  0.2631320000000 1.0
C      1  0.5254500000000  0.6941420000000  0.2647100000000 1.0
C      1  0.6968300000000  0.5337950000000  0.2654340000000 1.0
C      1  0.7425300000000  0.5515420000000  0.5436370000000 1.0
C      1  0.6148990000000  0.2715910000000  0.5483490000000 1.0
C      1  0.3351010000000  0.3173800000000  0.5437540000000 1.0
C      1  0.2739960000000  0.6035380000000  0.5437760000000 1.0
C      1  0.5281000000000  0.7468510000000  0.5437120000000 1.0
C      1  0.7425300000000  0.5515410000000  0.4563630000000 1.0
C      1  0.6148970000000  0.2715880000000  0.4516500000000 1.0
C      1  0.3351010000000  0.3173790000000  0.4562460000000 1.0
C      1  0.2739960000000  0.6035390000000  0.4562240000000 1.0
C      1  0.5281000000000  0.7468510000000  0.4562880000000 1.0
C      1  0.5640210000000  0.5487650000000  0.4355360000000 1.0
C      1  0.5662430000000  0.4551920000000  0.4375830000000 1.0
C      1  0.4797700000000  0.4202600000000  0.4360240000000 1.0
C      1  0.4183970000000  0.4946900000000  0.4392120000000 1.0
C      1  0.4743440000000  0.5768950000000  0.4397750000000 1.0
C      1  0.5640220000000  0.5487650000000  0.5644640000000 1.0
C      1  0.5662420000000  0.4551930000000  0.5624190000000 1.0
C      1  0.4797720000000  0.4202600000000  0.5639790000000 1.0
C      1  0.4184000000000  0.4946890000000  0.5607900000000 1.0
C      1  0.4743450000000  0.5768940000000  0.5602260000000 1.0
END
