TITL C-1525613-7943-1194 -0.00813569293115341 3375 -7892.95726893914 0 0 60 (C1) n - 1
REM
REM in /home/nfs/bkarasulu/CARBON/AIRSS/Generating-Clusters/ReaxFF-fromJPCA2015/Units_Real/Try2-Higher-symm/Only-C60
REM
REM
REM
REM
REM
REM ./C.cell (863b2abdce7293c0672fb3ba77bf323a)
REM AIRSS Version 0.9.1 bugfix July 2018 build 013d7b7c2542+ Fri, 06 Jul 2018 19:26:36 +0100
REM compiler GCC version 9.2.1 20190827 (Red Hat 9.2.1-1)
REM options -cpp -mtune=generic -march=x86-64 -g -O0 -fpre-include=/usr/include/finclude/math-vector-fortran.h
REM seed 1050878306 -354780364 1065427049 -1948753038 1088987381 1870532266 -1292067365 391263892 -1791886995 214184232 -783166669 1695807921 1935644538 902824368 819017720 -1598948895 1123925424 -146750276 -960920926 824936236 -273646071 1202858597 192152603 442609859 1425425360 845611274 -430913574 2011141823 -74198008 -694953755 -499547844 -1316097780 263435964
REM
CELL 1.54180   15.00000   15.00000   15.00000   90.00000   90.00000   90.00000
LATT -1
SFAC C  
C      1  0.3616980000000  0.3916370000000  0.3001230000000 1.0
C      1  0.4888860000000  0.4059970000000  0.2422090000000 1.0
C      1  0.6435630000000  0.3932570000000  0.2947140000000 1.0
C      1  0.7292780000000  0.3925610000000  0.4305590000000 1.0
C      1  0.7403470000000  0.4057230000000  0.5744960000000 1.0
C      1  0.6369210000000  0.3916270000000  0.7008340000000 1.0
C      1  0.5090020000000  0.4069860000000  0.7546370000000 1.0
C      1  0.3552700000000  0.3873710000000  0.7047120000000 1.0
C      1  0.2703140000000  0.3915630000000  0.5692780000000 1.0
C      1  0.2597440000000  0.4055140000000  0.4254280000000 1.0
C      1  0.7387770000000  0.5038070000000  0.5849550000000 1.0
C      1  0.6188310000000  0.4998740000000  0.6722200000000 1.0
C      1  0.4930840000000  0.5010880000000  0.7684710000000 1.0
C      1  0.3796400000000  0.4978400000000  0.6948400000000 1.0
C      1  0.3042000000000  0.4995150000000  0.5647010000000 1.0
C      1  0.2617930000000  0.5037690000000  0.4152750000000 1.0
C      1  0.3782050000000  0.4994160000000  0.3268100000000 1.0
C      1  0.5060140000000  0.5011430000000  0.2499360000000 1.0
C      1  0.6320930000000  0.4966400000000  0.3070250000000 1.0
C      1  0.6955570000000  0.4999940000000  0.4359670000000 1.0
C      1  0.6654270000000  0.6518390000000  0.3645040000000 1.0
C      1  0.7179600000000  0.6526330000000  0.4885300000000 1.0
C      1  0.6839870000000  0.6518180000000  0.6172270000000 1.0
C      1  0.5791600000000  0.6496960000000  0.7022160000000 1.0
C      1  0.4462910000000  0.6534680000000  0.7080420000000 1.0
C      1  0.3337200000000  0.6529550000000  0.6353480000000 1.0
C      1  0.2816810000000  0.6527030000000  0.5112440000000 1.0
C      1  0.3158360000000  0.6518920000000  0.3824720000000 1.0
C      1  0.4204000000000  0.6509760000000  0.2976830000000 1.0
C      1  0.5534090000000  0.6516750000000  0.2909200000000 1.0
C      1  0.3658640000000  0.6087530000000  0.7094900000000 1.0
C      1  0.2720500000000  0.6022660000000  0.5878230000000 1.0
C      1  0.2505910000000  0.6111510000000  0.4334130000000 1.0
C      1  0.3432440000000  0.6019380000000  0.3086390000000 1.0
C      1  0.4851280000000  0.6059160000000  0.2466690000000 1.0
C      1  0.6346370000000  0.6074090000000  0.2897440000000 1.0
C      1  0.7279960000000  0.6017310000000  0.4120280000000 1.0
C      1  0.7494360000000  0.6112960000000  0.5664630000000 1.0
C      1  0.6565000000000  0.6013860000000  0.6908180000000 1.0
C      1  0.5127940000000  0.6057500000000  0.7516960000000 1.0
C      1  0.5981220000000  0.3373870000000  0.6317910000000 1.0
C      1  0.5062720000000  0.3468660000000  0.6693560000000 1.0
C      1  0.4095700000000  0.3427720000000  0.6419680000000 1.0
C      1  0.3470630000000  0.3383600000000  0.5521770000000 1.0
C      1  0.3381160000000  0.3479830000000  0.4530990000000 1.0
C      1  0.4022000000000  0.3373370000000  0.3680100000000 1.0
C      1  0.4941030000000  0.3477580000000  0.3300270000000 1.0
C      1  0.5900570000000  0.3438910000000  0.3579100000000 1.0
C      1  0.6525630000000  0.3386960000000  0.4469280000000 1.0
C      1  0.6620870000000  0.3480340000000  0.5464290000000 1.0
C      1  0.5372920000000  0.5205220000000  0.6187430000000 1.0
C      1  0.4579220000000  0.4820140000000  0.6426700000000 1.0
C      1  0.3873870000000  0.5076350000000  0.5987430000000 1.0
C      1  0.3351090000000  0.5184150000000  0.4783210000000 1.0
C      1  0.3942280000000  0.4838460000000  0.4240110000000 1.0
C      1  0.4630930000000  0.5226670000000  0.3773090000000 1.0
C      1  0.5400240000000  0.4747000000000  0.3536810000000 1.0
C      1  0.6123290000000  0.5079010000000  0.4011790000000 1.0
C      1  0.6661450000000  0.5185300000000  0.5205160000000 1.0
C      1  0.6069890000000  0.4821140000000  0.5749750000000 1.0
END
