TITL C-1525613-7943-6168 -0.00614230296075619 3375 -8666.69660655467 0 0 60 (Cs) n - 1
REM
REM in /home/nfs/bkarasulu/CARBON/AIRSS/Generating-Clusters/ReaxFF-fromJPCA2015/Units_Real/Try2-Higher-symm/Only-C60
REM
REM
REM
REM
REM
REM ./C.cell (863b2abdce7293c0672fb3ba77bf323a)
REM AIRSS Version 0.9.1 bugfix July 2018 build 013d7b7c2542+ Fri, 06 Jul 2018 19:26:36 +0100
REM compiler GCC version 9.2.1 20190827 (Red Hat 9.2.1-1)
REM options -cpp -mtune=generic -march=x86-64 -g -O0 -fpre-include=/usr/include/finclude/math-vector-fortran.h
REM seed -817437858 880326192 1062702293 -1265030275 -895248375 761473246 851610537 -811187722 972062206 -971626331 1478127035 1658176504 743186962 -964882607 1323170758 -847042559 1172597593 1667730716 -1926533306 1682924290 -1513265625 -1650012492 701935343 214844261 -1197070527 -203288806 -512429628 -746966535 19053167 1859870911 -1421704469 -1390831668 775137547
REM
CELL 1.54180   15.00000   15.00000   15.00000   90.00000   90.00000   90.00000
LATT -1
SFAC C  
C      1  0.3920700000000  0.4520620000000  0.6321240000000 1.0
C      1  0.3430200000000  0.4515940000000  0.4367570000000 1.0
C      1  0.5120510000000  0.4515870000000  0.3340620000000 1.0
C      1  0.6625640000000  0.4514850000000  0.4619320000000 1.0
C      1  0.5883540000000  0.4514670000000  0.6441780000000 1.0
C      1  0.3920700000000  0.5479400000000  0.6321230000000 1.0
C      1  0.3430190000000  0.5483990000000  0.4367960000000 1.0
C      1  0.5120400000000  0.5484440000000  0.3341270000000 1.0
C      1  0.6625790000000  0.5484310000000  0.4619750000000 1.0
C      1  0.5884090000000  0.5485350000000  0.6442130000000 1.0
C      1  0.6841800000000  0.4509350000000  0.6232540000000 1.0
C      1  0.4417520000000  0.4506110000000  0.7161740000000 1.0
C      1  0.2769710000000  0.4504570000000  0.5097860000000 1.0
C      1  0.4223840000000  0.4510440000000  0.2943090000000 1.0
C      1  0.6723990000000  0.4510130000000  0.3643570000000 1.0
C      1  0.6842420000000  0.5489230000000  0.6233100000000 1.0
C      1  0.4417370000000  0.5493950000000  0.7161820000000 1.0
C      1  0.2769720000000  0.5495530000000  0.5098100000000 1.0
C      1  0.4223710000000  0.5490220000000  0.2943430000000 1.0
C      1  0.6723830000000  0.5490010000000  0.3643930000000 1.0
C      1  0.5798830000000  0.6911010000000  0.3405360000000 1.0
C      1  0.6765550000000  0.6905750000000  0.5272570000000 1.0
C      1  0.5300450000000  0.6906410000000  0.6767530000000 1.0
C      1  0.3390080000000  0.7010450000000  0.5815920000000 1.0
C      1  0.3723490000000  0.6910070000000  0.3747570000000 1.0
C      1  0.5799600000000  0.3089530000000  0.3405490000000 1.0
C      1  0.6766390000000  0.3092110000000  0.5273320000000 1.0
C      1  0.5301200000000  0.3093960000000  0.6767790000000 1.0
C      1  0.3390740000000  0.2989810000000  0.5816390000000 1.0
C      1  0.3724260000000  0.3090830000000  0.3747830000000 1.0
C      1  0.4371990000000  0.7184950000000  0.4377800000000 1.0
C      1  0.5391740000000  0.7181420000000  0.4216190000000 1.0
C      1  0.5868270000000  0.7177610000000  0.5140460000000 1.0
C      1  0.5144550000000  0.7177570000000  0.5875490000000 1.0
C      1  0.4207990000000  0.7192850000000  0.5408800000000 1.0
C      1  0.4372640000000  0.2816220000000  0.4377940000000 1.0
C      1  0.5392460000000  0.2818930000000  0.4216150000000 1.0
C      1  0.5868920000000  0.2821140000000  0.5140960000000 1.0
C      1  0.5145260000000  0.2821870000000  0.5876210000000 1.0
C      1  0.4208660000000  0.2807670000000  0.5409240000000 1.0
C      1  0.6185970000000  0.5448140000000  0.2061130000000 1.0
C      1  0.8175290000000  0.5446420000000  0.5217540000000 1.0
C      1  0.5809490000000  0.5447590000000  0.8090920000000 1.0
C      1  0.2355590000000  0.5436400000000  0.6398630000000 1.0
C      1  0.2546750000000  0.5447400000000  0.2971190000000 1.0
C      1  0.6186400000000  0.4552430000000  0.2061040000000 1.0
C      1  0.8174750000000  0.4552180000000  0.5217960000000 1.0
C      1  0.5809760000000  0.4552790000000  0.8090420000000 1.0
C      1  0.2355900000000  0.4563760000000  0.6398510000000 1.0
C      1  0.2547080000000  0.4552950000000  0.2971460000000 1.0
C      1  0.7170070000000  0.4046210000000  0.5370530000000 1.0
C      1  0.5343030000000  0.4044970000000  0.7190400000000 1.0
C      1  0.3034540000000  0.3990500000000  0.5994970000000 1.0
C      1  0.3447940000000  0.4048760000000  0.3443020000000 1.0
C      1  0.6006510000000  0.4050230000000  0.3060670000000 1.0
C      1  0.7170490000000  0.5952620000000  0.5370930000000 1.0
C      1  0.5342890000000  0.5955580000000  0.7189910000000 1.0
C      1  0.3034510000000  0.6009650000000  0.5995080000000 1.0
C      1  0.3447950000000  0.5952030000000  0.3443430000000 1.0
C      1  0.6006310000000  0.5950270000000  0.3061210000000 1.0
END
