TITL C-1525613-7943-7081 0.0725562783270118 3375 -8219.70654036287 0 0 60 (Ci) n - 1
REM
REM in /home/nfs/bkarasulu/CARBON/AIRSS/Generating-Clusters/ReaxFF-fromJPCA2015/Units_Real/Try2-Higher-symm/Only-C60
REM
REM
REM
REM
REM
REM ./C.cell (863b2abdce7293c0672fb3ba77bf323a)
REM AIRSS Version 0.9.1 bugfix July 2018 build 013d7b7c2542+ Fri, 06 Jul 2018 19:26:36 +0100
REM compiler GCC version 9.2.1 20190827 (Red Hat 9.2.1-1)
REM options -cpp -mtune=generic -march=x86-64 -g -O0 -fpre-include=/usr/include/finclude/math-vector-fortran.h
REM seed -1807081304 1252398849 71845112 -790994020 1698371592 -790670160 -1860343471 1603089625 -929461232 455483641 1940254432 963552611 -653150516 -1486352598 -1571965011 1201087232 -1524987365 1773248878 -573100778 -533146416 1481447728 -833662309 924483583 1522132998 -341623095 -1639226547 348254749 1506506426 1910826378 -1448275487 -1446286734 1361495920 -257463672
REM
CELL 1.54180   15.00000   15.00000   15.00000   90.00000   90.00000   90.00000
LATT -1
SFAC C  
C      1  0.5841880000000  0.5244510000000  0.4065710000000 1.0
C      1  0.4311270000000  0.5306140000000  0.4403080000000 1.0
C      1  0.5810150000000  0.6181930000000  0.4451210000000 1.0
C      1  0.4077730000000  0.5393650000000  0.5270940000000 1.0
C      1  0.5681550000000  0.5516710000000  0.6117340000000 1.0
C      1  0.4157480000000  0.4754410000000  0.5933110000000 1.0
C      1  0.5689380000000  0.4694070000000  0.5596280000000 1.0
C      1  0.4185340000000  0.3816520000000  0.5548020000000 1.0
C      1  0.5923050000000  0.4606260000000  0.4728150000000 1.0
C      1  0.4320380000000  0.4483450000000  0.3882100000000 1.0
C      1  0.6460440000000  0.3280880000000  0.5874010000000 1.0
C      1  0.3395440000000  0.2942190000000  0.4510160000000 1.0
C      1  0.6564340000000  0.3696970000000  0.3640070000000 1.0
C      1  0.3151380000000  0.4745330000000  0.3211120000000 1.0
C      1  0.6598790000000  0.5909180000000  0.2994090000000 1.0
C      1  0.3539230000000  0.6719480000000  0.4125670000000 1.0
C      1  0.6605220000000  0.7058200000000  0.5491790000000 1.0
C      1  0.3435750000000  0.6303260000000  0.6360090000000 1.0
C      1  0.6848840000000  0.5254100000000  0.6789720000000 1.0
C      1  0.3401740000000  0.4091100000000  0.7006210000000 1.0
C      1  0.3835150000000  0.5926120000000  0.3832390000000 1.0
C      1  0.6710380000000  0.6610840000000  0.4583800000000 1.0
C      1  0.3497970000000  0.6088890000000  0.5506280000000 1.0
C      1  0.6605920000000  0.5708200000000  0.6186930000000 1.0
C      1  0.3332930000000  0.4785420000000  0.6447490000000 1.0
C      1  0.6164190000000  0.4073840000000  0.6167690000000 1.0
C      1  0.3285190000000  0.3388930000000  0.5418700000000 1.0
C      1  0.6503800000000  0.3911090000000  0.4493700000000 1.0
C      1  0.3395080000000  0.4292100000000  0.3813640000000 1.0
C      1  0.6667690000000  0.5214350000000  0.3552680000000 1.0
C      1  0.4930320000000  0.7257050000000  0.5117580000000 1.0
C      1  0.5185540000000  0.6404100000000  0.6179420000000 1.0
C      1  0.4610310000000  0.5296520000000  0.6891070000000 1.0
C      1  0.5130590000000  0.4093420000000  0.7208030000000 1.0
C      1  0.4680960000000  0.3225290000000  0.6152470000000 1.0
C      1  0.5072200000000  0.2743360000000  0.4881540000000 1.0
C      1  0.4815350000000  0.3595940000000  0.3819980000000 1.0
C      1  0.5389290000000  0.4703030000000  0.3107400000000 1.0
C      1  0.4868880000000  0.5907680000000  0.2792090000000 1.0
C      1  0.5316830000000  0.6772780000000  0.3845800000000 1.0
C      1  0.5525070000000  0.4959620000000  0.7082150000000 1.0
C      1  0.4365170000000  0.3576610000000  0.7025320000000 1.0
C      1  0.5525240000000  0.2825930000000  0.5703950000000 1.0
C      1  0.4357370000000  0.2821810000000  0.4237360000000 1.0
C      1  0.5600970000000  0.3770300000000  0.3266700000000 1.0
C      1  0.4474900000000  0.5041000000000  0.2917620000000 1.0
C      1  0.5635780000000  0.6423080000000  0.2972910000000 1.0
C      1  0.4474390000000  0.7175150000000  0.4296740000000 1.0
C      1  0.5644460000000  0.7179070000000  0.5763490000000 1.0
C      1  0.4399850000000  0.6229730000000  0.6732570000000 1.0
C      1  0.3166360000000  0.3428140000000  0.6352050000000 1.0
C      1  0.6569520000000  0.3268120000000  0.4939980000000 1.0
C      1  0.3208970000000  0.3527070000000  0.3820660000000 1.0
C      1  0.6737220000000  0.4538420000000  0.3172780000000 1.0
C      1  0.3306410000000  0.5633160000000  0.3329990000000 1.0
C      1  0.6831470000000  0.6571610000000  0.3650380000000 1.0
C      1  0.3429890000000  0.6732140000000  0.5059830000000 1.0
C      1  0.6792570000000  0.6473010000000  0.6180950000000 1.0
C      1  0.3262960000000  0.5461910000000  0.6826620000000 1.0
C      1  0.6693490000000  0.4366840000000  0.6670400000000 1.0
END
