TITL C-1525613-7943-3946 -0.182230440463646 3375 -9303.65960945941 0 0 60 (C2) n - 1
REM
REM in /home/nfs/bkarasulu/CARBON/AIRSS/Generating-Clusters/ReaxFF-fromJPCA2015/Units_Real/Try2-Higher-symm/Only-C60
REM
REM
REM
REM
REM
REM ./C.cell (863b2abdce7293c0672fb3ba77bf323a)
REM AIRSS Version 0.9.1 bugfix July 2018 build 013d7b7c2542+ Fri, 06 Jul 2018 19:26:36 +0100
REM compiler GCC version 9.2.1 20190827 (Red Hat 9.2.1-1)
REM options -cpp -mtune=generic -march=x86-64 -g -O0 -fpre-include=/usr/include/finclude/math-vector-fortran.h
REM seed 1727157583 -1103084324 -10355339 -453364484 -443793550 1639731218 -154184258 1095116722 -463132887 -1573415860 2004128323 1982320781 -1161952599 1530992758 170988485 -993643077 -325497935 -1889355320 392356439 -627162169 577558826 531774929 -790915544 -494789111 1777171784 500102899 -820733437 883886983 -435179819 1531642251 224736171 -1674961384 1795021458
REM
CELL 1.54180   15.00000   15.00000   15.00000   90.00000   90.00000   90.00000
LATT -1
SFAC C  
C      1  0.3072380000000  0.3980810000000  0.4873340000000 1.0
C      1  0.4521930000000  0.3988550000000  0.3178810000000 1.0
C      1  0.6573710000000  0.4013160000000  0.3994360000000 1.0
C      1  0.6500950000000  0.3970600000000  0.6219590000000 1.0
C      1  0.4266630000000  0.3941320000000  0.6808110000000 1.0
C      1  0.6927610000000  0.6019190000000  0.4873330000000 1.0
C      1  0.5478060000000  0.6011450000000  0.3178810000000 1.0
C      1  0.3426300000000  0.5986830000000  0.3994360000000 1.0
C      1  0.3499050000000  0.6029410000000  0.6219590000000 1.0
C      1  0.5733380000000  0.6058690000000  0.6808110000000 1.0
C      1  0.5729920000000  0.7004760000000  0.4592150000000 1.0
C      1  0.5610650000000  0.7014440000000  0.5564450000000 1.0
C      1  0.4648770000000  0.7008810000000  0.5755620000000 1.0
C      1  0.4176090000000  0.7011740000000  0.4896570000000 1.0
C      1  0.4840950000000  0.7007700000000  0.4181410000000 1.0
C      1  0.4270090000000  0.2995240000000  0.4592160000000 1.0
C      1  0.4389350000000  0.2985560000000  0.5564450000000 1.0
C      1  0.5351230000000  0.2991200000000  0.5755620000000 1.0
C      1  0.5823910000000  0.2988270000000  0.4896570000000 1.0
C      1  0.5159040000000  0.2992300000000  0.4181410000000 1.0
C      1  0.3176440000000  0.4544580000000  0.2830630000000 1.0
C      1  0.6493500000000  0.4558590000000  0.2593880000000 1.0
C      1  0.7750290000000  0.4515970000000  0.5669400000000 1.0
C      1  0.5202740000000  0.4553100000000  0.7829380000000 1.0
C      1  0.2396280000000  0.4545240000000  0.5966710000000 1.0
C      1  0.6823560000000  0.5455430000000  0.2830630000000 1.0
C      1  0.3506500000000  0.5441410000000  0.2593880000000 1.0
C      1  0.2249690000000  0.5484040000000  0.5669390000000 1.0
C      1  0.4797260000000  0.5446900000000  0.7829380000000 1.0
C      1  0.7603720000000  0.5454750000000  0.5966700000000 1.0
C      1  0.6409490000000  0.5201050000000  0.4971320000000 1.0
C      1  0.5465470000000  0.5203500000000  0.6405070000000 1.0
C      1  0.3847250000000  0.5188520000000  0.5835350000000 1.0
C      1  0.3859050000000  0.5178990000000  0.4183520000000 1.0
C      1  0.5440880000000  0.5191170000000  0.3679880000000 1.0
C      1  0.3590510000000  0.4798950000000  0.4971320000000 1.0
C      1  0.4534530000000  0.4796490000000  0.6405070000000 1.0
C      1  0.6152750000000  0.4811480000000  0.5835340000000 1.0
C      1  0.6140950000000  0.4821010000000  0.4183520000000 1.0
C      1  0.4559120000000  0.4808840000000  0.3679880000000 1.0
C      1  0.2915470000000  0.3716480000000  0.5802970000000 1.0
C      1  0.3581190000000  0.3751390000000  0.3273960000000 1.0
C      1  0.6198470000000  0.3774320000000  0.3130330000000 1.0
C      1  0.7176300000000  0.3719640000000  0.5550600000000 1.0
C      1  0.5132330000000  0.3755260000000  0.7231200000000 1.0
C      1  0.7084530000000  0.6283530000000  0.5802980000000 1.0
C      1  0.6418810000000  0.6248610000000  0.3273960000000 1.0
C      1  0.3801530000000  0.6225680000000  0.3130330000000 1.0
C      1  0.2823710000000  0.6280350000000  0.5550610000000 1.0
C      1  0.4867660000000  0.6244740000000  0.7231210000000 1.0
C      1  0.4696460000000  0.6582880000000  0.3317570000000 1.0
C      1  0.6508650000000  0.6590710000000  0.4187180000000 1.0
C      1  0.6246020000000  0.6619270000000  0.6182790000000 1.0
C      1  0.4254950000000  0.6584680000000  0.6534940000000 1.0
C      1  0.3314460000000  0.6585900000000  0.4758920000000 1.0
C      1  0.5303540000000  0.3417120000000  0.3317570000000 1.0
C      1  0.3491340000000  0.3409290000000  0.4187180000000 1.0
C      1  0.3753980000000  0.3380730000000  0.6182790000000 1.0
C      1  0.5745040000000  0.3415320000000  0.6534940000000 1.0
C      1  0.6685540000000  0.3414100000000  0.4758910000000 1.0
END
