TITL C-1525613-7943-3845 -0.0630138139098652 3375 -9208.10929562908 0 0 60 (C2) n - 1
REM
REM in /home/nfs/bkarasulu/CARBON/AIRSS/Generating-Clusters/ReaxFF-fromJPCA2015/Units_Real/Try2-Higher-symm/Only-C60
REM
REM
REM
REM
REM
REM ./C.cell (863b2abdce7293c0672fb3ba77bf323a)
REM AIRSS Version 0.9.1 bugfix July 2018 build 013d7b7c2542+ Fri, 06 Jul 2018 19:26:36 +0100
REM compiler GCC version 9.2.1 20190827 (Red Hat 9.2.1-1)
REM options -cpp -mtune=generic -march=x86-64 -g -O0 -fpre-include=/usr/include/finclude/math-vector-fortran.h
REM seed 1847534761 -2137792588 -2090396312 784412851 -485187340 -1661507662 -938468533 -714758776 814587 -137664120 -922288918 262821550 1909926173 -1636232698 -1838971678 -1087726691 1805436556 -1214025489 358340639 -891962331 815479287 1974514309 -294348360 -1885071765 -660274232 -2142234801 -1571607862 1555626484 -1068999077 -414198383 510626709 -1142720325 -1943671911
REM
CELL 1.54180   15.00000   15.00000   15.00000   90.00000   90.00000   90.00000
LATT -1
SFAC C  
C      1  0.6802310000000  0.6746240000000  0.6242000000000 1.0
C      1  0.7340550000000  0.5907920000000  0.6250750000000 1.0
C      1  0.6787530000000  0.3811450000000  0.6109320000000 1.0
C      1  0.6292710000000  0.2975730000000  0.5957340000000 1.0
C      1  0.5325370000000  0.2873770000000  0.6101510000000 1.0
C      1  0.3198570000000  0.3255960000000  0.6239270000000 1.0
C      1  0.2661130000000  0.4093820000000  0.6247180000000 1.0
C      1  0.3213780000000  0.6189280000000  0.6107380000000 1.0
C      1  0.3706560000000  0.7026040000000  0.5957730000000 1.0
C      1  0.4673680000000  0.7128380000000  0.6103770000000 1.0
C      1  0.5125070000000  0.6482410000000  0.6733040000000 1.0
C      1  0.6122710000000  0.6298710000000  0.6808180000000 1.0
C      1  0.6641910000000  0.5480160000000  0.6807450000000 1.0
C      1  0.6385860000000  0.4497310000000  0.6728250000000 1.0
C      1  0.5578100000000  0.4090560000000  0.6803380000000 1.0
C      1  0.4875880000000  0.3520150000000  0.6732090000000 1.0
C      1  0.3878080000000  0.3703700000000  0.6805920000000 1.0
C      1  0.3359600000000  0.4522170000000  0.6803990000000 1.0
C      1  0.3614670000000  0.5505510000000  0.6728600000000 1.0
C      1  0.4422400000000  0.5912850000000  0.6804310000000 1.0
C      1  0.6927060000000  0.6210530000000  0.3827560000000 1.0
C      1  0.7330270000000  0.4872480000000  0.3969140000000 1.0
C      1  0.6939990000000  0.3467440000000  0.3712260000000 1.0
C      1  0.5571590000000  0.2787200000000  0.3785160000000 1.0
C      1  0.4165750000000  0.2768100000000  0.3930810000000 1.0
C      1  0.3073080000000  0.3788410000000  0.3823410000000 1.0
C      1  0.2648120000000  0.5121710000000  0.3955630000000 1.0
C      1  0.3058480000000  0.6536930000000  0.3709380000000 1.0
C      1  0.4427920000000  0.7205260000000  0.3789190000000 1.0
C      1  0.5836760000000  0.7229320000000  0.3931620000000 1.0
C      1  0.5029980000000  0.7535230000000  0.5301450000000 1.0
C      1  0.6700960000000  0.7013260000000  0.5308110000000 1.0
C      1  0.7549410000000  0.5699120000000  0.5319340000000 1.0
C      1  0.7326480000000  0.3955560000000  0.5315600000000 1.0
C      1  0.6531940000000  0.2616470000000  0.5091190000000 1.0
C      1  0.4969730000000  0.2465550000000  0.5299950000000 1.0
C      1  0.3298170000000  0.2986560000000  0.5306500000000 1.0
C      1  0.2452380000000  0.4300550000000  0.5315810000000 1.0
C      1  0.2676190000000  0.6042670000000  0.5312210000000 1.0
C      1  0.3466770000000  0.7383610000000  0.5091750000000 1.0
C      1  0.2387270000000  0.5184960000000  0.4921820000000 1.0
C      1  0.2849030000000  0.6762740000000  0.4666610000000 1.0
C      1  0.4303180000000  0.7634580000000  0.4627320000000 1.0
C      1  0.5922710000000  0.7443710000000  0.4911040000000 1.0
C      1  0.7222600000000  0.6415960000000  0.4715090000000 1.0
C      1  0.7616280000000  0.4813070000000  0.4924760000000 1.0
C      1  0.7151130000000  0.3237100000000  0.4668740000000 1.0
C      1  0.5696570000000  0.2362700000000  0.4625670000000 1.0
C      1  0.4075580000000  0.2555090000000  0.4910170000000 1.0
C      1  0.2776480000000  0.3582200000000  0.4712420000000 1.0
C      1  0.4550150000000  0.6566470000000  0.3139680000000 1.0
C      1  0.5567790000000  0.6519170000000  0.3306850000000 1.0
C      1  0.6365000000000  0.5902500000000  0.3156620000000 1.0
C      1  0.6616240000000  0.4930320000000  0.3302910000000 1.0
C      1  0.6309130000000  0.3962050000000  0.3161630000000 1.0
C      1  0.5451890000000  0.3430560000000  0.3138360000000 1.0
C      1  0.4436060000000  0.3483450000000  0.3311220000000 1.0
C      1  0.3638540000000  0.4098630000000  0.3157080000000 1.0
C      1  0.3385700000000  0.5068350000000  0.3309230000000 1.0
C      1  0.3691180000000  0.6038310000000  0.3165260000000 1.0
END
