TITL C-1525613-7943-3914 0.0734935823949592 3375 -9167.57481480033 0 0 60 (C1) n - 1
REM
REM in /home/nfs/bkarasulu/CARBON/AIRSS/Generating-Clusters/ReaxFF-fromJPCA2015/Units_Real/Try2-Higher-symm/Only-C60
REM
REM
REM
REM
REM
REM ./C.cell (863b2abdce7293c0672fb3ba77bf323a)
REM AIRSS Version 0.9.1 bugfix July 2018 build 013d7b7c2542+ Fri, 06 Jul 2018 19:26:36 +0100
REM compiler GCC version 9.2.1 20190827 (Red Hat 9.2.1-1)
REM options -cpp -mtune=generic -march=x86-64 -g -O0 -fpre-include=/usr/include/finclude/math-vector-fortran.h
REM seed -1991256935 2028660422 -1997604046 650937037 -738438935 1710934176 90099178 392242528 732789737 -218549938 893162901 -1553265347 -979636423 -1207863528 -2002401681 -259314881 -444506580 1040157772 -386088057 -112605434 -454939131 -2056894306 -1731080680 630599517 -880400356 -5597366 1419220240 1988410357 -455923769 1782417749 739818857 -1450242958 -1555149030
REM
CELL 1.54180   15.00000   15.00000   15.00000   90.00000   90.00000   90.00000
LATT -1
SFAC C  
C      1  0.3728730000000  0.6956940000000  0.6125370000000 1.0
C      1  0.3699030000000  0.6685380000000  0.3497740000000 1.0
C      1  0.3774080000000  0.4082950000000  0.2958120000000 1.0
C      1  0.3715700000000  0.2760660000000  0.5228400000000 1.0
C      1  0.3710270000000  0.4541950000000  0.7219390000000 1.0
C      1  0.3773990000000  0.3085120000000  0.6101870000000 1.0
C      1  0.3724750000000  0.3308440000000  0.3479750000000 1.0
C      1  0.3726200000000  0.5919360000000  0.2952090000000 1.0
C      1  0.3754760000000  0.7240370000000  0.5239360000000 1.0
C      1  0.3728830000000  0.5475780000000  0.7214040000000 1.0
C      1  0.4514520000000  0.5485690000000  0.2676540000000 1.0
C      1  0.4498250000000  0.2913960000000  0.3813680000000 1.0
C      1  0.4569890000000  0.3274600000000  0.6584100000000 1.0
C      1  0.4528690000000  0.5986290000000  0.7156520000000 1.0
C      1  0.4544680000000  0.7350580000000  0.4746250000000 1.0
C      1  0.4574760000000  0.4538680000000  0.2694370000000 1.0
C      1  0.4484660000000  0.7111520000000  0.3835270000000 1.0
C      1  0.4521580000000  0.6746480000000  0.6579910000000 1.0
C      1  0.4516430000000  0.4035440000000  0.7162220000000 1.0
C      1  0.4489090000000  0.2621760000000  0.4719770000000 1.0
C      1  0.3096600000000  0.4514540000000  0.3505620000000 1.0
C      1  0.3054380000000  0.3423980000000  0.4991290000000 1.0
C      1  0.3043870000000  0.4524220000000  0.6512200000000 1.0
C      1  0.3073470000000  0.6288390000000  0.5938800000000 1.0
C      1  0.3042390000000  0.6283320000000  0.4076870000000 1.0
C      1  0.3058050000000  0.5476290000000  0.3503780000000 1.0
C      1  0.3075600000000  0.6578120000000  0.4999630000000 1.0
C      1  0.3058870000000  0.5515570000000  0.6513670000000 1.0
C      1  0.3119300000000  0.3774530000000  0.5911880000000 1.0
C      1  0.3058890000000  0.3701720000000  0.4063610000000 1.0
C      1  0.5912630000000  0.3669370000000  0.4088760000000 1.0
C      1  0.6141420000000  0.3654060000000  0.6104520000000 1.0
C      1  0.6080450000000  0.5460120000000  0.6530960000000 1.0
C      1  0.6097620000000  0.6577600000000  0.4971780000000 1.0
C      1  0.5876200000000  0.5496750000000  0.3457380000000 1.0
C      1  0.5882310000000  0.6248780000000  0.4051520000000 1.0
C      1  0.5849760000000  0.6151410000000  0.5876670000000 1.0
C      1  0.5908490000000  0.4484020000000  0.6509390000000 1.0
C      1  0.5898750000000  0.3381770000000  0.4948410000000 1.0
C      1  0.6160840000000  0.4593690000000  0.3354220000000 1.0
C      1  0.7399630000000  0.6112890000000  0.5731140000000 1.0
C      1  0.7484490000000  0.6048160000000  0.4376190000000 1.0
C      1  0.7170660000000  0.4540170000000  0.3523450000000 1.0
C      1  0.7436590000000  0.3759260000000  0.5085970000000 1.0
C      1  0.7404330000000  0.4511580000000  0.6219290000000 1.0
C      1  0.7157230000000  0.3652430000000  0.5973730000000 1.0
C      1  0.7444040000000  0.4050080000000  0.4271160000000 1.0
C      1  0.7486140000000  0.5344020000000  0.3874370000000 1.0
C      1  0.7163030000000  0.6632590000000  0.5016390000000 1.0
C      1  0.7426740000000  0.5389000000000  0.6232450000000 1.0
C      1  0.5290400000000  0.6727670000000  0.3440590000000 1.0
C      1  0.5426620000000  0.4102780000000  0.2867780000000 1.0
C      1  0.5291260000000  0.2730500000000  0.5260910000000 1.0
C      1  0.5316790000000  0.4564110000000  0.7209420000000 1.0
C      1  0.5297200000000  0.6869670000000  0.6061000000000 1.0
C      1  0.5307640000000  0.3323770000000  0.3441320000000 1.0
C      1  0.5279250000000  0.5934820000000  0.2881510000000 1.0
C      1  0.5373150000000  0.7267980000000  0.5215410000000 1.0
C      1  0.5371090000000  0.5509890000000  0.7236490000000 1.0
C      1  0.5404960000000  0.3008390000000  0.6185710000000 1.0
END
