TITL C-1525613-7943-4611 0.000418908060879933 3375 -8684.52932498246 0 0 60 (Cs) n - 1
REM
REM in /home/nfs/bkarasulu/CARBON/AIRSS/Generating-Clusters/ReaxFF-fromJPCA2015/Units_Real/Try2-Higher-symm/Only-C60
REM
REM
REM
REM
REM
REM ./C.cell (863b2abdce7293c0672fb3ba77bf323a)
REM AIRSS Version 0.9.1 bugfix July 2018 build 013d7b7c2542+ Fri, 06 Jul 2018 19:26:36 +0100
REM compiler GCC version 9.2.1 20190827 (Red Hat 9.2.1-1)
REM options -cpp -mtune=generic -march=x86-64 -g -O0 -fpre-include=/usr/include/finclude/math-vector-fortran.h
REM seed 1967699432 1615817198 1635810509 -1189440106 402653224 -1881608588 532910668 330029541 -72861395 835693092 -833436623 410426014 457915731 -1818015460 267379891 883184772 1990204010 -758885975 2059372339 -1907811935 1027514243 51547146 -914804197 -547329392 25353556 -332547644 -279387116 -1671945689 -447446389 -1188532181 1890389009 1244479770 474149573
REM
CELL 1.54180   15.00000   15.00000   15.00000   90.00000   90.00000   90.00000
LATT -1
SFAC C  
C      1  0.5520020000000  0.5355950000000  0.4218670000000 1.0
C      1  0.5520340000000  0.4370300000000  0.4421910000000 1.0
C      1  0.5518560000000  0.4256820000000  0.5423880000000 1.0
C      1  0.5518520000000  0.5171370000000  0.5840840000000 1.0
C      1  0.5520320000000  0.5851900000000  0.5096400000000 1.0
C      1  0.4479980000000  0.5355950000000  0.4218670000000 1.0
C      1  0.4479660000000  0.4370300000000  0.4421910000000 1.0
C      1  0.4481440000000  0.4256820000000  0.5423880000000 1.0
C      1  0.4481480000000  0.5171370000000  0.5840840000000 1.0
C      1  0.4479680000000  0.5851900000000  0.5096400000000 1.0
C      1  0.5501780000000  0.2798470000000  0.4326040000000 1.0
C      1  0.5502110000000  0.3674010000000  0.6885470000000 1.0
C      1  0.5498980000000  0.6384330000000  0.6834170000000 1.0
C      1  0.5502130000000  0.7183240000000  0.4253680000000 1.0
C      1  0.5498930000000  0.4959250000000  0.2703340000000 1.0
C      1  0.4498220000000  0.2798470000000  0.4326040000000 1.0
C      1  0.4497890000000  0.3674010000000  0.6885470000000 1.0
C      1  0.4501020000000  0.6384330000000  0.6834170000000 1.0
C      1  0.4497870000000  0.7183240000000  0.4253680000000 1.0
C      1  0.4501070000000  0.4959250000000  0.2703340000000 1.0
C      1  0.3365760000000  0.4400310000000  0.6473090000000 1.0
C      1  0.3362910000000  0.6219230000000  0.6034420000000 1.0
C      1  0.3365110000000  0.6353610000000  0.4160230000000 1.0
C      1  0.3363820000000  0.4623230000000  0.3449240000000 1.0
C      1  0.3361730000000  0.3411610000000  0.4883620000000 1.0
C      1  0.6634240000000  0.4400310000000  0.6473090000000 1.0
C      1  0.6637090000000  0.6219230000000  0.6034420000000 1.0
C      1  0.6634890000000  0.6353610000000  0.4160230000000 1.0
C      1  0.6636180000000  0.4623230000000  0.3449240000000 1.0
C      1  0.6638270000000  0.3411610000000  0.4883620000000 1.0
C      1  0.2809400000000  0.5761150000000  0.4584800000000 1.0
C      1  0.2810420000000  0.4841720000000  0.4148480000000 1.0
C      1  0.2808450000000  0.4142610000000  0.4888920000000 1.0
C      1  0.2809390000000  0.4631220000000  0.5781920000000 1.0
C      1  0.2810680000000  0.5631880000000  0.5594810000000 1.0
C      1  0.7190600000000  0.5761150000000  0.4584800000000 1.0
C      1  0.7189580000000  0.4841720000000  0.4148480000000 1.0
C      1  0.7191550000000  0.4142610000000  0.4888920000000 1.0
C      1  0.7190610000000  0.4631220000000  0.5781920000000 1.0
C      1  0.7189320000000  0.5631880000000  0.5594810000000 1.0
C      1  0.6023700000000  0.2809950000000  0.5148010000000 1.0
C      1  0.6017690000000  0.4463720000000  0.7123680000000 1.0
C      1  0.6020670000000  0.6863880000000  0.6168240000000 1.0
C      1  0.6017690000000  0.6683920000000  0.3596990000000 1.0
C      1  0.6020280000000  0.4180160000000  0.2962010000000 1.0
C      1  0.3976300000000  0.2809950000000  0.5148010000000 1.0
C      1  0.3982310000000  0.4463720000000  0.7123680000000 1.0
C      1  0.3979330000000  0.6863880000000  0.6168240000000 1.0
C      1  0.3982310000000  0.6683920000000  0.3596990000000 1.0
C      1  0.3979720000000  0.4180160000000  0.2962010000000 1.0
C      1  0.5523980000000  0.3553190000000  0.3660080000000 1.0
C      1  0.5523740000000  0.3277160000000  0.5960330000000 1.0
C      1  0.5520000000000  0.5375310000000  0.6890410000000 1.0
C      1  0.5523810000000  0.6961730000000  0.5235630000000 1.0
C      1  0.5520110000000  0.5808810000000  0.3250700000000 1.0
C      1  0.4476020000000  0.3553190000000  0.3660080000000 1.0
C      1  0.4476260000000  0.3277160000000  0.5960330000000 1.0
C      1  0.4480000000000  0.5375310000000  0.6890410000000 1.0
C      1  0.4476190000000  0.6961730000000  0.5235630000000 1.0
C      1  0.4479890000000  0.5808810000000  0.3250700000000 1.0
END
