TITL C-1525613-7943-736 -0.0051000770823734 3375 -8633.44941039696 0 0 60 (C5) n - 1
REM
REM in /home/nfs/bkarasulu/CARBON/AIRSS/Generating-Clusters/ReaxFF-fromJPCA2015/Units_Real/Try2-Higher-symm/Only-C60
REM
REM
REM
REM
REM
REM ./C.cell (863b2abdce7293c0672fb3ba77bf323a)
REM AIRSS Version 0.9.1 bugfix July 2018 build 013d7b7c2542+ Fri, 06 Jul 2018 19:26:36 +0100
REM compiler GCC version 9.2.1 20190827 (Red Hat 9.2.1-1)
REM options -cpp -mtune=generic -march=x86-64 -g -O0 -fpre-include=/usr/include/finclude/math-vector-fortran.h
REM seed 508926259 -2068312376 197632488 184674426 -1049069498 1745319916 1686175868 1044812271 1662744812 1421628592 1892569402 -1910122540 -561665953 1105117151 1993418366 211256060 -1166053076 1266631055 -800966472 -1783773685 567827396 -1470041263 253837518 1583285693 -378212257 -1295141241 1879577872 84465447 -96619766 -1881814936 -91097630 1939266645 -1251781515
REM
CELL 1.54180   15.00000   15.00000   15.00000   90.00000   90.00000   90.00000
LATT -1
SFAC C  
C      1  0.3288680000000  0.4525430000000  0.2816440000000 1.0
C      1  0.3283160000000  0.2766660000000  0.4769640000000 1.0
C      1  0.3291650000000  0.4091750000000  0.7041030000000 1.0
C      1  0.3284400000000  0.6670210000000  0.6495980000000 1.0
C      1  0.3287630000000  0.6937250000000  0.3871640000000 1.0
C      1  0.6711280000000  0.4525440000000  0.2816530000000 1.0
C      1  0.6716860000000  0.2766640000000  0.4769610000000 1.0
C      1  0.6708350000000  0.4091700000000  0.7041030000000 1.0
C      1  0.6715590000000  0.6670240000000  0.6495930000000 1.0
C      1  0.6712370000000  0.6937230000000  0.3871620000000 1.0
C      1  0.3979780000000  0.5924060000000  0.4925920000000 1.0
C      1  0.3992190000000  0.5216540000000  0.4116340000000 1.0
C      1  0.3983660000000  0.4213190000000  0.4538770000000 1.0
C      1  0.3979500000000  0.4298230000000  0.5584260000000 1.0
C      1  0.3993390000000  0.5357770000000  0.5839380000000 1.0
C      1  0.6020230000000  0.5923990000000  0.4925920000000 1.0
C      1  0.6007870000000  0.5216550000000  0.4116320000000 1.0
C      1  0.6016340000000  0.4213260000000  0.4538770000000 1.0
C      1  0.6020500000000  0.4298310000000  0.5584280000000 1.0
C      1  0.6006680000000  0.5357810000000  0.5839390000000 1.0
C      1  0.4506110000000  0.3815320000000  0.6373830000000 1.0
C      1  0.4506240000000  0.5961630000000  0.6551980000000 1.0
C      1  0.4504820000000  0.6773810000000  0.4569930000000 1.0
C      1  0.4506600000000  0.5139930000000  0.3185500000000 1.0
C      1  0.4505930000000  0.3311580000000  0.4317060000000 1.0
C      1  0.5493880000000  0.3815310000000  0.6373820000000 1.0
C      1  0.5493790000000  0.5961620000000  0.6551930000000 1.0
C      1  0.5495180000000  0.6773810000000  0.4569930000000 1.0
C      1  0.5493390000000  0.5139970000000  0.3185560000000 1.0
C      1  0.5494080000000  0.3311580000000  0.4317090000000 1.0
C      1  0.6917470000000  0.3998750000000  0.4273200000000 1.0
C      1  0.6923140000000  0.3991120000000  0.5719680000000 1.0
C      1  0.6926070000000  0.5376770000000  0.6180230000000 1.0
C      1  0.6923090000000  0.6248000000000  0.5007090000000 1.0
C      1  0.6927560000000  0.5391690000000  0.3826110000000 1.0
C      1  0.3082520000000  0.3998750000000  0.4273160000000 1.0
C      1  0.3076850000000  0.3991100000000  0.5719680000000 1.0
C      1  0.3073870000000  0.5376740000000  0.6180210000000 1.0
C      1  0.3076910000000  0.6247980000000  0.5007080000000 1.0
C      1  0.3072410000000  0.5391700000000  0.3826040000000 1.0
C      1  0.5955190000000  0.2556300000000  0.4514530000000 1.0
C      1  0.5948970000000  0.3779850000000  0.7157890000000 1.0
C      1  0.5955880000000  0.6691230000000  0.6828560000000 1.0
C      1  0.5952750000000  0.7261240000000  0.3955490000000 1.0
C      1  0.5952850000000  0.4706660000000  0.2534530000000 1.0
C      1  0.4044830000000  0.2556310000000  0.4514570000000 1.0
C      1  0.4051040000000  0.3779920000000  0.7157910000000 1.0
C      1  0.4044100000000  0.6691170000000  0.6828600000000 1.0
C      1  0.4047240000000  0.7261270000000  0.3955530000000 1.0
C      1  0.4047100000000  0.4706660000000  0.2534490000000 1.0
C      1  0.2730710000000  0.4551070000000  0.3593850000000 1.0
C      1  0.2725060000000  0.3512220000000  0.4988040000000 1.0
C      1  0.2729760000000  0.4529810000000  0.6402150000000 1.0
C      1  0.2726120000000  0.6193000000000  0.5882640000000 1.0
C      1  0.2727580000000  0.6208900000000  0.4138250000000 1.0
C      1  0.7269290000000  0.4551070000000  0.3593890000000 1.0
C      1  0.7274940000000  0.3512200000000  0.4988070000000 1.0
C      1  0.7270230000000  0.4529810000000  0.6402170000000 1.0
C      1  0.7273880000000  0.6193010000000  0.5882650000000 1.0
C      1  0.7272450000000  0.6208920000000  0.4138260000000 1.0
END
