TITL C-1525613-7943-5652 0.00252766860343714 3375 -9501.57688921475 0 0 60 (C2) n - 1
REM
REM in /home/nfs/bkarasulu/CARBON/AIRSS/Generating-Clusters/ReaxFF-fromJPCA2015/Units_Real/Try2-Higher-symm/Only-C60
REM
REM
REM
REM
REM
REM ./C.cell (863b2abdce7293c0672fb3ba77bf323a)
REM AIRSS Version 0.9.1 bugfix July 2018 build 013d7b7c2542+ Fri, 06 Jul 2018 19:26:36 +0100
REM compiler GCC version 9.2.1 20190827 (Red Hat 9.2.1-1)
REM options -cpp -mtune=generic -march=x86-64 -g -O0 -fpre-include=/usr/include/finclude/math-vector-fortran.h
REM seed -1078940219 -63461010 1963517082 -477521537 -1910750750 1496489291 -1684339675 708774605 115126450 775023947 902534721 395807092 2068654230 1118951671 108112542 -458470918 1626501450 1284256423 1772235016 -1180846129 -979227475 493421480 -400489452 -1310413566 808774645 -1923242858 -1799026019 -1736829109 1384583920 893368452 1977304974 -1446621794 32955622
REM
CELL 1.54180   15.00000   15.00000   15.00000   90.00000   90.00000   90.00000
LATT -1
SFAC C  
C      1  0.7598780000000  0.5740630000000  0.5707600000000 1.0
C      1  0.7431180000000  0.4130420000000  0.5346040000000 1.0
C      1  0.6349920000000  0.2787550000000  0.5472080000000 1.0
C      1  0.4839090000000  0.2388000000000  0.5545950000000 1.0
C      1  0.3268180000000  0.2997760000000  0.5658890000000 1.0
C      1  0.2401100000000  0.4259250000000  0.5707480000000 1.0
C      1  0.2568630000000  0.5869350000000  0.5345890000000 1.0
C      1  0.3650040000000  0.7212280000000  0.5471880000000 1.0
C      1  0.5161010000000  0.7611820000000  0.5545870000000 1.0
C      1  0.6731920000000  0.7002560000000  0.5658980000000 1.0
C      1  0.4127690000000  0.2841680000000  0.5974860000000 1.0
C      1  0.2965440000000  0.3690940000000  0.6196290000000 1.0
C      1  0.2628930000000  0.5158780000000  0.5999710000000 1.0
C      1  0.3213260000000  0.6414130000000  0.5817770000000 1.0
C      1  0.4402870000000  0.7309080000000  0.6065940000000 1.0
C      1  0.5872190000000  0.7157960000000  0.5974740000000 1.0
C      1  0.7034710000000  0.6309220000000  0.6196300000000 1.0
C      1  0.7370990000000  0.4841070000000  0.5999800000000 1.0
C      1  0.6786650000000  0.3585720000000  0.5818040000000 1.0
C      1  0.5596960000000  0.2691250000000  0.6066080000000 1.0
C      1  0.6403020000000  0.4400930000000  0.3189740000000 1.0
C      1  0.5718180000000  0.3693780000000  0.3269760000000 1.0
C      1  0.4784970000000  0.3474930000000  0.3325610000000 1.0
C      1  0.3872510000000  0.3848730000000  0.3402110000000 1.0
C      1  0.3431900000000  0.4695910000000  0.3516990000000 1.0
C      1  0.3597050000000  0.5599070000000  0.3189650000000 1.0
C      1  0.4281960000000  0.6306190000000  0.3269580000000 1.0
C      1  0.5215170000000  0.6524980000000  0.3325450000000 1.0
C      1  0.6127630000000  0.6151160000000  0.3402220000000 1.0
C      1  0.6568240000000  0.5304040000000  0.3517180000000 1.0
C      1  0.4607980000000  0.6510270000000  0.6584000000000 1.0
C      1  0.5572670000000  0.6440270000000  0.6524710000000 1.0
C      1  0.6335120000000  0.5851980000000  0.6642590000000 1.0
C      1  0.6549600000000  0.4913920000000  0.6537370000000 1.0
C      1  0.6169320000000  0.4046350000000  0.6435290000000 1.0
C      1  0.5391830000000  0.3490000000000  0.6584280000000 1.0
C      1  0.4427160000000  0.3559740000000  0.6524560000000 1.0
C      1  0.3664920000000  0.4148100000000  0.6642720000000 1.0
C      1  0.3450400000000  0.5086130000000  0.6537250000000 1.0
C      1  0.3830640000000  0.5953760000000  0.6435120000000 1.0
C      1  0.6012890000000  0.2680530000000  0.4570700000000 1.0
C      1  0.5089120000000  0.2467050000000  0.4618890000000 1.0
C      1  0.3056560000000  0.3224520000000  0.4739230000000 1.0
C      1  0.2546090000000  0.4037550000000  0.4776300000000 1.0
C      1  0.2593180000000  0.5650820000000  0.4404610000000 1.0
C      1  0.3987150000000  0.7319470000000  0.4570580000000 1.0
C      1  0.4910930000000  0.7533030000000  0.4618800000000 1.0
C      1  0.6943260000000  0.6775370000000  0.4739280000000 1.0
C      1  0.7453900000000  0.5962470000000  0.4776560000000 1.0
C      1  0.7406700000000  0.4349270000000  0.4404870000000 1.0
C      1  0.2743100000000  0.4746140000000  0.4174060000000 1.0
C      1  0.3023820000000  0.6141700000000  0.3740810000000 1.0
C      1  0.3666550000000  0.6816440000000  0.3814210000000 1.0
C      1  0.5481940000000  0.7221930000000  0.3946300000000 1.0
C      1  0.6351950000000  0.6877160000000  0.4001170000000 1.0
C      1  0.7257060000000  0.5253920000000  0.4174240000000 1.0
C      1  0.6976220000000  0.3858430000000  0.3741020000000 1.0
C      1  0.6333600000000  0.3183590000000  0.3814370000000 1.0
C      1  0.4518080000000  0.2778030000000  0.3946390000000 1.0
C      1  0.3648080000000  0.3122880000000  0.4001240000000 1.0
END
