TITL C-1525613-7943-4708 0.15088529156698 3375 -8310.51611342549 0 0 60 (D5) n - 1
REM
REM in /home/nfs/bkarasulu/CARBON/AIRSS/Generating-Clusters/ReaxFF-fromJPCA2015/Units_Real/Try2-Higher-symm/Only-C60
REM
REM
REM
REM
REM
REM ./C.cell (863b2abdce7293c0672fb3ba77bf323a)
REM AIRSS Version 0.9.1 bugfix July 2018 build 013d7b7c2542+ Fri, 06 Jul 2018 19:26:36 +0100
REM compiler GCC version 9.2.1 20190827 (Red Hat 9.2.1-1)
REM options -cpp -mtune=generic -march=x86-64 -g -O0 -fpre-include=/usr/include/finclude/math-vector-fortran.h
REM seed 1110635997 1751284991 474998807 1028409344 -1848210346 -948294786 228127830 1385710881 704816370 -646776923 -150540671 -543022530 -1732678310 -418512513 884158216 49422810 1207072873 -1019853478 1709025100 2066887928 305788268 643047361 889043972 1933015025 -1232828879 -650451559 -601043411 -904998644 918232639 1777935139 796192365 -809890260 -668155692
REM
CELL 1.54180   15.00000   15.00000   15.00000   90.00000   90.00000   90.00000
LATT -1
SFAC C  
C      1  0.4589420000000  0.5217410000000  0.3784830000000 1.0
C      1  0.4583900000000  0.6218390000000  0.4836200000000 1.0
C      1  0.4592230000000  0.5541420000000  0.6109760000000 1.0
C      1  0.4581520000000  0.4106830000000  0.5843690000000 1.0
C      1  0.4586520000000  0.3928830000000  0.4409760000000 1.0
C      1  0.5410770000000  0.4782920000000  0.3784630000000 1.0
C      1  0.5415760000000  0.3781720000000  0.4836910000000 1.0
C      1  0.5408050000000  0.4458810000000  0.6109810000000 1.0
C      1  0.5418870000000  0.5892970000000  0.5844500000000 1.0
C      1  0.5413200000000  0.6070950000000  0.4409630000000 1.0
C      1  0.2714820000000  0.4346870000000  0.5509290000000 1.0
C      1  0.2713230000000  0.4312000000000  0.4530360000000 1.0
C      1  0.2716800000000  0.5234190000000  0.4204720000000 1.0
C      1  0.2716280000000  0.5828250000000  0.4972990000000 1.0
C      1  0.2715690000000  0.5277990000000  0.5777250000000 1.0
C      1  0.7285200000000  0.5652990000000  0.5509180000000 1.0
C      1  0.7286770000000  0.5687990000000  0.4530410000000 1.0
C      1  0.7283200000000  0.4765840000000  0.4204710000000 1.0
C      1  0.7283710000000  0.4171640000000  0.4972990000000 1.0
C      1  0.7284320000000  0.4722090000000  0.5777210000000 1.0
C      1  0.4422470000000  0.3772730000000  0.3415190000000 1.0
C      1  0.4435800000000  0.6119130000000  0.3350590000000 1.0
C      1  0.4422990000000  0.6928140000000  0.5560270000000 1.0
C      1  0.4429440000000  0.5062560000000  0.6986720000000 1.0
C      1  0.4426890000000  0.3123790000000  0.5672410000000 1.0
C      1  0.5577610000000  0.6227220000000  0.3415180000000 1.0
C      1  0.5564260000000  0.3880780000000  0.3350750000000 1.0
C      1  0.5577190000000  0.3071440000000  0.5560650000000 1.0
C      1  0.5570500000000  0.4937350000000  0.6986770000000 1.0
C      1  0.5572970000000  0.6875490000000  0.5672480000000 1.0
C      1  0.2865720000000  0.3469460000000  0.3987840000000 1.0
C      1  0.2864250000000  0.5506880000000  0.3225040000000 1.0
C      1  0.2857370000000  0.6843330000000  0.4933950000000 1.0
C      1  0.2863360000000  0.5636630000000  0.6731020000000 1.0
C      1  0.2853490000000  0.3549980000000  0.6140860000000 1.0
C      1  0.7134260000000  0.6530550000000  0.3987830000000 1.0
C      1  0.7135810000000  0.4493070000000  0.3225010000000 1.0
C      1  0.7142660000000  0.3156710000000  0.4933980000000 1.0
C      1  0.7136710000000  0.4363380000000  0.6731070000000 1.0
C      1  0.7146530000000  0.6450050000000  0.6140930000000 1.0
C      1  0.5994790000000  0.5759880000000  0.6605900000000 1.0
C      1  0.5994980000000  0.3703760000000  0.6216590000000 1.0
C      1  0.5990510000000  0.3440710000000  0.4146050000000 1.0
C      1  0.5996560000000  0.5331880000000  0.3252680000000 1.0
C      1  0.5959480000000  0.6742900000000  0.4775240000000 1.0
C      1  0.4005630000000  0.4240230000000  0.6605560000000 1.0
C      1  0.4005120000000  0.6296320000000  0.6216340000000 1.0
C      1  0.4009000000000  0.6559590000000  0.4145710000000 1.0
C      1  0.4003260000000  0.4668120000000  0.3252580000000 1.0
C      1  0.4040410000000  0.3257080000000  0.4774940000000 1.0
C      1  0.6265530000000  0.2744700000000  0.4804950000000 1.0
C      1  0.6256340000000  0.4493680000000  0.2792120000000 1.0
C      1  0.6259660000000  0.6941210000000  0.3859050000000 1.0
C      1  0.6266020000000  0.6709060000000  0.6481680000000 1.0
C      1  0.6260460000000  0.4111180000000  0.7082780000000 1.0
C      1  0.3734110000000  0.7255900000000  0.4805150000000 1.0
C      1  0.3743730000000  0.5506350000000  0.2792190000000 1.0
C      1  0.3740150000000  0.3058540000000  0.3858860000000 1.0
C      1  0.3734170000000  0.3291400000000  0.6481570000000 1.0
C      1  0.3739570000000  0.5888730000000  0.7082680000000 1.0
END
