TITL C-1525613-7943-2935 -0.320994126424161 3375 -8144.51596736943 0 0 60 (C2) n - 1
REM
REM in /home/nfs/bkarasulu/CARBON/AIRSS/Generating-Clusters/ReaxFF-fromJPCA2015/Units_Real/Try2-Higher-symm/Only-C60
REM
REM
REM
REM
REM
REM ./C.cell (863b2abdce7293c0672fb3ba77bf323a)
REM AIRSS Version 0.9.1 bugfix July 2018 build 013d7b7c2542+ Fri, 06 Jul 2018 19:26:36 +0100
REM compiler GCC version 9.2.1 20190827 (Red Hat 9.2.1-1)
REM options -cpp -mtune=generic -march=x86-64 -g -O0 -fpre-include=/usr/include/finclude/math-vector-fortran.h
REM seed -1638539113 2018969762 2118777481 958329815 -267736344 619142 565446303 1682856165 -261806418 -1778748547 1206090466 1678331359 328703865 -1453377896 -458629960 -495454423 -348316777 1128719796 1243231160 787233969 392020501 -669263938 1255043015 1444048525 -547670108 -1282310518 -2109186946 1331570542 -2087808149 641806329 -1698773582 -2099298295 -13399699
REM
CELL 1.54180   15.00000   15.00000   15.00000   90.00000   90.00000   90.00000
LATT -1
SFAC C  
C      1  0.4894620000000  0.5104530000000  0.2204490000000 1.0
C      1  0.4972130000000  0.3423160000000  0.2671120000000 1.0
C      1  0.4938760000000  0.2466010000000  0.4049340000000 1.0
C      1  0.4932930000000  0.2360460000000  0.5715840000000 1.0
C      1  0.5006160000000  0.3295430000000  0.7149480000000 1.0
C      1  0.4898670000000  0.4895370000000  0.7795110000000 1.0
C      1  0.4970890000000  0.6578870000000  0.7332400000000 1.0
C      1  0.4940260000000  0.7530510000000  0.5951210000000 1.0
C      1  0.4934740000000  0.7656940000000  0.4275980000000 1.0
C      1  0.5003480000000  0.6704200000000  0.2849650000000 1.0
C      1  0.5180990000000  0.6260880000000  0.5698280000000 1.0
C      1  0.5219370000000  0.6401760000000  0.4830960000000 1.0
C      1  0.5152120000000  0.6057830000000  0.4009060000000 1.0
C      1  0.5193870000000  0.5249650000000  0.3577780000000 1.0
C      1  0.5178580000000  0.4380890000000  0.3690560000000 1.0
C      1  0.5180000000000  0.3736500000000  0.4305490000000 1.0
C      1  0.5216650000000  0.3583440000000  0.5172470000000 1.0
C      1  0.5153460000000  0.3941640000000  0.5989220000000 1.0
C      1  0.5193330000000  0.4750650000000  0.6419730000000 1.0
C      1  0.5177060000000  0.5618480000000  0.6310780000000 1.0
C      1  0.6513150000000  0.6004810000000  0.3737010000000 1.0
C      1  0.6512810000000  0.5060660000000  0.3402280000000 1.0
C      1  0.6489020000000  0.4096680000000  0.3688020000000 1.0
C      1  0.6480070000000  0.3485660000000  0.4462790000000 1.0
C      1  0.6509680000000  0.3437710000000  0.5450550000000 1.0
C      1  0.6507860000000  0.3999330000000  0.6261670000000 1.0
C      1  0.6511370000000  0.4941360000000  0.6598250000000 1.0
C      1  0.6486580000000  0.5903860000000  0.6313410000000 1.0
C      1  0.6478510000000  0.6514440000000  0.5536950000000 1.0
C      1  0.6511640000000  0.6571580000000  0.4547210000000 1.0
C      1  0.5748290000000  0.2947640000000  0.3973880000000 1.0
C      1  0.5734230000000  0.2761460000000  0.5377180000000 1.0
C      1  0.5774950000000  0.3410680000000  0.6626580000000 1.0
C      1  0.5764920000000  0.4697840000000  0.7238560000000 1.0
C      1  0.5749400000000  0.6032270000000  0.7015080000000 1.0
C      1  0.5748370000000  0.7048400000000  0.6025130000000 1.0
C      1  0.5724170000000  0.7232360000000  0.4624360000000 1.0
C      1  0.5774990000000  0.6586010000000  0.3372710000000 1.0
C      1  0.5767710000000  0.5299040000000  0.2761550000000 1.0
C      1  0.5752020000000  0.3968700000000  0.2987800000000 1.0
C      1  0.4081420000000  0.7231780000000  0.5752410000000 1.0
C      1  0.4115020000000  0.7272460000000  0.4373020000000 1.0
C      1  0.4073380000000  0.6493170000000  0.2997250000000 1.0
C      1  0.4073220000000  0.5099000000000  0.2678410000000 1.0
C      1  0.4052650000000  0.3573370000000  0.3005730000000 1.0
C      1  0.4080590000000  0.2767380000000  0.4252100000000 1.0
C      1  0.4106560000000  0.2728390000000  0.5629230000000 1.0
C      1  0.4078980000000  0.3504760000000  0.7001250000000 1.0
C      1  0.4073020000000  0.4901050000000  0.7320260000000 1.0
C      1  0.4053650000000  0.6424940000000  0.6991980000000 1.0
C      1  0.3554410000000  0.5801640000000  0.6385960000000 1.0
C      1  0.3523340000000  0.6472290000000  0.5662290000000 1.0
C      1  0.3523050000000  0.6587290000000  0.4642830000000 1.0
C      1  0.3567790000000  0.6086000000000  0.3798560000000 1.0
C      1  0.3498970000000  0.5173500000000  0.3420670000000 1.0
C      1  0.3555200000000  0.4197350000000  0.3612720000000 1.0
C      1  0.3522440000000  0.3527670000000  0.4336940000000 1.0
C      1  0.3519060000000  0.3416200000000  0.5357850000000 1.0
C      1  0.3568540000000  0.3916350000000  0.6203120000000 1.0
C      1  0.3500900000000  0.4827720000000  0.6577490000000 1.0
END
