TITL C-1525613-7943-5305 -0.00244499288068639 3375 -8838.33132062786 0 0 60 (Cs) n - 1
REM
REM in /home/nfs/bkarasulu/CARBON/AIRSS/Generating-Clusters/ReaxFF-fromJPCA2015/Units_Real/Try2-Higher-symm/Only-C60
REM
REM
REM
REM
REM
REM ./C.cell (863b2abdce7293c0672fb3ba77bf323a)
REM AIRSS Version 0.9.1 bugfix July 2018 build 013d7b7c2542+ Fri, 06 Jul 2018 19:26:36 +0100
REM compiler GCC version 9.2.1 20190827 (Red Hat 9.2.1-1)
REM options -cpp -mtune=generic -march=x86-64 -g -O0 -fpre-include=/usr/include/finclude/math-vector-fortran.h
REM seed -1755492514 25542177 -1913235129 1901741126 -1843750701 1138689915 -1247279390 -1612745024 1383436981 -425005597 -555635168 -310416569 -8315136 1557255957 -66882224 -2112418427 -111871595 -1314225481 -1891594137 -1182276334 -674864722 -1029486937 -1880034937 1681604905 -1265176038 149708423 -121612540 -1418675368 -1211217658 65322787 62767403 -1169196443 -119831207
REM
CELL 1.54180   15.00000   15.00000   15.00000   90.00000   90.00000   90.00000
LATT -1
SFAC C  
C      1  0.5865670000000  0.7084070000000  0.5476450000000 1.0
C      1  0.3299490000000  0.6457940000000  0.5476540000000 1.0
C      1  0.3086580000000  0.3829500000000  0.5476710000000 1.0
C      1  0.5519230000000  0.2809540000000  0.5476080000000 1.0
C      1  0.7218610000000  0.4824110000000  0.5477600000000 1.0
C      1  0.5865670000000  0.7084070000000  0.4523560000000 1.0
C      1  0.3299490000000  0.6457950000000  0.4523480000000 1.0
C      1  0.3086580000000  0.3829500000000  0.4523310000000 1.0
C      1  0.5519230000000  0.2809550000000  0.4523920000000 1.0
C      1  0.7218600000000  0.4824110000000  0.4522400000000 1.0
C      1  0.6916480000000  0.3832520000000  0.4522530000000 1.0
C      1  0.6705190000000  0.6475320000000  0.4523040000000 1.0
C      1  0.4130180000000  0.7079960000000  0.4523160000000 1.0
C      1  0.2756220000000  0.4812910000000  0.4522950000000 1.0
C      1  0.4482090000000  0.2799860000000  0.4522970000000 1.0
C      1  0.6916490000000  0.3832520000000  0.5477470000000 1.0
C      1  0.6705200000000  0.6475320000000  0.5476960000000 1.0
C      1  0.4130180000000  0.7079960000000  0.5476850000000 1.0
C      1  0.2756220000000  0.4812910000000  0.5477070000000 1.0
C      1  0.4482090000000  0.2799860000000  0.5477040000000 1.0
C      1  0.3748040000000  0.4553210000000  0.3459010000000 1.0
C      1  0.5033360000000  0.3649180000000  0.3461710000000 1.0
C      1  0.6306100000000  0.4615550000000  0.3390800000000 1.0
C      1  0.5762520000000  0.6117550000000  0.3461070000000 1.0
C      1  0.4192440000000  0.6056890000000  0.3459130000000 1.0
C      1  0.3748060000000  0.4553210000000  0.6540990000000 1.0
C      1  0.5033370000000  0.3649180000000  0.6538280000000 1.0
C      1  0.6306110000000  0.4615570000000  0.6609190000000 1.0
C      1  0.5762530000000  0.6117530000000  0.6538910000000 1.0
C      1  0.4192460000000  0.6056870000000  0.6540850000000 1.0
C      1  0.4095270000000  0.3680740000000  0.6805070000000 1.0
C      1  0.5964640000000  0.3715430000000  0.6809720000000 1.0
C      1  0.6504470000000  0.5550610000000  0.6820430000000 1.0
C      1  0.4960780000000  0.6602530000000  0.6803300000000 1.0
C      1  0.3473970000000  0.5453690000000  0.6804380000000 1.0
C      1  0.4095250000000  0.3680740000000  0.3194940000000 1.0
C      1  0.5964640000000  0.3715450000000  0.3190280000000 1.0
C      1  0.6504460000000  0.5550600000000  0.3179560000000 1.0
C      1  0.4960760000000  0.6602550000000  0.3196700000000 1.0
C      1  0.3473950000000  0.5453700000000  0.3195620000000 1.0
C      1  0.2996290000000  0.5645120000000  0.4024040000000 1.0
C      1  0.3765790000000  0.3289480000000  0.4025490000000 1.0
C      1  0.6243090000000  0.3290100000000  0.4021600000000 1.0
C      1  0.6985400000000  0.5656520000000  0.4019690000000 1.0
C      1  0.4996360000000  0.7116100000000  0.4025430000000 1.0
C      1  0.2996300000000  0.5645110000000  0.5975970000000 1.0
C      1  0.3765790000000  0.3289470000000  0.5974520000000 1.0
C      1  0.6243100000000  0.3290100000000  0.5978400000000 1.0
C      1  0.6985390000000  0.5656500000000  0.5980320000000 1.0
C      1  0.4996360000000  0.7116110000000  0.5974570000000 1.0
C      1  0.5476770000000  0.5686190000000  0.4318580000000 1.0
C      1  0.4497390000000  0.5654830000000  0.4314100000000 1.0
C      1  0.4223610000000  0.4719940000000  0.4314320000000 1.0
C      1  0.5030740000000  0.4164650000000  0.4318960000000 1.0
C      1  0.5763210000000  0.4775980000000  0.4184770000000 1.0
C      1  0.5476770000000  0.5686180000000  0.5681400000000 1.0
C      1  0.4497400000000  0.5654820000000  0.5685880000000 1.0
C      1  0.4223610000000  0.4719930000000  0.5685670000000 1.0
C      1  0.5030750000000  0.4164640000000  0.5681040000000 1.0
C      1  0.5763210000000  0.4775970000000  0.5815210000000 1.0
END
