TITL C-1525613-7943-5664 -0.00387591583722007 3375 -9575.62812052855 0 0 60 (D10) n - 1
REM
REM in /home/nfs/bkarasulu/CARBON/AIRSS/Generating-Clusters/ReaxFF-fromJPCA2015/Units_Real/Try2-Higher-symm/Only-C60
REM
REM
REM
REM
REM
REM ./C.cell (863b2abdce7293c0672fb3ba77bf323a)
REM AIRSS Version 0.9.1 bugfix July 2018 build 013d7b7c2542+ Fri, 06 Jul 2018 19:26:36 +0100
REM compiler GCC version 9.2.1 20190827 (Red Hat 9.2.1-1)
REM options -cpp -mtune=generic -march=x86-64 -g -O0 -fpre-include=/usr/include/finclude/math-vector-fortran.h
REM seed 1496675805 -1971405320 -836839879 -254357266 1285214529 906827335 -1488405382 1705599703 -1364119166 -1057784943 -1327349660 -1265611115 2123710200 -617135402 611300136 -1259433041 99511884 1160746167 -1207647468 -747808900 -1772278366 305412141 -771800367 -2047732034 -82126559 536583600 -1656131243 1593509135 2087207903 -1500888521 -237977059 -1889707274 1580646691
REM
CELL 1.54180   15.00000   15.00000   15.00000   90.00000   90.00000   90.00000
LATT -1
SFAC C  
C      1  0.2480700000000  0.5865610000000  0.5492840000000 1.0
C      1  0.2452750000000  0.4218990000000  0.5492570000000 1.0
C      1  0.3398190000000  0.2870680000000  0.5492530000000 1.0
C      1  0.4955840000000  0.2336820000000  0.5491910000000 1.0
C      1  0.6520410000000  0.2828190000000  0.5495950000000 1.0
C      1  0.7517800000000  0.4133880000000  0.5483430000000 1.0
C      1  0.7549220000000  0.5782270000000  0.5493430000000 1.0
C      1  0.6602990000000  0.7129120000000  0.5493200000000 1.0
C      1  0.5045550000000  0.7663680000000  0.5493140000000 1.0
C      1  0.3471050000000  0.7181130000000  0.5493160000000 1.0
C      1  0.2453030000000  0.4219660000000  0.4506680000000 1.0
C      1  0.3397650000000  0.2870890000000  0.4506570000000 1.0
C      1  0.4953380000000  0.2333830000000  0.4506440000000 1.0
C      1  0.6528780000000  0.2819530000000  0.4516660000000 1.0
C      1  0.7507570000000  0.4139400000000  0.4504290000000 1.0
C      1  0.7546950000000  0.5778850000000  0.4507980000000 1.0
C      1  0.6603110000000  0.7128110000000  0.4507290000000 1.0
C      1  0.5046010000000  0.7663890000000  0.4507250000000 1.0
C      1  0.3471410000000  0.7181800000000  0.4507270000000 1.0
C      1  0.2481020000000  0.5866130000000  0.4506960000000 1.0
C      1  0.5509410000000  0.6479010000000  0.6431490000000 1.0
C      1  0.4542530000000  0.6494820000000  0.6431260000000 1.0
C      1  0.3750470000000  0.5940020000000  0.6431470000000 1.0
C      1  0.3435660000000  0.5025670000000  0.6431510000000 1.0
C      1  0.3718450000000  0.4100860000000  0.6431850000000 1.0
C      1  0.4491240000000  0.3519520000000  0.6432030000000 1.0
C      1  0.5458070000000  0.3505260000000  0.6432000000000 1.0
C      1  0.6250700000000  0.4059770000000  0.6431530000000 1.0
C      1  0.6566970000000  0.4973940000000  0.6431590000000 1.0
C      1  0.6282830000000  0.5898350000000  0.6432240000000 1.0
C      1  0.5509410000000  0.6479910000000  0.3568380000000 1.0
C      1  0.4542460000000  0.6496600000000  0.3568520000000 1.0
C      1  0.3750640000000  0.5941290000000  0.3568650000000 1.0
C      1  0.3436920000000  0.5026450000000  0.3569010000000 1.0
C      1  0.3720210000000  0.4101780000000  0.3569030000000 1.0
C      1  0.4492000000000  0.3518870000000  0.3567930000000 1.0
C      1  0.5458940000000  0.3500770000000  0.3567940000000 1.0
C      1  0.6249930000000  0.4057560000000  0.3568120000000 1.0
C      1  0.6563210000000  0.4972790000000  0.3567960000000 1.0
C      1  0.6281670000000  0.5897850000000  0.3568270000000 1.0
C      1  0.5693640000000  0.2731120000000  0.4074430000000 1.0
C      1  0.6895500000000  0.3579480000000  0.4079450000000 1.0
C      1  0.7367260000000  0.4955830000000  0.4078440000000 1.0
C      1  0.6941640000000  0.6359860000000  0.4074220000000 1.0
C      1  0.5771570000000  0.7241620000000  0.4074200000000 1.0
C      1  0.4306470000000  0.7266840000000  0.4074220000000 1.0
C      1  0.3106770000000  0.6425760000000  0.4073990000000 1.0
C      1  0.2630890000000  0.5040200000000  0.4073910000000 1.0
C      1  0.3059740000000  0.3639490000000  0.4073770000000 1.0
C      1  0.4228850000000  0.2757040000000  0.4072890000000 1.0
C      1  0.3106500000000  0.6424950000000  0.5926100000000 1.0
C      1  0.2629930000000  0.5039450000000  0.5925740000000 1.0
C      1  0.3058970000000  0.3638360000000  0.5925720000000 1.0
C      1  0.4229900000000  0.2757550000000  0.5925730000000 1.0
C      1  0.5696920000000  0.2737110000000  0.5921550000000 1.0
C      1  0.6888920000000  0.3571460000000  0.5920560000000 1.0
C      1  0.7371720000000  0.4961110000000  0.5925340000000 1.0
C      1  0.6942340000000  0.6361890000000  0.5927070000000 1.0
C      1  0.5771050000000  0.7241560000000  0.5926260000000 1.0
C      1  0.4306310000000  0.7265760000000  0.5926090000000 1.0
END
