TITL C-1525613-7943-6786 -0.00469349615235798 3375 -9093.53064861521 0 0 60 (C1) n - 1
REM
REM in /home/nfs/bkarasulu/CARBON/AIRSS/Generating-Clusters/ReaxFF-fromJPCA2015/Units_Real/Try2-Higher-symm/Only-C60
REM
REM
REM
REM
REM
REM ./C.cell (863b2abdce7293c0672fb3ba77bf323a)
REM AIRSS Version 0.9.1 bugfix July 2018 build 013d7b7c2542+ Fri, 06 Jul 2018 19:26:36 +0100
REM compiler GCC version 9.2.1 20190827 (Red Hat 9.2.1-1)
REM options -cpp -mtune=generic -march=x86-64 -g -O0 -fpre-include=/usr/include/finclude/math-vector-fortran.h
REM seed -1854608798 712511504 -666537703 337568436 1455854281 120228030 -294905594 -1549188855 -1152041786 -1038131804 -2048200020 -1943046203 -1269135185 -1175736567 -244731237 469522576 -676738768 1429647336 -1569791918 441278914 -948926497 1832474264 1134580630 528827455 -2088335557 1283839785 440298188 170936899 1306988962 1519484754 -1095550107 -1519980616 906318552
REM
CELL 1.54180   15.00000   15.00000   15.00000   90.00000   90.00000   90.00000
LATT -1
SFAC C  
C      1  0.6170680000000  0.5120520000000  0.2767170000000 1.0
C      1  0.6782310000000  0.7230690000000  0.4039980000000 1.0
C      1  0.6990900000000  0.6786760000000  0.6832790000000 1.0
C      1  0.5853780000000  0.4279780000000  0.6813820000000 1.0
C      1  0.6056330000000  0.2918760000000  0.4509510000000 1.0
C      1  0.6162440000000  0.5120120000000  0.7224310000000 1.0
C      1  0.6792770000000  0.7235250000000  0.5968360000000 1.0
C      1  0.6981910000000  0.6785160000000  0.3175370000000 1.0
C      1  0.5870690000000  0.4269690000000  0.3169210000000 1.0
C      1  0.6065880000000  0.2913510000000  0.5494860000000 1.0
C      1  0.3606130000000  0.4030710000000  0.6751920000000 1.0
C      1  0.3766400000000  0.2595250000000  0.4490890000000 1.0
C      1  0.2970180000000  0.4676210000000  0.2859440000000 1.0
C      1  0.4440600000000  0.6172590000000  0.4540530000000 1.0
C      1  0.3072030000000  0.5659600000000  0.7163070000000 1.0
C      1  0.3537610000000  0.3942100000000  0.3195910000000 1.0
C      1  0.3753760000000  0.2581070000000  0.5473400000000 1.0
C      1  0.2943800000000  0.4684190000000  0.7145570000000 1.0
C      1  0.4432350000000  0.6199740000000  0.5510350000000 1.0
C      1  0.3107040000000  0.5651800000000  0.2881420000000 1.0
C      1  0.4406810000000  0.2685680000000  0.6192150000000 1.0
C      1  0.4295920000000  0.3376110000000  0.3123620000000 1.0
C      1  0.3773440000000  0.6142730000000  0.2301620000000 1.0
C      1  0.5104540000000  0.6915240000000  0.5507960000000 1.0
C      1  0.4760170000000  0.6009720000000  0.7594170000000 1.0
C      1  0.4409660000000  0.2746540000000  0.3824780000000 1.0
C      1  0.4300170000000  0.3363970000000  0.6910690000000 1.0
C      1  0.3831650000000  0.6089930000000  0.7728010000000 1.0
C      1  0.5108100000000  0.6892710000000  0.4515180000000 1.0
C      1  0.4735910000000  0.5983060000000  0.2313870000000 1.0
C      1  0.5810760000000  0.7140920000000  0.6147710000000 1.0
C      1  0.5654690000000  0.5949620000000  0.7453120000000 1.0
C      1  0.5381740000000  0.2828590000000  0.6195170000000 1.0
C      1  0.5270300000000  0.3515870000000  0.3096930000000 1.0
C      1  0.6015180000000  0.6764060000000  0.2970100000000 1.0
C      1  0.5802330000000  0.7124470000000  0.3867310000000 1.0
C      1  0.5669830000000  0.5940220000000  0.2554040000000 1.0
C      1  0.5362760000000  0.2855570000000  0.3824530000000 1.0
C      1  0.5286060000000  0.3491620000000  0.6923510000000 1.0
C      1  0.6026590000000  0.6778560000000  0.7039250000000 1.0
C      1  0.6598680000000  0.4326070000000  0.6163500000000 1.0
C      1  0.6740890000000  0.3631660000000  0.4499610000000 1.0
C      1  0.6931330000000  0.5162180000000  0.3400940000000 1.0
C      1  0.7249640000000  0.6495190000000  0.4527120000000 1.0
C      1  0.7351760000000  0.6001820000000  0.6331280000000 1.0
C      1  0.6606370000000  0.4316160000000  0.3820710000000 1.0
C      1  0.6748020000000  0.3633360000000  0.5496010000000 1.0
C      1  0.6926920000000  0.5164120000000  0.6600860000000 1.0
C      1  0.7250440000000  0.6496020000000  0.5478600000000 1.0
C      1  0.7347870000000  0.5999450000000  0.3673150000000 1.0
C      1  0.3107370000000  0.4037960000000  0.5916120000000 1.0
C      1  0.3011000000000  0.3159480000000  0.4507740000000 1.0
C      1  0.2556100000000  0.4722660000000  0.3756030000000 1.0
C      1  0.3462810000000  0.6063680000000  0.4526450000000 1.0
C      1  0.2863320000000  0.5722480000000  0.6203750000000 1.0
C      1  0.3022090000000  0.3900110000000  0.3969190000000 1.0
C      1  0.2982450000000  0.3184760000000  0.5445180000000 1.0
C      1  0.2531480000000  0.4776490000000  0.6235640000000 1.0
C      1  0.3454220000000  0.6101310000000  0.5514760000000 1.0
C      1  0.2893040000000  0.5656340000000  0.3841780000000 1.0
END
