TITL C-1525613-7943-5811 -0.0292977177117378 3375 -8987.12878291387 0 0 60 (C5) n - 1
REM
REM in /home/nfs/bkarasulu/CARBON/AIRSS/Generating-Clusters/ReaxFF-fromJPCA2015/Units_Real/Try2-Higher-symm/Only-C60
REM
REM
REM
REM
REM
REM ./C.cell (863b2abdce7293c0672fb3ba77bf323a)
REM AIRSS Version 0.9.1 bugfix July 2018 build 013d7b7c2542+ Fri, 06 Jul 2018 19:26:36 +0100
REM compiler GCC version 9.2.1 20190827 (Red Hat 9.2.1-1)
REM options -cpp -mtune=generic -march=x86-64 -g -O0 -fpre-include=/usr/include/finclude/math-vector-fortran.h
REM seed 461849001 149213390 366515758 378052868 -911605413 -1918835582 1725765438 1236206031 -789147441 -314091531 1475660663 -1402347497 -699761742 -1919263283 -1465229408 21447254 -1658666055 669894223 648389797 2077025899 896626003 1496914385 357009529 -714628987 2017790126 -1761290825 1816557984 1071463042 -757658317 -357338139 -204219365 1490342358 5295033
REM
CELL 1.54180   15.00000   15.00000   15.00000   90.00000   90.00000   90.00000
LATT -1
SFAC C  
C      1  0.2951740000000  0.5479540000000  0.4050230000000 1.0
C      1  0.3465090000000  0.5479740000000  0.6654640000000 1.0
C      1  0.6097130000000  0.5479510000000  0.6972420000000 1.0
C      1  0.7216460000000  0.5479330000000  0.4567630000000 1.0
C      1  0.5277190000000  0.5478280000000  0.2757290000000 1.0
C      1  0.2951740000000  0.4520460000000  0.4050230000000 1.0
C      1  0.3465090000000  0.4520260000000  0.6654640000000 1.0
C      1  0.6097130000000  0.4520490000000  0.6972420000000 1.0
C      1  0.7216460000000  0.4520670000000  0.4567630000000 1.0
C      1  0.5277190000000  0.4521720000000  0.2757290000000 1.0
C      1  0.6439320000000  0.3982140000000  0.6060340000000 1.0
C      1  0.6453880000000  0.3981570000000  0.3958240000000 1.0
C      1  0.4456790000000  0.3981770000000  0.3297090000000 1.0
C      1  0.3212000000000  0.3982160000000  0.4989340000000 1.0
C      1  0.4435560000000  0.3981800000000  0.6697470000000 1.0
C      1  0.6439320000000  0.6017860000000  0.6060340000000 1.0
C      1  0.6453880000000  0.6018430000000  0.3958240000000 1.0
C      1  0.4456790000000  0.6018230000000  0.3297090000000 1.0
C      1  0.3212000000000  0.6017840000000  0.4989340000000 1.0
C      1  0.4435560000000  0.6018200000000  0.6697470000000 1.0
C      1  0.3200770000000  0.6142420000000  0.6004110000000 1.0
C      1  0.5397650000000  0.6142580000000  0.7021530000000 1.0
C      1  0.7046160000000  0.6142740000000  0.5247060000000 1.0
C      1  0.5867600000000  0.6143470000000  0.3129810000000 1.0
C      1  0.3487870000000  0.6143020000000  0.3599010000000 1.0
C      1  0.3200770000000  0.3857580000000  0.6004110000000 1.0
C      1  0.5397650000000  0.3857420000000  0.7021530000000 1.0
C      1  0.7046160000000  0.3857260000000  0.5247060000000 1.0
C      1  0.5867600000000  0.3856530000000  0.3129810000000 1.0
C      1  0.3487870000000  0.3856980000000  0.3599010000000 1.0
C      1  0.4242080000000  0.7281010000000  0.4656900000000 1.0
C      1  0.4440080000000  0.7281450000000  0.5615210000000 1.0
C      1  0.5411560000000  0.7280930000000  0.5722430000000 1.0
C      1  0.5813920000000  0.7280200000000  0.4830530000000 1.0
C      1  0.5091160000000  0.7279230000000  0.4172280000000 1.0
C      1  0.4242080000000  0.2718990000000  0.4656900000000 1.0
C      1  0.4440080000000  0.2718550000000  0.5615210000000 1.0
C      1  0.5411560000000  0.2719070000000  0.5722430000000 1.0
C      1  0.5813920000000  0.2719800000000  0.4830530000000 1.0
C      1  0.5091160000000  0.2720770000000  0.4172280000000 1.0
C      1  0.3463180000000  0.3242150000000  0.4348050000000 1.0
C      1  0.3904680000000  0.3240840000000  0.6258540000000 1.0
C      1  0.5858050000000  0.3241760000000  0.6430260000000 1.0
C      1  0.6626660000000  0.3242660000000  0.4625300000000 1.0
C      1  0.5145050000000  0.3242870000000  0.3337900000000 1.0
C      1  0.3463180000000  0.6757850000000  0.4348050000000 1.0
C      1  0.3904680000000  0.6759160000000  0.6258540000000 1.0
C      1  0.5858050000000  0.6758240000000  0.6430260000000 1.0
C      1  0.6626660000000  0.6757340000000  0.4625300000000 1.0
C      1  0.5145050000000  0.6757130000000  0.3337900000000 1.0
C      1  0.4721070000000  0.4477290000000  0.4191870000000 1.0
C      1  0.4144660000000  0.4478750000000  0.5014910000000 1.0
C      1  0.4749800000000  0.4478520000000  0.5816420000000 1.0
C      1  0.5699850000000  0.4477710000000  0.5489060000000 1.0
C      1  0.5682970000000  0.4477540000000  0.4484140000000 1.0
C      1  0.4721070000000  0.5522710000000  0.4191870000000 1.0
C      1  0.4144660000000  0.5521250000000  0.5014910000000 1.0
C      1  0.4749800000000  0.5521480000000  0.5816420000000 1.0
C      1  0.5699850000000  0.5522290000000  0.5489060000000 1.0
C      1  0.5682970000000  0.5522460000000  0.4484140000000 1.0
END
