TITL C-1525613-7943-2065 -0.0204369626652369 3375 -8758.97017861404 0 0 60 (C1) n - 1
REM
REM in /home/nfs/bkarasulu/CARBON/AIRSS/Generating-Clusters/ReaxFF-fromJPCA2015/Units_Real/Try2-Higher-symm/Only-C60
REM
REM
REM
REM
REM
REM ./C.cell (863b2abdce7293c0672fb3ba77bf323a)
REM AIRSS Version 0.9.1 bugfix July 2018 build 013d7b7c2542+ Fri, 06 Jul 2018 19:26:36 +0100
REM compiler GCC version 9.2.1 20190827 (Red Hat 9.2.1-1)
REM options -cpp -mtune=generic -march=x86-64 -g -O0 -fpre-include=/usr/include/finclude/math-vector-fortran.h
REM seed -942901370 -1469199536 -2063423233 428225638 -1771908996 -1240210812 -404115203 1347591042 -2035328823 -500561602 2013227847 -1647581588 2015046127 -17028485 -43987246 -66951379 365398231 -1493283591 520124553 -1067231459 -798921003 922586087 -847445452 61838083 753868687 -356317595 -984549871 691281072 -1407020512 -56166008 368876880 1782200671 1982181504
REM
CELL 1.54180   15.00000   15.00000   15.00000   90.00000   90.00000   90.00000
LATT -1
SFAC C  
C      1  0.2620210000000  0.4419060000000  0.3759630000000 1.0
C      1  0.3582000000000  0.3412730000000  0.5888700000000 1.0
C      1  0.4870500000000  0.2627670000000  0.3969460000000 1.0
C      1  0.6047140000000  0.3226310000000  0.6282020000000 1.0
C      1  0.6706170000000  0.3937390000000  0.3424270000000 1.0
C      1  0.7371320000000  0.5586840000000  0.6255260000000 1.0
C      1  0.6436430000000  0.6625490000000  0.4112630000000 1.0
C      1  0.5118090000000  0.7391780000000  0.6038230000000 1.0
C      1  0.3983590000000  0.6814230000000  0.3783260000000 1.0
C      1  0.3003830000000  0.6160410000000  0.6699820000000 1.0
C      1  0.5379260000000  0.5829380000000  0.4772400000000 1.0
C      1  0.4880590000000  0.5327300000000  0.6155980000000 1.0
C      1  0.4389890000000  0.5628190000000  0.4645600000000 1.0
C      1  0.4254890000000  0.4690390000000  0.5902360000000 1.0
C      1  0.4429910000000  0.4708800000000  0.4425680000000 1.0
C      1  0.4646510000000  0.4149950000000  0.5193420000000 1.0
C      1  0.5170860000000  0.4623050000000  0.3824240000000 1.0
C      1  0.5655880000000  0.4354200000000  0.5301080000000 1.0
C      1  0.5809700000000  0.5271230000000  0.4065430000000 1.0
C      1  0.5604300000000  0.5271990000000  0.5534900000000 1.0
C      1  0.6361550000000  0.5400020000000  0.3276870000000 1.0
C      1  0.5995260000000  0.6504160000000  0.6678560000000 1.0
C      1  0.5048560000000  0.6254410000000  0.3119710000000 1.0
C      1  0.4564940000000  0.5884560000000  0.6869220000000 1.0
C      1  0.3477740000000  0.5316620000000  0.3123020000000 1.0
C      1  0.3627860000000  0.4606810000000  0.6635810000000 1.0
C      1  0.3977780000000  0.3503050000000  0.3337350000000 1.0
C      1  0.4954050000000  0.3770980000000  0.6927400000000 1.0
C      1  0.5396040000000  0.4106010000000  0.3033020000000 1.0
C      1  0.6517990000000  0.4704680000000  0.6925440000000 1.0
C      1  0.4988350000000  0.7489580000000  0.5049130000000 1.0
C      1  0.3523700000000  0.6063980000000  0.4845580000000 1.0
C      1  0.2723660000000  0.5518230000000  0.4635130000000 1.0
C      1  0.2621070000000  0.4520750000000  0.4769910000000 1.0
C      1  0.4210780000000  0.3120680000000  0.5106440000000 1.0
C      1  0.5052180000000  0.2563080000000  0.4948340000000 1.0
C      1  0.6499110000000  0.3874670000000  0.5164820000000 1.0
C      1  0.7244120000000  0.4475650000000  0.5414720000000 1.0
C      1  0.7353720000000  0.5462450000000  0.5251370000000 1.0
C      1  0.5834780000000  0.6882490000000  0.4894310000000 1.0
C      1  0.6039860000000  0.7112600000000  0.5898090000000 1.0
C      1  0.4394940000000  0.7203310000000  0.4421600000000 1.0
C      1  0.3150930000000  0.6285560000000  0.5728290000000 1.0
C      1  0.2646280000000  0.5400570000000  0.3652460000000 1.0
C      1  0.3055170000000  0.3961250000000  0.5382770000000 1.0
C      1  0.3952110000000  0.2904670000000  0.4131990000000 1.0
C      1  0.5733280000000  0.2814880000000  0.5542460000000 1.0
C      1  0.6880630000000  0.3515420000000  0.4215090000000 1.0
C      1  0.7346000000000  0.4605330000000  0.6389930000000 1.0
C      1  0.6932200000000  0.6053930000000  0.4636170000000 1.0
C      1  0.5044500000000  0.6737440000000  0.6795350000000 1.0
C      1  0.4116920000000  0.6133160000000  0.3112570000000 1.0
C      1  0.3690170000000  0.5504760000000  0.7045890000000 1.0
C      1  0.3446050000000  0.4334640000000  0.3205320000000 1.0
C      1  0.4021070000000  0.3706410000000  0.6802660000000 1.0
C      1  0.4916900000000  0.3255500000000  0.3191820000000 1.0
C      1  0.5886490000000  0.3884670000000  0.6968190000000 1.0
C      1  0.6282510000000  0.4503320000000  0.2831250000000 1.0
C      1  0.6540070000000  0.5678880000000  0.6804320000000 1.0
C      1  0.5989650000000  0.6324420000000  0.3203270000000 1.0
END
