TITL C-1525613-7943-6556 0.180128167980152 3375 -8716.31052941073 0 0 60 (C2) n - 1
REM
REM in /home/nfs/bkarasulu/CARBON/AIRSS/Generating-Clusters/ReaxFF-fromJPCA2015/Units_Real/Try2-Higher-symm/Only-C60
REM
REM
REM
REM
REM
REM ./C.cell (863b2abdce7293c0672fb3ba77bf323a)
REM AIRSS Version 0.9.1 bugfix July 2018 build 013d7b7c2542+ Fri, 06 Jul 2018 19:26:36 +0100
REM compiler GCC version 9.2.1 20190827 (Red Hat 9.2.1-1)
REM options -cpp -mtune=generic -march=x86-64 -g -O0 -fpre-include=/usr/include/finclude/math-vector-fortran.h
REM seed 1918174189 1359321084 -2067110508 -342084711 -1398601682 1100452049 1731040059 489196048 1604007214 -529042427 972627406 -1695832812 488503209 -893252443 1839963139 240527440 -1001547698 5309433 -910662207 -853186548 1983436737 92684881 -1219866083 940092913 -332205479 631859968 783059118 1070201520 1033907381 1337658218 513279115 -2050825348 -918536884
REM
CELL 1.54180   15.00000   15.00000   15.00000   90.00000   90.00000   90.00000
LATT -1
SFAC C  
C      1  0.4469900000000  0.6746980000000  0.5418440000000 1.0
C      1  0.4490230000000  0.5131530000000  0.6912260000000 1.0
C      1  0.4473880000000  0.3343000000000  0.5689240000000 1.0
C      1  0.4487790000000  0.3765170000000  0.3514890000000 1.0
C      1  0.4501260000000  0.6016700000000  0.3360290000000 1.0
C      1  0.5530100000000  0.3253020000000  0.5418440000000 1.0
C      1  0.5509770000000  0.4868470000000  0.6912260000000 1.0
C      1  0.5526120000000  0.6657000000000  0.5689240000000 1.0
C      1  0.5512210000000  0.6234830000000  0.3514890000000 1.0
C      1  0.5498740000000  0.3983300000000  0.3360290000000 1.0
C      1  0.5761450000000  0.5769600000000  0.5313230000000 1.0
C      1  0.5559130000000  0.4947170000000  0.5781040000000 1.0
C      1  0.5761160000000  0.4190000000000  0.5200430000000 1.0
C      1  0.5495090000000  0.4547500000000  0.4350970000000 1.0
C      1  0.5512430000000  0.5522120000000  0.4404870000000 1.0
C      1  0.4238550000000  0.4230410000000  0.5313230000000 1.0
C      1  0.4440870000000  0.5052820000000  0.5781040000000 1.0
C      1  0.4238840000000  0.5810000000000  0.5200430000000 1.0
C      1  0.4504910000000  0.5452500000000  0.4350970000000 1.0
C      1  0.4487570000000  0.4477880000000  0.4404870000000 1.0
C      1  0.6965280000000  0.5219890000000  0.3376250000000 1.0
C      1  0.6978440000000  0.6621980000000  0.4708830000000 1.0
C      1  0.6971120000000  0.5787550000000  0.6456670000000 1.0
C      1  0.6985030000000  0.3868860000000  0.6193860000000 1.0
C      1  0.6960020000000  0.3511750000000  0.4290520000000 1.0
C      1  0.3034720000000  0.4780110000000  0.3376250000000 1.0
C      1  0.3021560000000  0.3378020000000  0.4708830000000 1.0
C      1  0.3028880000000  0.4212450000000  0.6456670000000 1.0
C      1  0.3014970000000  0.6131140000000  0.6193860000000 1.0
C      1  0.3039980000000  0.6488250000000  0.4290520000000 1.0
C      1  0.3933090000000  0.6707950000000  0.3846770000000 1.0
C      1  0.3911430000000  0.6587970000000  0.6290770000000 1.0
C      1  0.3926840000000  0.4286310000000  0.6937850000000 1.0
C      1  0.3916470000000  0.2949080000000  0.4894720000000 1.0
C      1  0.3925740000000  0.4456270000000  0.3024750000000 1.0
C      1  0.6066910000000  0.3292050000000  0.3846770000000 1.0
C      1  0.6088570000000  0.3412030000000  0.6290770000000 1.0
C      1  0.6073160000000  0.5713690000000  0.6937850000000 1.0
C      1  0.6083520000000  0.7050910000000  0.4894720000000 1.0
C      1  0.6074260000000  0.5543730000000  0.3024750000000 1.0
C      1  0.5449560000000  0.2878320000000  0.4445180000000 1.0
C      1  0.5459620000000  0.4840350000000  0.2802600000000 1.0
C      1  0.5467860000000  0.7040150000000  0.4148500000000 1.0
C      1  0.5451470000000  0.6395800000000  0.6696280000000 1.0
C      1  0.5466830000000  0.3847590000000  0.6889100000000 1.0
C      1  0.4550440000000  0.7121680000000  0.4445180000000 1.0
C      1  0.4540380000000  0.5159650000000  0.2802600000000 1.0
C      1  0.4532140000000  0.2959860000000  0.4148500000000 1.0
C      1  0.4548530000000  0.3604200000000  0.6696280000000 1.0
C      1  0.4533170000000  0.6152410000000  0.6889100000000 1.0
C      1  0.7063730000000  0.4298440000000  0.3758450000000 1.0
C      1  0.7037610000000  0.5949910000000  0.3981700000000 1.0
C      1  0.7067960000000  0.6303360000000  0.5613940000000 1.0
C      1  0.7068200000000  0.4835800000000  0.6421090000000 1.0
C      1  0.7079120000000  0.3595730000000  0.5276540000000 1.0
C      1  0.2936270000000  0.5701560000000  0.3758450000000 1.0
C      1  0.2962390000000  0.4050090000000  0.3981700000000 1.0
C      1  0.2932040000000  0.3696640000000  0.5613940000000 1.0
C      1  0.2931800000000  0.5164200000000  0.6421090000000 1.0
C      1  0.2920880000000  0.6404270000000  0.5276540000000 1.0
END
