TITL C-1525613-7943-4253 0.205682611310051 3375 -7799.65742217449 0 0 60 (Cs) n - 1
REM
REM in /home/nfs/bkarasulu/CARBON/AIRSS/Generating-Clusters/ReaxFF-fromJPCA2015/Units_Real/Try2-Higher-symm/Only-C60
REM
REM
REM
REM
REM
REM ./C.cell (863b2abdce7293c0672fb3ba77bf323a)
REM AIRSS Version 0.9.1 bugfix July 2018 build 013d7b7c2542+ Fri, 06 Jul 2018 19:26:36 +0100
REM compiler GCC version 9.2.1 20190827 (Red Hat 9.2.1-1)
REM options -cpp -mtune=generic -march=x86-64 -g -O0 -fpre-include=/usr/include/finclude/math-vector-fortran.h
REM seed 1486715926 1868785643 1104956802 -1232795021 2017890181 1375213584 -1171226152 1444705367 744742684 -1420732392 256988106 -300793906 -305376837 633409663 -1148790151 -1134999050 -359399719 2047490201 -1416139542 -1512890241 -1474034704 1510707689 34997142 -1213146030 92774422 376308913 1180113426 -943297266 -478255115 1996475800 -438250416 1052456780 653919257
REM
CELL 1.54180   15.00000   15.00000   15.00000   90.00000   90.00000   90.00000
LATT -1
SFAC C  
C      1  0.5098980000000  0.5965770000000  0.2901600000000 1.0
C      1  0.4142340000000  0.5341320000000  0.2977430000000 1.0
C      1  0.4387330000000  0.4326330000000  0.2956470000000 1.0
C      1  0.5428150000000  0.4186160000000  0.2959270000000 1.0
C      1  0.5938410000000  0.5200110000000  0.2891400000000 1.0
C      1  0.5098250000000  0.5964410000000  0.7097610000000 1.0
C      1  0.4140910000000  0.5339920000000  0.7022830000000 1.0
C      1  0.4386880000000  0.4325170000000  0.7045300000000 1.0
C      1  0.5427370000000  0.4186280000000  0.7040660000000 1.0
C      1  0.5938930000000  0.5200080000000  0.7108330000000 1.0
C      1  0.4340850000000  0.5597560000000  0.4479100000000 1.0
C      1  0.4214700000000  0.4530970000000  0.4499170000000 1.0
C      1  0.5188050000000  0.4125040000000  0.4477940000000 1.0
C      1  0.5906800000000  0.4927300000000  0.4497530000000 1.0
C      1  0.5400730000000  0.5813840000000  0.4491990000000 1.0
C      1  0.4340220000000  0.5597660000000  0.5520180000000 1.0
C      1  0.4212350000000  0.4530130000000  0.5499720000000 1.0
C      1  0.5186830000000  0.4125190000000  0.5522900000000 1.0
C      1  0.5907030000000  0.4928890000000  0.5497690000000 1.0
C      1  0.5401680000000  0.5814560000000  0.5506900000000 1.0
C      1  0.5686380000000  0.6776740000000  0.5495150000000 1.0
C      1  0.3492150000000  0.6146160000000  0.5495380000000 1.0
C      1  0.3410870000000  0.3928640000000  0.5494290000000 1.0
C      1  0.5531190000000  0.3173360000000  0.5497120000000 1.0
C      1  0.6908530000000  0.4929450000000  0.5493980000000 1.0
C      1  0.5685440000000  0.6776110000000  0.4505450000000 1.0
C      1  0.3492560000000  0.6146320000000  0.4502840000000 1.0
C      1  0.3413020000000  0.3929790000000  0.4506840000000 1.0
C      1  0.5531550000000  0.3173170000000  0.4504290000000 1.0
C      1  0.6908570000000  0.4928630000000  0.4506680000000 1.0
C      1  0.4779700000000  0.6166580000000  0.8014860000000 1.0
C      1  0.4151570000000  0.5358170000000  0.8005330000000 1.0
C      1  0.4459780000000  0.4417300000000  0.8040190000000 1.0
C      1  0.5430030000000  0.4208180000000  0.8025440000000 1.0
C      1  0.6157560000000  0.4924270000000  0.8038880000000 1.0
C      1  0.4778460000000  0.6167140000000  0.1984680000000 1.0
C      1  0.4150950000000  0.5358290000000  0.1995050000000 1.0
C      1  0.4458690000000  0.4417660000000  0.1961320000000 1.0
C      1  0.5429190000000  0.4208650000000  0.1974840000000 1.0
C      1  0.6156180000000  0.4925670000000  0.1960400000000 1.0
C      1  0.5871980000000  0.3344750000000  0.3568770000000 1.0
C      1  0.6816600000000  0.5351580000000  0.3599920000000 1.0
C      1  0.5250070000000  0.6849760000000  0.3602220000000 1.0
C      1  0.3293130000000  0.5779990000000  0.3584170000000 1.0
C      1  0.3721440000000  0.3647310000000  0.3599470000000 1.0
C      1  0.5872380000000  0.3344000000000  0.6432370000000 1.0
C      1  0.6818520000000  0.5351160000000  0.6401610000000 1.0
C      1  0.5250680000000  0.6849170000000  0.6398540000000 1.0
C      1  0.3292180000000  0.5777240000000  0.6413440000000 1.0
C      1  0.3721370000000  0.3647020000000  0.6401260000000 1.0
C      1  0.6587450000000  0.2918620000000  0.3668430000000 1.0
C      1  0.7484220000000  0.5851820000000  0.3680830000000 1.0
C      1  0.4967330000000  0.7630200000000  0.3715840000000 1.0
C      1  0.2464170000000  0.5737660000000  0.3683800000000 1.0
C      1  0.3492620000000  0.2845970000000  0.3668490000000 1.0
C      1  0.6587890000000  0.2919160000000  0.6332000000000 1.0
C      1  0.7484950000000  0.5852470000000  0.6319450000000 1.0
C      1  0.4967270000000  0.7629200000000  0.6285160000000 1.0
C      1  0.2463670000000  0.5740460000000  0.6314010000000 1.0
C      1  0.3492930000000  0.2845510000000  0.6333150000000 1.0
END
