TITL C-1525613-7943-7558 0.0733049644597004 3375 -8769.7592057586 0 0 60 (C1) n - 1
REM
REM in /home/nfs/bkarasulu/CARBON/AIRSS/Generating-Clusters/ReaxFF-fromJPCA2015/Units_Real/Try2-Higher-symm/Only-C60
REM
REM
REM
REM
REM
REM ./C.cell (863b2abdce7293c0672fb3ba77bf323a)
REM AIRSS Version 0.9.1 bugfix July 2018 build 013d7b7c2542+ Fri, 06 Jul 2018 19:26:36 +0100
REM compiler GCC version 9.2.1 20190827 (Red Hat 9.2.1-1)
REM options -cpp -mtune=generic -march=x86-64 -g -O0 -fpre-include=/usr/include/finclude/math-vector-fortran.h
REM seed -790629905 1296016038 2040155610 1168842507 1533266019 2147261843 1491676586 -980060051 685542089 1020054053 1908138675 1566133005 215335222 1344710613 838209341 -2132114230 -1622060712 485227510 -119210572 -1223532408 -1377243001 -1286131168 -185337011 -410347520 1009334652 -1130962905 430853623 1885909543 1098408479 1468996649 -1950875964 -71231751 283646823
REM
CELL 1.54180   15.00000   15.00000   15.00000   90.00000   90.00000   90.00000
LATT -1
SFAC C  
C      1  0.2874320000000  0.3568360000000  0.3788170000000 1.0
C      1  0.2915900000000  0.6214890000000  0.5200050000000 1.0
C      1  0.3779010000000  0.4489450000000  0.6243190000000 1.0
C      1  0.4940190000000  0.5524330000000  0.7055120000000 1.0
C      1  0.5843830000000  0.3933740000000  0.6993430000000 1.0
C      1  0.7068040000000  0.6300550000000  0.6089050000000 1.0
C      1  0.7152280000000  0.3681830000000  0.4822320000000 1.0
C      1  0.6318770000000  0.5562200000000  0.3660220000000 1.0
C      1  0.5058270000000  0.4497360000000  0.3123410000000 1.0
C      1  0.4177440000000  0.6052650000000  0.2985440000000 1.0
C      1  0.3133560000000  0.5036650000000  0.4507360000000 1.0
C      1  0.3234450000000  0.4568550000000  0.5408440000000 1.0
C      1  0.4002660000000  0.5363880000000  0.6698950000000 1.0
C      1  0.5380350000000  0.4701050000000  0.7324040000000 1.0
C      1  0.6408460000000  0.5587350000000  0.5914980000000 1.0
C      1  0.6661090000000  0.4888710000000  0.5306260000000 1.0
C      1  0.6905320000000  0.5375090000000  0.4427200000000 1.0
C      1  0.6021620000000  0.4652290000000  0.3311130000000 1.0
C      1  0.4649910000000  0.5269920000000  0.2749960000000 1.0
C      1  0.3032050000000  0.4500200000000  0.3740990000000 1.0
C      1  0.6473450000000  0.7667670000000  0.5237810000000 1.0
C      1  0.6214410000000  0.2478070000000  0.4377560000000 1.0
C      1  0.5645290000000  0.7190810000000  0.3790290000000 1.0
C      1  0.4755780000000  0.2863530000000  0.3709210000000 1.0
C      1  0.4046850000000  0.7322390000000  0.3991000000000 1.0
C      1  0.3571270000000  0.2388840000000  0.4709060000000 1.0
C      1  0.3668320000000  0.7588910000000  0.5662450000000 1.0
C      1  0.4301350000000  0.2801530000000  0.6219960000000 1.0
C      1  0.5250350000000  0.7280520000000  0.6586960000000 1.0
C      1  0.6073480000000  0.2661240000000  0.5999720000000 1.0
C      1  0.3510680000000  0.6091980000000  0.6419540000000 1.0
C      1  0.4938920000000  0.3892440000000  0.7176020000000 1.0
C      1  0.6388200000000  0.6059510000000  0.6775890000000 1.0
C      1  0.6940980000000  0.4016280000000  0.5679490000000 1.0
C      1  0.7026670000000  0.6234390000000  0.4677340000000 1.0
C      1  0.6508150000000  0.3930130000000  0.3637270000000 1.0
C      1  0.5077310000000  0.6085400000000  0.2800860000000 1.0
C      1  0.3601070000000  0.3926370000000  0.3297550000000 1.0
C      1  0.3108200000000  0.5990560000000  0.4308850000000 1.0
C      1  0.3161630000000  0.3747730000000  0.5279530000000 1.0
C      1  0.6095970000000  0.2352970000000  0.5185340000000 1.0
C      1  0.5942480000000  0.7537610000000  0.4522160000000 1.0
C      1  0.5474520000000  0.2478220000000  0.3997900000000 1.0
C      1  0.4847530000000  0.7546710000000  0.3774110000000 1.0
C      1  0.4155400000000  0.2358750000000  0.4106690000000 1.0
C      1  0.4013600000000  0.7577610000000  0.4826530000000 1.0
C      1  0.4021020000000  0.2396190000000  0.5439850000000 1.0
C      1  0.4468010000000  0.7604750000000  0.6145560000000 1.0
C      1  0.5169520000000  0.2425570000000  0.6136890000000 1.0
C      1  0.5813060000000  0.7654890000000  0.5919240000000 1.0
C      1  0.4531240000000  0.3765170000000  0.3370890000000 1.0
C      1  0.3749180000000  0.6467560000000  0.3717870000000 1.0
C      1  0.2948370000000  0.3129000000000  0.4667730000000 1.0
C      1  0.3042950000000  0.6756740000000  0.5951750000000 1.0
C      1  0.4253190000000  0.3738800000000  0.6548730000000 1.0
C      1  0.5470190000000  0.6304820000000  0.6948440000000 1.0
C      1  0.6321270000000  0.3534980000000  0.6285260000000 1.0
C      1  0.7169520000000  0.6884560000000  0.5304150000000 1.0
C      1  0.6920300000000  0.3192170000000  0.4047720000000 1.0
C      1  0.5772810000000  0.6305560000000  0.3417120000000 1.0
END
