TITL C-1525613-7943-6683 -0.0011078563381117 3375 -9274.88299832414 0 0 60 (C2) n - 1
REM
REM in /home/nfs/bkarasulu/CARBON/AIRSS/Generating-Clusters/ReaxFF-fromJPCA2015/Units_Real/Try2-Higher-symm/Only-C60
REM
REM
REM
REM
REM
REM ./C.cell (863b2abdce7293c0672fb3ba77bf323a)
REM AIRSS Version 0.9.1 bugfix July 2018 build 013d7b7c2542+ Fri, 06 Jul 2018 19:26:36 +0100
REM compiler GCC version 9.2.1 20190827 (Red Hat 9.2.1-1)
REM options -cpp -mtune=generic -march=x86-64 -g -O0 -fpre-include=/usr/include/finclude/math-vector-fortran.h
REM seed -1651030157 -932043108 -1082873520 195245516 197718957 -390768410 1615183979 -966878083 539792950 -180136644 715771011 7706908 -693173776 463838346 276962492 1763134216 -722233573 -1999639707 -1720832714 -61800078 -724974530 637972492 1594736185 -1479162869 -1074108484 1816959683 1599821807 -1875743273 -1719109844 150994471 1355774382 1054909520 -1057063461
REM
CELL 1.54180   15.00000   15.00000   15.00000   90.00000   90.00000   90.00000
LATT -1
SFAC C  
C      1  0.5049270000000  0.3546780000000  0.3310280000000 1.0
C      1  0.4029800000000  0.3560010000000  0.3200040000000 1.0
C      1  0.3401920000000  0.4300440000000  0.3196340000000 1.0
C      1  0.3564570000000  0.5307350000000  0.3307890000000 1.0
C      1  0.4320620000000  0.5802330000000  0.3234220000000 1.0
C      1  0.4946550000000  0.6459150000000  0.3303720000000 1.0
C      1  0.5962010000000  0.6439250000000  0.3221810000000 1.0
C      1  0.6589280000000  0.5698860000000  0.3204140000000 1.0
C      1  0.6433350000000  0.4698410000000  0.3306970000000 1.0
C      1  0.5673980000000  0.4200290000000  0.3236940000000 1.0
C      1  0.3127520000000  0.3434300000000  0.6232320000000 1.0
C      1  0.2622150000000  0.4868840000000  0.6158410000000 1.0
C      1  0.2854380000000  0.6368940000000  0.6300290000000 1.0
C      1  0.4039760000000  0.7355890000000  0.6299270000000 1.0
C      1  0.5555480000000  0.7309820000000  0.6146150000000 1.0
C      1  0.6873490000000  0.6566360000000  0.6234880000000 1.0
C      1  0.7382490000000  0.5132690000000  0.6161780000000 1.0
C      1  0.7147910000000  0.3632950000000  0.6300880000000 1.0
C      1  0.5964250000000  0.2644850000000  0.6301430000000 1.0
C      1  0.4448710000000  0.2684420000000  0.6147230000000 1.0
C      1  0.7085990000000  0.4443350000000  0.6586690000000 1.0
C      1  0.6428680000000  0.3290610000000  0.6644660000000 1.0
C      1  0.5178000000000  0.2849220000000  0.6585290000000 1.0
C      1  0.3894540000000  0.3210240000000  0.6558460000000 1.0
C      1  0.3044790000000  0.4229680000000  0.6558410000000 1.0
C      1  0.2917280000000  0.5558160000000  0.6584700000000 1.0
C      1  0.3574040000000  0.6711170000000  0.6643270000000 1.0
C      1  0.4825390000000  0.7150920000000  0.6583350000000 1.0
C      1  0.6108590000000  0.6789250000000  0.6561990000000 1.0
C      1  0.6960500000000  0.5772060000000  0.6561090000000 1.0
C      1  0.6988070000000  0.6670670000000  0.5264600000000 1.0
C      1  0.7489190000000  0.5126850000000  0.5166180000000 1.0
C      1  0.7294370000000  0.3515740000000  0.5331340000000 1.0
C      1  0.6049540000000  0.2483760000000  0.5330320000000 1.0
C      1  0.4436830000000  0.2595720000000  0.5162630000000 1.0
C      1  0.3013010000000  0.3333740000000  0.5266900000000 1.0
C      1  0.2514260000000  0.4873100000000  0.5163510000000 1.0
C      1  0.2706630000000  0.6485510000000  0.5331170000000 1.0
C      1  0.3953600000000  0.7514530000000  0.5328000000000 1.0
C      1  0.5570780000000  0.7394760000000  0.5154310000000 1.0
C      1  0.7387810000000  0.5974960000000  0.4748060000000 1.0
C      1  0.7374120000000  0.4276460000000  0.4753620000000 1.0
C      1  0.6789210000000  0.2860040000000  0.4897140000000 1.0
C      1  0.5287630000000  0.2553030000000  0.4756260000000 1.0
C      1  0.3629610000000  0.2841720000000  0.4750690000000 1.0
C      1  0.2616380000000  0.4023990000000  0.4746210000000 1.0
C      1  0.2625310000000  0.5725080000000  0.4753290000000 1.0
C      1  0.3210840000000  0.7142310000000  0.4896960000000 1.0
C      1  0.4714010000000  0.7442540000000  0.4752190000000 1.0
C      1  0.6374460000000  0.7151470000000  0.4744630000000 1.0
C      1  0.5584650000000  0.2972480000000  0.3921840000000 1.0
C      1  0.3445690000000  0.3055460000000  0.3806310000000 1.0
C      1  0.2803570000000  0.3807350000000  0.3800290000000 1.0
C      1  0.3093020000000  0.5939770000000  0.3916700000000 1.0
C      1  0.3475340000000  0.6818760000000  0.4052010000000 1.0
C      1  0.4410660000000  0.7031850000000  0.3915940000000 1.0
C      1  0.6543370000000  0.6929440000000  0.3836120000000 1.0
C      1  0.7191050000000  0.6190090000000  0.3805700000000 1.0
C      1  0.6901930000000  0.4065420000000  0.3919300000000 1.0
C      1  0.6519790000000  0.3186810000000  0.4054870000000 1.0
END
