TITL C-1525613-7943-5575 0.396528462565604 3375 -7807.30708645925 0 0 60 (C1) n - 1
REM
REM in /home/nfs/bkarasulu/CARBON/AIRSS/Generating-Clusters/ReaxFF-fromJPCA2015/Units_Real/Try2-Higher-symm/Only-C60
REM
REM
REM
REM
REM
REM ./C.cell (863b2abdce7293c0672fb3ba77bf323a)
REM AIRSS Version 0.9.1 bugfix July 2018 build 013d7b7c2542+ Fri, 06 Jul 2018 19:26:36 +0100
REM compiler GCC version 9.2.1 20190827 (Red Hat 9.2.1-1)
REM options -cpp -mtune=generic -march=x86-64 -g -O0 -fpre-include=/usr/include/finclude/math-vector-fortran.h
REM seed 1166784736 -1136877036 403486847 1541262852 -1019368266 883015655 1003366817 2026645726 -236333432 -1594739045 456816316 -734508494 1784316867 -1606890939 -1287382378 687929259 338706088 -934611744 -23913413 -1043565201 2032347410 273700300 828389595 1333600002 -244639045 -1331465657 -1625496807 1209072705 -638048211 513949223 895107201 -1106066886 2120727478
REM
CELL 1.54180   15.00000   15.00000   15.00000   90.00000   90.00000   90.00000
LATT -1
SFAC C  
C      1  0.7176310000000  0.5309550000000  0.6694360000000 1.0
C      1  0.7223830000000  0.6303410000000  0.3535080000000 1.0
C      1  0.5397610000000  0.7421660000000  0.6676160000000 1.0
C      1  0.4265730000000  0.7292510000000  0.3238920000000 1.0
C      1  0.3291970000000  0.5994930000000  0.6936290000000 1.0
C      1  0.2835480000000  0.4780490000000  0.3375170000000 1.0
C      1  0.2850300000000  0.3568420000000  0.6494400000000 1.0
C      1  0.4537900000000  0.2553030000000  0.3335140000000 1.0
C      1  0.5919020000000  0.2810190000000  0.6655320000000 1.0
C      1  0.6640380000000  0.3916050000000  0.3198360000000 1.0
C      1  0.6370850000000  0.3397370000000  0.6096340000000 1.0
C      1  0.7338810000000  0.4592560000000  0.3362700000000 1.0
C      1  0.6810900000000  0.5735330000000  0.5948690000000 1.0
C      1  0.6413180000000  0.6687930000000  0.3864410000000 1.0
C      1  0.4992390000000  0.7289470000000  0.5812560000000 1.0
C      1  0.3481780000000  0.7018340000000  0.3735290000000 1.0
C      1  0.2656010000000  0.5310500000000  0.6698970000000 1.0
C      1  0.2833270000000  0.4000060000000  0.3962210000000 1.0
C      1  0.3575210000000  0.3128760000000  0.6004730000000 1.0
C      1  0.5142070000000  0.2751810000000  0.4053020000000 1.0
C      1  0.5948520000000  0.2733550000000  0.5732660000000 1.0
C      1  0.7019810000000  0.4019180000000  0.4099920000000 1.0
C      1  0.7304890000000  0.5021160000000  0.5813810000000 1.0
C      1  0.7065980000000  0.6580100000000  0.4434640000000 1.0
C      1  0.5751150000000  0.7746920000000  0.5843440000000 1.0
C      1  0.4229680000000  0.7357180000000  0.4183610000000 1.0
C      1  0.2757960000000  0.6134360000000  0.6089350000000 1.0
C      1  0.2899960000000  0.4821970000000  0.4309650000000 1.0
C      1  0.2762060000000  0.3345100000000  0.5594400000000 1.0
C      1  0.4418360000000  0.2327830000000  0.4265960000000 1.0
C      1  0.4951920000000  0.6063220000000  0.7412510000000 1.0
C      1  0.4040030000000  0.5720550000000  0.2679670000000 1.0
C      1  0.4058440000000  0.4630910000000  0.6959690000000 1.0
C      1  0.4117490000000  0.4107760000000  0.2447420000000 1.0
C      1  0.4710570000000  0.4002050000000  0.7102610000000 1.0
C      1  0.5022050000000  0.3926100000000  0.2596210000000 1.0
C      1  0.6022090000000  0.4301980000000  0.7346570000000 1.0
C      1  0.6030210000000  0.5327490000000  0.2887660000000 1.0
C      1  0.5853470000000  0.5894100000000  0.7594350000000 1.0
C      1  0.5381440000000  0.5974330000000  0.2781170000000 1.0
C      1  0.5583640000000  0.7211120000000  0.5081040000000 1.0
C      1  0.3679940000000  0.6578360000000  0.4624430000000 1.0
C      1  0.3220170000000  0.6358290000000  0.5352290000000 1.0
C      1  0.3183660000000  0.3902490000000  0.4959720000000 1.0
C      1  0.4059090000000  0.3553670000000  0.5281140000000 1.0
C      1  0.4762750000000  0.2983400000000  0.4894420000000 1.0
C      1  0.5929120000000  0.3591620000000  0.5256860000000 1.0
C      1  0.6478220000000  0.4301210000000  0.4845610000000 1.0
C      1  0.6632770000000  0.5233800000000  0.5143690000000 1.0
C      1  0.6159600000000  0.6473380000000  0.4770520000000 1.0
C      1  0.4171480000000  0.5623590000000  0.7054100000000 1.0
C      1  0.3593580000000  0.4917020000000  0.2686680000000 1.0
C      1  0.3068510000000  0.4454900000000  0.6801410000000 1.0
C      1  0.4352190000000  0.3433780000000  0.3020290000000 1.0
C      1  0.5502370000000  0.3503360000000  0.7284790000000 1.0
C      1  0.5826410000000  0.4344950000000  0.2924370000000 1.0
C      1  0.6455850000000  0.5123810000000  0.7375730000000 1.0
C      1  0.7004150000000  0.5459780000000  0.3118970000000 1.0
C      1  0.5640410000000  0.6563020000000  0.7009320000000 1.0
C      1  0.4597010000000  0.6490220000000  0.2661220000000 1.0
END
