TITL C-1525613-7943-814 0.0854134704443794 3375 -8858.44667973535 0 0 60 (C5) n - 1
REM
REM in /home/nfs/bkarasulu/CARBON/AIRSS/Generating-Clusters/ReaxFF-fromJPCA2015/Units_Real/Try2-Higher-symm/Only-C60
REM
REM
REM
REM
REM
REM ./C.cell (863b2abdce7293c0672fb3ba77bf323a)
REM AIRSS Version 0.9.1 bugfix July 2018 build 013d7b7c2542+ Fri, 06 Jul 2018 19:26:36 +0100
REM compiler GCC version 9.2.1 20190827 (Red Hat 9.2.1-1)
REM options -cpp -mtune=generic -march=x86-64 -g -O0 -fpre-include=/usr/include/finclude/math-vector-fortran.h
REM seed 1369274594 516166905 -1345431392 -1563892571 1664783455 494812894 -886337487 1192225921 -2044998055 -368630562 1112669562 1473065619 1955861239 -121847217 572387334 -1085578740 -2132234907 -1839561123 1987131076 -2074471836 571595280 -192870210 1721068754 -1961320418 1075312387 -416091046 169274370 1609427456 2075038688 -512781756 417759213 -1713100478 1345309567
REM
CELL 1.54180   15.00000   15.00000   15.00000   90.00000   90.00000   90.00000
LATT -1
SFAC C  
C      1  0.7938950000000  0.4620390000000  0.3726770000000 1.0
C      1  0.6269790000000  0.7677580000000  0.3722630000000 1.0
C      1  0.2846310000000  0.7033540000000  0.3725120000000 1.0
C      1  0.2401000000000  0.3580250000000  0.3725890000000 1.0
C      1  0.5547430000000  0.2090440000000  0.3724830000000 1.0
C      1  0.7939030000000  0.5379450000000  0.3726740000000 1.0
C      1  0.6269850000000  0.2322510000000  0.3722440000000 1.0
C      1  0.2846070000000  0.2966290000000  0.3725080000000 1.0
C      1  0.2400080000000  0.6420360000000  0.3724510000000 1.0
C      1  0.5547410000000  0.7909650000000  0.3724920000000 1.0
C      1  0.6456590000000  0.5481630000000  0.4047750000000 1.0
C      1  0.4991930000000  0.6532980000000  0.4050820000000 1.0
C      1  0.3538430000000  0.5466230000000  0.4048280000000 1.0
C      1  0.4103630000000  0.3753150000000  0.4047500000000 1.0
C      1  0.5907790000000  0.3763270000000  0.4047050000000 1.0
C      1  0.6456510000000  0.4518380000000  0.4047820000000 1.0
C      1  0.4991960000000  0.3466990000000  0.4050980000000 1.0
C      1  0.3537350000000  0.4533390000000  0.4048510000000 1.0
C      1  0.4103720000000  0.6246900000000  0.4047590000000 1.0
C      1  0.5907830000000  0.6236840000000  0.4046880000000 1.0
C      1  0.5006030000000  0.3412660000000  0.6651950000000 1.0
C      1  0.6513260000000  0.4514400000000  0.6654450000000 1.0
C      1  0.5929730000000  0.6288550000000  0.6654470000000 1.0
C      1  0.4061050000000  0.6282660000000  0.6654780000000 1.0
C      1  0.3491510000000  0.4503440000000  0.6653870000000 1.0
C      1  0.5005900000000  0.6587350000000  0.6651990000000 1.0
C      1  0.6513250000000  0.5485530000000  0.6654470000000 1.0
C      1  0.5929820000000  0.3711470000000  0.6654500000000 1.0
C      1  0.4060980000000  0.3717390000000  0.6654780000000 1.0
C      1  0.3491420000000  0.5496600000000  0.6654000000000 1.0
C      1  0.2722740000000  0.5495420000000  0.6021290000000 1.0
C      1  0.3824240000000  0.2986260000000  0.6021610000000 1.0
C      1  0.6551660000000  0.3260360000000  0.6021560000000 1.0
C      1  0.7134790000000  0.5938190000000  0.6021610000000 1.0
C      1  0.4767090000000  0.7319290000000  0.6020440000000 1.0
C      1  0.2722760000000  0.4504630000000  0.6021200000000 1.0
C      1  0.3824200000000  0.7013760000000  0.6021750000000 1.0
C      1  0.6551660000000  0.6739670000000  0.6021490000000 1.0
C      1  0.7134750000000  0.4061790000000  0.6021740000000 1.0
C      1  0.4767120000000  0.2680620000000  0.6020330000000 1.0
C      1  0.3625870000000  0.2905570000000  0.4321460000000 1.0
C      1  0.6567760000000  0.3045730000000  0.4321010000000 1.0
C      1  0.7342720000000  0.5888350000000  0.4322450000000 1.0
C      1  0.4877800000000  0.7502240000000  0.4322320000000 1.0
C      1  0.2582410000000  0.5658140000000  0.4321810000000 1.0
C      1  0.3626020000000  0.7094330000000  0.4321620000000 1.0
C      1  0.6567830000000  0.6954310000000  0.4321000000000 1.0
C      1  0.7342550000000  0.4111550000000  0.4322470000000 1.0
C      1  0.4877860000000  0.2497730000000  0.4322340000000 1.0
C      1  0.2583730000000  0.4341300000000  0.4321950000000 1.0
C      1  0.3278820000000  0.6847960000000  0.5228530000000 1.0
C      1  0.2711080000000  0.3934230000000  0.5228890000000 1.0
C      1  0.5307090000000  0.2493200000000  0.5230250000000 1.0
C      1  0.7478040000000  0.4517740000000  0.5230350000000 1.0
C      1  0.6224810000000  0.7207870000000  0.5229900000000 1.0
C      1  0.3278850000000  0.3152070000000  0.5228460000000 1.0
C      1  0.2711200000000  0.6066330000000  0.5230340000000 1.0
C      1  0.5307050000000  0.7506740000000  0.5230260000000 1.0
C      1  0.7478050000000  0.5482240000000  0.5230310000000 1.0
C      1  0.6224850000000  0.2792120000000  0.5229880000000 1.0
END
