TITL C-1525613-7943-7683 0.0572242533532005 3375 -9026.02621053808 0 0 60 (D5) n - 1
REM
REM in /home/nfs/bkarasulu/CARBON/AIRSS/Generating-Clusters/ReaxFF-fromJPCA2015/Units_Real/Try2-Higher-symm/Only-C60
REM
REM
REM
REM
REM
REM ./C.cell (863b2abdce7293c0672fb3ba77bf323a)
REM AIRSS Version 0.9.1 bugfix July 2018 build 013d7b7c2542+ Fri, 06 Jul 2018 19:26:36 +0100
REM compiler GCC version 9.2.1 20190827 (Red Hat 9.2.1-1)
REM options -cpp -mtune=generic -march=x86-64 -g -O0 -fpre-include=/usr/include/finclude/math-vector-fortran.h
REM seed -278880922 -1225309598 -1305400550 317403216 1366781062 -430648930 175895203 1766808613 1899802759 -1142561558 -1428524285 -1533945175 -407681084 1312341134 1561669002 -98837469 1291893098 898708306 2139425976 651619199 478216008 1256192322 1975086068 1050547605 -198424467 2040433803 -1473411145 -771990871 -230977274 1575624337 -1073764611 1170415122 -2067427309
REM
CELL 1.54180   15.00000   15.00000   15.00000   90.00000   90.00000   90.00000
LATT -1
SFAC C  
C      1  0.2468860000000  0.4043390000000  0.5514850000000 1.0
C      1  0.5131740000000  0.2301240000000  0.5510690000000 1.0
C      1  0.7606020000000  0.4297460000000  0.5509930000000 1.0
C      1  0.6475800000000  0.7255030000000  0.5509090000000 1.0
C      1  0.3300090000000  0.7101350000000  0.5514020000000 1.0
C      1  0.7530900000000  0.4043590000000  0.4485190000000 1.0
C      1  0.4867870000000  0.2299700000000  0.4487170000000 1.0
C      1  0.2394250000000  0.4295750000000  0.4490010000000 1.0
C      1  0.3524330000000  0.7255220000000  0.4492040000000 1.0
C      1  0.6700020000000  0.7101030000000  0.4487000000000 1.0
C      1  0.6687370000000  0.6633580000000  0.6251820000000 1.0
C      1  0.3964370000000  0.7102660000000  0.6249460000000 1.0
C      1  0.2661640000000  0.4672170000000  0.6257220000000 1.0
C      1  0.4592680000000  0.2696340000000  0.6242300000000 1.0
C      1  0.7072430000000  0.3902280000000  0.6246270000000 1.0
C      1  0.3313300000000  0.6632170000000  0.3750560000000 1.0
C      1  0.6035770000000  0.7103910000000  0.3751290000000 1.0
C      1  0.7338590000000  0.4672400000000  0.3742090000000 1.0
C      1  0.5407640000000  0.2695180000000  0.3755570000000 1.0
C      1  0.2927390000000  0.3900420000000  0.3753720000000 1.0
C      1  0.4338730000000  0.7459340000000  0.4176420000000 1.0
C      1  0.2448150000000  0.5131250000000  0.4169650000000 1.0
C      1  0.4088540000000  0.2610770000000  0.4169420000000 1.0
C      1  0.6991320000000  0.3401060000000  0.4168450000000 1.0
C      1  0.7150300000000  0.6393520000000  0.4165830000000 1.0
C      1  0.5661540000000  0.7458990000000  0.5824740000000 1.0
C      1  0.7552830000000  0.5132850000000  0.5830950000000 1.0
C      1  0.5911010000000  0.2612350000000  0.5828000000000 1.0
C      1  0.3007610000000  0.3400530000000  0.5832220000000 1.0
C      1  0.2849160000000  0.6394400000000  0.5834330000000 1.0
C      1  0.3503290000000  0.4598220000000  0.6767830000000 1.0
C      1  0.4919910000000  0.3477620000000  0.6746820000000 1.0
C      1  0.6435280000000  0.4455120000000  0.6757490000000 1.0
C      1  0.5962430000000  0.6194010000000  0.6758090000000 1.0
C      1  0.4157270000000  0.6277940000000  0.6755730000000 1.0
C      1  0.6495910000000  0.4598710000000  0.3232590000000 1.0
C      1  0.5079450000000  0.3476120000000  0.3251120000000 1.0
C      1  0.3564870000000  0.4454040000000  0.3242450000000 1.0
C      1  0.4038440000000  0.6192420000000  0.3244000000000 1.0
C      1  0.5842950000000  0.6278830000000  0.3244140000000 1.0
C      1  0.2660030000000  0.5680350000000  0.6400020000000 1.0
C      1  0.3629850000000  0.2997230000000  0.6394290000000 1.0
C      1  0.6482330000000  0.3083830000000  0.6390060000000 1.0
C      1  0.7285480000000  0.5821310000000  0.6396640000000 1.0
C      1  0.4923500000000  0.7416850000000  0.6389700000000 1.0
C      1  0.7340150000000  0.5679670000000  0.3599430000000 1.0
C      1  0.6369790000000  0.2997730000000  0.3605410000000 1.0
C      1  0.3516330000000  0.3081630000000  0.3607710000000 1.0
C      1  0.2715060000000  0.5821010000000  0.3604590000000 1.0
C      1  0.5077250000000  0.7417840000000  0.3611330000000 1.0
C      1  0.3997470000000  0.3767260000000  0.6936960000000 1.0
C      1  0.5863360000000  0.3673700000000  0.6929600000000 1.0
C      1  0.6534650000000  0.5414240000000  0.6938210000000 1.0
C      1  0.5077530000000  0.6578790000000  0.6933160000000 1.0
C      1  0.3507630000000  0.5565970000000  0.6939570000000 1.0
C      1  0.6001800000000  0.3766890000000  0.3062690000000 1.0
C      1  0.4135950000000  0.3672320000000  0.3069050000000 1.0
C      1  0.3465170000000  0.5413590000000  0.3063450000000 1.0
C      1  0.4922910000000  0.6580630000000  0.3067820000000 1.0
C      1  0.6493710000000  0.5566220000000  0.3059750000000 1.0
END
