TITL C-1525613-7943-6717 -0.0197033715498662 3375 -8598.02649732706 0 0 60 (Cs) n - 1
REM
REM in /home/nfs/bkarasulu/CARBON/AIRSS/Generating-Clusters/ReaxFF-fromJPCA2015/Units_Real/Try2-Higher-symm/Only-C60
REM
REM
REM
REM
REM
REM ./C.cell (863b2abdce7293c0672fb3ba77bf323a)
REM AIRSS Version 0.9.1 bugfix July 2018 build 013d7b7c2542+ Fri, 06 Jul 2018 19:26:36 +0100
REM compiler GCC version 9.2.1 20190827 (Red Hat 9.2.1-1)
REM options -cpp -mtune=generic -march=x86-64 -g -O0 -fpre-include=/usr/include/finclude/math-vector-fortran.h
REM seed -1914662706 -498185686 1709937132 -214223185 1055580504 1336421229 -218697206 732756336 -1590659516 -880808359 -623864249 1434276158 -668906413 -1660032518 254246697 488651917 986520991 270458987 422026509 1247340723 -1573744726 1016261568 -106324402 -463313365 1062411395 -1060082789 5209444 516964813 2088659438 -1230807314 1155818242 -2030359498 164999554
REM
CELL 1.54180   15.00000   15.00000   15.00000   90.00000   90.00000   90.00000
LATT -1
SFAC C  
C      1  0.7132680000000  0.5537650000000  0.4692970000000 1.0
C      1  0.5382320000000  0.5580690000000  0.3027430000000 1.0
C      1  0.3242010000000  0.5591420000000  0.4037070000000 1.0
C      1  0.3535370000000  0.5585370000000  0.6377950000000 1.0
C      1  0.5862190000000  0.5576630000000  0.6812750000000 1.0
C      1  0.7133060000000  0.4462220000000  0.4692960000000 1.0
C      1  0.5382320000000  0.4419330000000  0.3027390000000 1.0
C      1  0.3241880000000  0.4408540000000  0.4037110000000 1.0
C      1  0.3535070000000  0.4414350000000  0.6378220000000 1.0
C      1  0.5862220000000  0.4423510000000  0.6812890000000 1.0
C      1  0.5112740000000  0.7122770000000  0.6577380000000 1.0
C      1  0.6531950000000  0.7080600000000  0.5376390000000 1.0
C      1  0.5837390000000  0.7112890000000  0.3666190000000 1.0
C      1  0.3987780000000  0.7136210000000  0.3803250000000 1.0
C      1  0.3526490000000  0.7136140000000  0.5605410000000 1.0
C      1  0.5112700000000  0.2877260000000  0.6577350000000 1.0
C      1  0.6531940000000  0.2919390000000  0.5376400000000 1.0
C      1  0.5837400000000  0.2887200000000  0.3666180000000 1.0
C      1  0.3987780000000  0.2863770000000  0.3803260000000 1.0
C      1  0.3526420000000  0.2863920000000  0.5605420000000 1.0
C      1  0.6561500000000  0.4114620000000  0.6243250000000 1.0
C      1  0.6741570000000  0.4129020000000  0.3911080000000 1.0
C      1  0.4493690000000  0.4078460000000  0.3031630000000 1.0
C      1  0.2968490000000  0.4075290000000  0.4886270000000 1.0
C      1  0.4256640000000  0.4084030000000  0.6907860000000 1.0
C      1  0.6561580000000  0.5885430000000  0.6243440000000 1.0
C      1  0.6740750000000  0.5870850000000  0.3911490000000 1.0
C      1  0.4493810000000  0.5921420000000  0.3031960000000 1.0
C      1  0.2968570000000  0.5924680000000  0.4886180000000 1.0
C      1  0.4257030000000  0.5915760000000  0.6907340000000 1.0
C      1  0.5805160000000  0.5506070000000  0.4925630000000 1.0
C      1  0.5145210000000  0.5516270000000  0.4168330000000 1.0
C      1  0.4231890000000  0.5496080000000  0.4567370000000 1.0
C      1  0.4327170000000  0.5506690000000  0.5558930000000 1.0
C      1  0.5301850000000  0.5529900000000  0.5789010000000 1.0
C      1  0.5805300000000  0.4493730000000  0.4925860000000 1.0
C      1  0.5145350000000  0.4483880000000  0.4168120000000 1.0
C      1  0.4231710000000  0.4504430000000  0.4567210000000 1.0
C      1  0.4327070000000  0.4492450000000  0.5559070000000 1.0
C      1  0.5301950000000  0.4471050000000  0.5789500000000 1.0
C      1  0.4374460000000  0.7302370000000  0.6005980000000 1.0
C      1  0.5749850000000  0.7271460000000  0.5887080000000 1.0
C      1  0.6094130000000  0.7303390000000  0.4561680000000 1.0
C      1  0.4922330000000  0.7298300000000  0.3852040000000 1.0
C      1  0.3860840000000  0.7306240000000  0.4731330000000 1.0
C      1  0.4374400000000  0.2697650000000  0.6005970000000 1.0
C      1  0.5749820000000  0.2728560000000  0.5887060000000 1.0
C      1  0.6094110000000  0.2696640000000  0.4561690000000 1.0
C      1  0.4922330000000  0.2701720000000  0.3852060000000 1.0
C      1  0.3860810000000  0.2693800000000  0.4731340000000 1.0
C      1  0.3029960000000  0.6216320000000  0.5741820000000 1.0
C      1  0.5098830000000  0.6203870000000  0.7093610000000 1.0
C      1  0.7022190000000  0.6143340000000  0.5504760000000 1.0
C      1  0.6158470000000  0.6190420000000  0.3288210000000 1.0
C      1  0.3705240000000  0.6220260000000  0.3366890000000 1.0
C      1  0.3029660000000  0.3783630000000  0.5741940000000 1.0
C      1  0.5098740000000  0.3796150000000  0.7093490000000 1.0
C      1  0.7022270000000  0.3856740000000  0.5504640000000 1.0
C      1  0.6158430000000  0.3809480000000  0.3288030000000 1.0
C      1  0.3705180000000  0.3779720000000  0.3366910000000 1.0
END
