TITL C-1525613-7943-4973 -0.000277774623435362 3375 -9089.37742663629 0 0 60 (D5d) n - 1
REM
REM in /home/nfs/bkarasulu/CARBON/AIRSS/Generating-Clusters/ReaxFF-fromJPCA2015/Units_Real/Try2-Higher-symm/Only-C60
REM
REM
REM
REM
REM
REM ./C.cell (863b2abdce7293c0672fb3ba77bf323a)
REM AIRSS Version 0.9.1 bugfix July 2018 build 013d7b7c2542+ Fri, 06 Jul 2018 19:26:36 +0100
REM compiler GCC version 9.2.1 20190827 (Red Hat 9.2.1-1)
REM options -cpp -mtune=generic -march=x86-64 -g -O0 -fpre-include=/usr/include/finclude/math-vector-fortran.h
REM seed 1519290972 545243902 920106734 1841940214 79934183 -770559952 -1489548031 609307101 -84312306 1561227784 -1950596867 -1972858503 1782526775 -1895890108 745222698 -1530493514 -1308954249 534152036 -726728970 1798063415 837796661 -258516921 -447279092 -2111591337 -687277883 -1282444159 -1116001775 -1498121657 -1928479434 -1525445424 -950060127 -443711759 625186298
REM
CELL 1.54180   15.00000   15.00000   15.00000   90.00000   90.00000   90.00000
LATT -1
SFAC C  
C      1  0.3690370000000  0.2907070000000  0.6194080000000 1.0
C      1  0.3683790000000  0.5483380000000  0.7359450000000 1.0
C      1  0.3694800000000  0.7390930000000  0.5263140000000 1.0
C      1  0.3689340000000  0.5988150000000  0.2809910000000 1.0
C      1  0.3689380000000  0.3220810000000  0.3385630000000 1.0
C      1  0.3692690000000  0.7090140000000  0.6193800000000 1.0
C      1  0.3697440000000  0.4512990000000  0.7344160000000 1.0
C      1  0.3689580000000  0.2606780000000  0.5262830000000 1.0
C      1  0.3689010000000  0.4012760000000  0.2810900000000 1.0
C      1  0.3690320000000  0.6780260000000  0.3384070000000 1.0
C      1  0.3296290000000  0.3760640000000  0.4106050000000 1.0
C      1  0.3296670000000  0.3758500000000  0.5905440000000 1.0
C      1  0.3283600000000  0.5474670000000  0.6460060000000 1.0
C      1  0.3297110000000  0.6533260000000  0.4998360000000 1.0
C      1  0.3295210000000  0.5471570000000  0.3546520000000 1.0
C      1  0.3296000000000  0.6241530000000  0.4104250000000 1.0
C      1  0.3292260000000  0.6238510000000  0.5904110000000 1.0
C      1  0.3302120000000  0.4519300000000  0.6458950000000 1.0
C      1  0.3295510000000  0.3467620000000  0.5000440000000 1.0
C      1  0.3295810000000  0.4530130000000  0.3547530000000 1.0
C      1  0.6299660000000  0.7117010000000  0.3792300000000 1.0
C      1  0.6297630000000  0.4508340000000  0.2613380000000 1.0
C      1  0.6298210000000  0.2580560000000  0.4729490000000 1.0
C      1  0.6293860000000  0.3996700000000  0.7216640000000 1.0
C      1  0.6297040000000  0.6802520000000  0.6635340000000 1.0
C      1  0.6298230000000  0.2882980000000  0.3796730000000 1.0
C      1  0.6298340000000  0.5488910000000  0.2612010000000 1.0
C      1  0.6302200000000  0.7421570000000  0.4724580000000 1.0
C      1  0.6298880000000  0.6011160000000  0.7215350000000 1.0
C      1  0.6297820000000  0.3202770000000  0.6641170000000 1.0
C      1  0.5326020000000  0.6105680000000  0.7318290000000 1.0
C      1  0.5329760000000  0.7542290000000  0.4667180000000 1.0
C      1  0.5326020000000  0.5469680000000  0.2479070000000 1.0
C      1  0.5326440000000  0.2747530000000  0.3773690000000 1.0
C      1  0.5326000000000  0.3136000000000  0.6760780000000 1.0
C      1  0.5322300000000  0.3897580000000  0.7312880000000 1.0
C      1  0.5326580000000  0.2456470000000  0.4668380000000 1.0
C      1  0.5325540000000  0.4528840000000  0.2479880000000 1.0
C      1  0.5327620000000  0.7251180000000  0.3772540000000 1.0
C      1  0.5326450000000  0.6864070000000  0.6760490000000 1.0
C      1  0.6730650000000  0.6277520000000  0.5918350000000 1.0
C      1  0.6736290000000  0.6272810000000  0.4067710000000 1.0
C      1  0.6735840000000  0.4510170000000  0.3500770000000 1.0
C      1  0.6733520000000  0.3426330000000  0.5002700000000 1.0
C      1  0.6728250000000  0.4519140000000  0.6497280000000 1.0
C      1  0.6735200000000  0.3725970000000  0.5924180000000 1.0
C      1  0.6734940000000  0.3727520000000  0.4071660000000 1.0
C      1  0.6737670000000  0.5488820000000  0.3498900000000 1.0
C      1  0.6742150000000  0.6578190000000  0.4997750000000 1.0
C      1  0.6735350000000  0.5488080000000  0.6498320000000 1.0
C      1  0.4654620000000  0.3131930000000  0.3237870000000 1.0
C      1  0.4655570000000  0.2740410000000  0.6231920000000 1.0
C      1  0.4651990000000  0.5477020000000  0.7535520000000 1.0
C      1  0.4658730000000  0.7545810000000  0.5328790000000 1.0
C      1  0.4654980000000  0.6099240000000  0.2679260000000 1.0
C      1  0.4655750000000  0.6867780000000  0.3237000000000 1.0
C      1  0.4658120000000  0.7252200000000  0.6231070000000 1.0
C      1  0.4649040000000  0.4521030000000  0.7522710000000 1.0
C      1  0.4655210000000  0.2448830000000  0.5328180000000 1.0
C      1  0.4654230000000  0.3900370000000  0.2680230000000 1.0
END
