TITL C-1525613-7943-3911 0.160813197429256 3375 -8911.1102021286 0 0 60 (C5) n - 1
REM
REM in /home/nfs/bkarasulu/CARBON/AIRSS/Generating-Clusters/ReaxFF-fromJPCA2015/Units_Real/Try2-Higher-symm/Only-C60
REM
REM
REM
REM
REM
REM ./C.cell (863b2abdce7293c0672fb3ba77bf323a)
REM AIRSS Version 0.9.1 bugfix July 2018 build 013d7b7c2542+ Fri, 06 Jul 2018 19:26:36 +0100
REM compiler GCC version 9.2.1 20190827 (Red Hat 9.2.1-1)
REM options -cpp -mtune=generic -march=x86-64 -g -O0 -fpre-include=/usr/include/finclude/math-vector-fortran.h
REM seed -402766753 -2080121063 1145895347 1232474524 1966317293 320938967 -1321843530 432012181 838217730 -394094997 -722556388 -2067395807 -1834351418 680904105 643247539 2101280348 -87324146 332337040 -1085559207 1280136192 -1173283199 1002872041 559692219 223425025 -111950437 -57801213 275912160 1146218274 1702219033 419051505 542540273 -1666077087 75350278
REM
CELL 1.54180   15.00000   15.00000   15.00000   90.00000   90.00000   90.00000
LATT -1
SFAC C  
C      1  0.2501720000000  0.5340030000000  0.4507540000000 1.0
C      1  0.4684230000000  0.5345870000000  0.2482480000000 1.0
C      1  0.7311050000000  0.5337210000000  0.3935880000000 1.0
C      1  0.6735670000000  0.5341320000000  0.6860490000000 1.0
C      1  0.3756880000000  0.5333030000000  0.7221520000000 1.0
C      1  0.2508460000000  0.5342830000000  0.5488130000000 1.0
C      1  0.4684300000000  0.5345980000000  0.7518000000000 1.0
C      1  0.7311670000000  0.5337930000000  0.6063790000000 1.0
C      1  0.6735760000000  0.5341040000000  0.3139410000000 1.0
C      1  0.3757550000000  0.5333750000000  0.2778640000000 1.0
C      1  0.3558640000000  0.3286280000000  0.5470810000000 1.0
C      1  0.4107820000000  0.3286550000000  0.3773110000000 1.0
C      1  0.5889510000000  0.3286270000000  0.3771600000000 1.0
C      1  0.6443180000000  0.3286550000000  0.5467950000000 1.0
C      1  0.5002410000000  0.3286210000000  0.6516950000000 1.0
C      1  0.3558520000000  0.3285830000000  0.4529500000000 1.0
C      1  0.4107610000000  0.3286640000000  0.6227040000000 1.0
C      1  0.5889630000000  0.3286060000000  0.6228480000000 1.0
C      1  0.6443080000000  0.3286320000000  0.4532160000000 1.0
C      1  0.5002620000000  0.3286290000000  0.3483170000000 1.0
C      1  0.6538980000000  0.3805550000000  0.3272940000000 1.0
C      1  0.7117630000000  0.3802470000000  0.5932390000000 1.0
C      1  0.4769630000000  0.3805400000000  0.7301550000000 1.0
C      1  0.2738760000000  0.3802340000000  0.5490970000000 1.0
C      1  0.3835360000000  0.3801930000000  0.3000680000000 1.0
C      1  0.6539140000000  0.3805400000000  0.6726770000000 1.0
C      1  0.7117590000000  0.3802530000000  0.4067650000000 1.0
C      1  0.4769970000000  0.3805390000000  0.2698470000000 1.0
C      1  0.2738380000000  0.3801280000000  0.4508940000000 1.0
C      1  0.3835160000000  0.3802270000000  0.6999140000000 1.0
C      1  0.6493530000000  0.6953010000000  0.4518450000000 1.0
C      1  0.5915850000000  0.6962710000000  0.6260730000000 1.0
C      1  0.4082200000000  0.6950230000000  0.6266240000000 1.0
C      1  0.3515450000000  0.6958090000000  0.4513290000000 1.0
C      1  0.5002490000000  0.6963650000000  0.3440640000000 1.0
C      1  0.6493140000000  0.6946340000000  0.5486200000000 1.0
C      1  0.5919890000000  0.6954690000000  0.3742880000000 1.0
C      1  0.4081750000000  0.6952580000000  0.3734420000000 1.0
C      1  0.3515850000000  0.6958590000000  0.5487440000000 1.0
C      1  0.5001550000000  0.6965250000000  0.6560410000000 1.0
C      1  0.3986900000000  0.6018320000000  0.6573960000000 1.0
C      1  0.3198110000000  0.6027490000000  0.4521670000000 1.0
C      1  0.4903330000000  0.6036310000000  0.3134470000000 1.0
C      1  0.6738740000000  0.6036200000000  0.4293450000000 1.0
C      1  0.6170900000000  0.6034640000000  0.6451070000000 1.0
C      1  0.3986270000000  0.6018040000000  0.3428590000000 1.0
C      1  0.3198770000000  0.6030960000000  0.5481340000000 1.0
C      1  0.4901950000000  0.6037590000000  0.6865000000000 1.0
C      1  0.6743640000000  0.6031100000000  0.5703950000000 1.0
C      1  0.6168750000000  0.6031230000000  0.3543510000000 1.0
C      1  0.7503580000000  0.4580030000000  0.5489390000000 1.0
C      1  0.5307060000000  0.4586280000000  0.7522240000000 1.0
C      1  0.2687620000000  0.4584850000000  0.6070140000000 1.0
C      1  0.3263960000000  0.4582550000000  0.3130250000000 1.0
C      1  0.6233690000000  0.4584530000000  0.2778850000000 1.0
C      1  0.7503060000000  0.4580810000000  0.4509830000000 1.0
C      1  0.5306640000000  0.4586930000000  0.2477820000000 1.0
C      1  0.2686800000000  0.4582450000000  0.3927910000000 1.0
C      1  0.3263790000000  0.4583170000000  0.6868880000000 1.0
C      1  0.6233810000000  0.4584840000000  0.7220860000000 1.0
END
