TITL C-1525613-7943-3339 -0.000933344893299169 3375 -9533.37943686118 0 0 60 (D5d) n - 1
REM
REM in /home/nfs/bkarasulu/CARBON/AIRSS/Generating-Clusters/ReaxFF-fromJPCA2015/Units_Real/Try2-Higher-symm/Only-C60
REM
REM
REM
REM
REM
REM ./C.cell (863b2abdce7293c0672fb3ba77bf323a)
REM AIRSS Version 0.9.1 bugfix July 2018 build 013d7b7c2542+ Fri, 06 Jul 2018 19:26:36 +0100
REM compiler GCC version 9.2.1 20190827 (Red Hat 9.2.1-1)
REM options -cpp -mtune=generic -march=x86-64 -g -O0 -fpre-include=/usr/include/finclude/math-vector-fortran.h
REM seed -1456567665 681236727 373721100 -975376655 1633069887 337841573 -1958824310 -1821852052 -1832929536 -1515184489 220150061 -767034988 232850684 -1066299464 84610391 1628673037 -2100665059 1566780455 1109143178 855436036 -1370014565 732890665 -357389842 -2064337029 -1169268270 -851445167 680792587 1374882421 1474787858 1091811721 357592554 139025455 -368527799
REM
CELL 1.54180   15.00000   15.00000   15.00000   90.00000   90.00000   90.00000
LATT -1
SFAC C  
C      1  0.2971900000000  0.5407740000000  0.6163560000000 1.0
C      1  0.5479710000000  0.5408750000000  0.7288550000000 1.0
C      1  0.7324250000000  0.5410530000000  0.5250990000000 1.0
C      1  0.5956470000000  0.5410570000000  0.2866940000000 1.0
C      1  0.3266530000000  0.5408860000000  0.3430940000000 1.0
C      1  0.7027850000000  0.5410040000000  0.6163620000000 1.0
C      1  0.4520130000000  0.5408220000000  0.7288490000000 1.0
C      1  0.2675290000000  0.5407850000000  0.5251000000000 1.0
C      1  0.4042790000000  0.5409490000000  0.2866900000000 1.0
C      1  0.6732730000000  0.5410840000000  0.3430980000000 1.0
C      1  0.3420560000000  0.3099880000000  0.4992640000000 1.0
C      1  0.4506430000000  0.3100140000000  0.6500210000000 1.0
C      1  0.6275860000000  0.3101170000000  0.5933630000000 1.0
C      1  0.6283560000000  0.3101770000000  0.4075750000000 1.0
C      1  0.4518960000000  0.3101030000000  0.3494230000000 1.0
C      1  0.6581550000000  0.3101730000000  0.4992610000000 1.0
C      1  0.5495850000000  0.3100630000000  0.6500250000000 1.0
C      1  0.3726420000000  0.3099770000000  0.5933620000000 1.0
C      1  0.3718430000000  0.3100300000000  0.4075740000000 1.0
C      1  0.5483020000000  0.3101560000000  0.3494240000000 1.0
C      1  0.6733500000000  0.4591150000000  0.6569160000000 1.0
C      1  0.7028100000000  0.4592280000000  0.3836500000000 1.0
C      1  0.4520330000000  0.4591200000000  0.2711660000000 1.0
C      1  0.2675680000000  0.4589450000000  0.4749100000000 1.0
C      1  0.4043500000000  0.4589470000000  0.7133140000000 1.0
C      1  0.3267180000000  0.4589210000000  0.6569140000000 1.0
C      1  0.2972140000000  0.4589970000000  0.3836490000000 1.0
C      1  0.5479870000000  0.4591740000000  0.2711660000000 1.0
C      1  0.7324680000000  0.4592140000000  0.4749060000000 1.0
C      1  0.5957210000000  0.4590500000000  0.7133190000000 1.0
C      1  0.3338190000000  0.3783420000000  0.3500930000000 1.0
C      1  0.3061740000000  0.3782430000000  0.6117510000000 1.0
C      1  0.5464800000000  0.3783420000000  0.7189060000000 1.0
C      1  0.7226480000000  0.3785120000000  0.5234820000000 1.0
C      1  0.5912140000000  0.3785100000000  0.2955490000000 1.0
C      1  0.6662990000000  0.3785340000000  0.3500930000000 1.0
C      1  0.6939770000000  0.3784600000000  0.6117470000000 1.0
C      1  0.4536760000000  0.3782930000000  0.7189050000000 1.0
C      1  0.2774880000000  0.3782570000000  0.5234890000000 1.0
C      1  0.4089030000000  0.3784070000000  0.2955490000000 1.0
C      1  0.6661830000000  0.6216490000000  0.6499140000000 1.0
C      1  0.6938070000000  0.6217600000000  0.3882530000000 1.0
C      1  0.4535170000000  0.6216630000000  0.2810720000000 1.0
C      1  0.2773620000000  0.6214910000000  0.4765130000000 1.0
C      1  0.4087890000000  0.6214880000000  0.7044550000000 1.0
C      1  0.3337160000000  0.6214600000000  0.6498960000000 1.0
C      1  0.3060260000000  0.6215390000000  0.3882460000000 1.0
C      1  0.5463220000000  0.6217120000000  0.2810820000000 1.0
C      1  0.7224960000000  0.6217490000000  0.4765130000000 1.0
C      1  0.5911080000000  0.6215910000000  0.7044720000000 1.0
C      1  0.6273340000000  0.6900200000000  0.4066370000000 1.0
C      1  0.4504060000000  0.6899600000000  0.3499370000000 1.0
C      1  0.3418680000000  0.6898230000000  0.5007230000000 1.0
C      1  0.4517070000000  0.6898390000000  0.6505810000000 1.0
C      1  0.6281540000000  0.6899580000000  0.5924320000000 1.0
C      1  0.3724180000000  0.6898850000000  0.4066140000000 1.0
C      1  0.5493500000000  0.6900030000000  0.3499550000000 1.0
C      1  0.6579210000000  0.6900120000000  0.5007350000000 1.0
C      1  0.5481160000000  0.6899000000000  0.6506000000000 1.0
C      1  0.3716730000000  0.6898000000000  0.5924070000000 1.0
END
