TITL C-1525613-7943-3710 -0.0140780268514265 3375 -9141.4776504467 0 0 60 (C1) n - 1
REM
REM in /home/nfs/bkarasulu/CARBON/AIRSS/Generating-Clusters/ReaxFF-fromJPCA2015/Units_Real/Try2-Higher-symm/Only-C60
REM
REM
REM
REM
REM
REM ./C.cell (863b2abdce7293c0672fb3ba77bf323a)
REM AIRSS Version 0.9.1 bugfix July 2018 build 013d7b7c2542+ Fri, 06 Jul 2018 19:26:36 +0100
REM compiler GCC version 9.2.1 20190827 (Red Hat 9.2.1-1)
REM options -cpp -mtune=generic -march=x86-64 -g -O0 -fpre-include=/usr/include/finclude/math-vector-fortran.h
REM seed 480717144 2068038894 -971834899 1964561191 -178698158 709660691 -699982867 1329094123 -1413584966 1194963515 -1776230393 611942518 838599430 1575155442 1054811755 -490027229 -177979057 -1311246713 59907677 431182058 -359966427 -711243943 2081618771 2129952906 1901632049 -1706524230 1785144968 1663417797 -445157248 1018132606 -985916268 267522043 1596224629
REM
CELL 1.54180   15.00000   15.00000   15.00000   90.00000   90.00000   90.00000
LATT -1
SFAC C  
C      1  0.5449420000000  0.4496370000000  0.7722580000000 1.0
C      1  0.5449910000000  0.7409120000000  0.6348620000000 1.0
C      1  0.5417710000000  0.7018650000000  0.3100280000000 1.0
C      1  0.5442780000000  0.3799420000000  0.2500620000000 1.0
C      1  0.5449270000000  0.2216690000000  0.5377760000000 1.0
C      1  0.5450060000000  0.5503370000000  0.7723550000000 1.0
C      1  0.5448460000000  0.2587310000000  0.6347880000000 1.0
C      1  0.5418700000000  0.2974970000000  0.3095720000000 1.0
C      1  0.5431570000000  0.6193140000000  0.2507140000000 1.0
C      1  0.5451830000000  0.7783200000000  0.5378330000000 1.0
C      1  0.3734940000000  0.5503750000000  0.2521500000000 1.0
C      1  0.3713640000000  0.2805490000000  0.3770730000000 1.0
C      1  0.3762490000000  0.3136100000000  0.6675190000000 1.0
C      1  0.3729430000000  0.6050700000000  0.7292000000000 1.0
C      1  0.3731330000000  0.7491240000000  0.4733160000000 1.0
C      1  0.3739320000000  0.4495450000000  0.2522640000000 1.0
C      1  0.3714740000000  0.7196940000000  0.3770720000000 1.0
C      1  0.3765820000000  0.6867510000000  0.6671360000000 1.0
C      1  0.3725490000000  0.3951690000000  0.7291960000000 1.0
C      1  0.3729530000000  0.2508800000000  0.4732780000000 1.0
C      1  0.3523730000000  0.3451640000000  0.5010950000000 1.0
C      1  0.3470400000000  0.4510660000000  0.6504720000000 1.0
C      1  0.3410950000000  0.6263320000000  0.5929230000000 1.0
C      1  0.3503030000000  0.6265780000000  0.4079430000000 1.0
C      1  0.3551820000000  0.4515800000000  0.3507590000000 1.0
C      1  0.3524100000000  0.6548880000000  0.5009580000000 1.0
C      1  0.3468510000000  0.5492950000000  0.6507050000000 1.0
C      1  0.3410410000000  0.3737290000000  0.5931010000000 1.0
C      1  0.3501150000000  0.3735790000000  0.4080540000000 1.0
C      1  0.3550490000000  0.5485380000000  0.3506690000000 1.0
C      1  0.4548900000000  0.7949720000000  0.5052810000000 1.0
C      1  0.4540640000000  0.5956490000000  0.2168360000000 1.0
C      1  0.4515080000000  0.2616430000000  0.3224160000000 1.0
C      1  0.4611280000000  0.2855260000000  0.6512390000000 1.0
C      1  0.4541910000000  0.5867690000000  0.7813130000000 1.0
C      1  0.4546230000000  0.2048090000000  0.5051620000000 1.0
C      1  0.4550900000000  0.4048480000000  0.2177210000000 1.0
C      1  0.4517960000000  0.7388370000000  0.3226630000000 1.0
C      1  0.4615050000000  0.7143350000000  0.6509660000000 1.0
C      1  0.4540550000000  0.4131980000000  0.7811080000000 1.0
C      1  0.6652930000000  0.5482980000000  0.6481990000000 1.0
C      1  0.6666140000000  0.6622300000000  0.5023030000000 1.0
C      1  0.6650660000000  0.5497170000000  0.3514350000000 1.0
C      1  0.6600530000000  0.3726630000000  0.4091630000000 1.0
C      1  0.6710190000000  0.3677780000000  0.5943650000000 1.0
C      1  0.6654470000000  0.4517750000000  0.6482580000000 1.0
C      1  0.6665970000000  0.3376980000000  0.5020410000000 1.0
C      1  0.6657690000000  0.4500940000000  0.3511680000000 1.0
C      1  0.6603940000000  0.6272700000000  0.4093320000000 1.0
C      1  0.6716370000000  0.6326370000000  0.5947680000000 1.0
C      1  0.6072030000000  0.2936800000000  0.3831600000000 1.0
C      1  0.6181490000000  0.3213850000000  0.6633520000000 1.0
C      1  0.6131220000000  0.5964760000000  0.7171840000000 1.0
C      1  0.6117560000000  0.7403930000000  0.4763510000000 1.0
C      1  0.6100880000000  0.5492460000000  0.2695320000000 1.0
C      1  0.6075600000000  0.7061830000000  0.3832340000000 1.0
C      1  0.6187330000000  0.6788130000000  0.6638320000000 1.0
C      1  0.6130930000000  0.4036310000000  0.7170560000000 1.0
C      1  0.6115570000000  0.2594830000000  0.4762420000000 1.0
C      1  0.6109010000000  0.4502230000000  0.2691930000000 1.0
END
