TITL C-1525613-7943-6485 0.408057931792139 3375 -8751.39908839909 0 0 60 (C5) n - 1
REM
REM in /home/nfs/bkarasulu/CARBON/AIRSS/Generating-Clusters/ReaxFF-fromJPCA2015/Units_Real/Try2-Higher-symm/Only-C60
REM
REM
REM
REM
REM
REM ./C.cell (863b2abdce7293c0672fb3ba77bf323a)
REM AIRSS Version 0.9.1 bugfix July 2018 build 013d7b7c2542+ Fri, 06 Jul 2018 19:26:36 +0100
REM compiler GCC version 9.2.1 20190827 (Red Hat 9.2.1-1)
REM options -cpp -mtune=generic -march=x86-64 -g -O0 -fpre-include=/usr/include/finclude/math-vector-fortran.h
REM seed -144416055 1492949859 -1110026283 -2043611573 1707894079 2059699036 1265316233 -628813396 -41242977 809298407 2049808643 764948469 -1483941646 -1530096589 -1430072965 1851952067 -360505746 -1007421572 1157841253 -728490830 -652273797 -201330260 -167002248 -1532830385 1681269381 -861666171 1466838950 -1391590743 -956160333 19212928 855864527 -447148254 935735654
REM
CELL 1.54180   15.00000   15.00000   15.00000   90.00000   90.00000   90.00000
LATT -1
SFAC C  
C      1  0.3708090000000  0.3202560000000  0.4520110000000 1.0
C      1  0.6308610000000  0.3214910000000  0.4515690000000 1.0
C      1  0.7100440000000  0.5696560000000  0.4517880000000 1.0
C      1  0.4987890000000  0.7206120000000  0.4517670000000 1.0
C      1  0.2889220000000  0.5673550000000  0.4517830000000 1.0
C      1  0.3712340000000  0.3200390000000  0.5479080000000 1.0
C      1  0.6312100000000  0.3223040000000  0.5479040000000 1.0
C      1  0.7100500000000  0.5698280000000  0.5481780000000 1.0
C      1  0.4987710000000  0.7217140000000  0.5482260000000 1.0
C      1  0.2886170000000  0.5669860000000  0.5479650000000 1.0
C      1  0.6954470000000  0.6276890000000  0.6207760000000 1.0
C      1  0.4393500000000  0.7254280000000  0.6210420000000 1.0
C      1  0.2666860000000  0.5119060000000  0.6210040000000 1.0
C      1  0.4167100000000  0.2816250000000  0.6210040000000 1.0
C      1  0.6818430000000  0.3535270000000  0.6208890000000 1.0
C      1  0.6955080000000  0.6277480000000  0.3793510000000 1.0
C      1  0.4385310000000  0.7254150000000  0.3791270000000 1.0
C      1  0.2665640000000  0.5114900000000  0.3790990000000 1.0
C      1  0.4167510000000  0.2811180000000  0.3795230000000 1.0
C      1  0.6816620000000  0.3535400000000  0.3792000000000 1.0
C      1  0.4205740000000  0.4836110000000  0.6829010000000 1.0
C      1  0.4909980000000  0.4193870000000  0.6830310000000 1.0
C      1  0.5737420000000  0.4665690000000  0.6830530000000 1.0
C      1  0.5544000000000  0.5596700000000  0.6830590000000 1.0
C      1  0.4599350000000  0.5703100000000  0.6828940000000 1.0
C      1  0.4206080000000  0.4837670000000  0.3170990000000 1.0
C      1  0.4910650000000  0.4199320000000  0.3169300000000 1.0
C      1  0.5736800000000  0.4668430000000  0.3169690000000 1.0
C      1  0.5542720000000  0.5598970000000  0.3170440000000 1.0
C      1  0.4599630000000  0.5703910000000  0.3171240000000 1.0
C      1  0.2854350000000  0.3644230000000  0.4504050000000 1.0
C      1  0.5627470000000  0.2538790000000  0.4502910000000 1.0
C      1  0.7541150000000  0.4836170000000  0.4506620000000 1.0
C      1  0.5943530000000  0.7362190000000  0.4507190000000 1.0
C      1  0.3050780000000  0.6621620000000  0.4501520000000 1.0
C      1  0.2848220000000  0.3640990000000  0.5489420000000 1.0
C      1  0.5627860000000  0.2528960000000  0.5487920000000 1.0
C      1  0.7544530000000  0.4835360000000  0.5492490000000 1.0
C      1  0.5944680000000  0.7366640000000  0.5493300000000 1.0
C      1  0.3043150000000  0.6630270000000  0.5489200000000 1.0
C      1  0.6221860000000  0.6296330000000  0.3218820000000 1.0
C      1  0.4141660000000  0.6562350000000  0.3216870000000 1.0
C      1  0.3249230000000  0.4669560000000  0.3216810000000 1.0
C      1  0.4775260000000  0.3234030000000  0.3210630000000 1.0
C      1  0.6608040000000  0.4237430000000  0.3218540000000 1.0
C      1  0.6222520000000  0.6293640000000  0.6781910000000 1.0
C      1  0.4148260000000  0.6562000000000  0.6780440000000 1.0
C      1  0.3251420000000  0.4671840000000  0.6781210000000 1.0
C      1  0.4771850000000  0.3235240000000  0.6783210000000 1.0
C      1  0.6607890000000  0.4236950000000  0.6781850000000 1.0
C      1  0.6447530000000  0.7016070000000  0.6226840000000 1.0
C      1  0.3531570000000  0.7004070000000  0.6230270000000 1.0
C      1  0.2641040000000  0.4220320000000  0.6227910000000 1.0
C      1  0.5012630000000  0.2513950000000  0.6229690000000 1.0
C      1  0.7366500000000  0.4247060000000  0.6227660000000 1.0
C      1  0.6449460000000  0.7017150000000  0.3776180000000 1.0
C      1  0.3525750000000  0.6997690000000  0.3776810000000 1.0
C      1  0.2643320000000  0.4216970000000  0.3777480000000 1.0
C      1  0.5017810000000  0.2514160000000  0.3783260000000 1.0
C      1  0.7364720000000  0.4246940000000  0.3776820000000 1.0
END
