TITL C-1525613-7943-7571 -0.172318792409213 3375 -8499.37205388687 0 0 60 (C1) n - 1
REM
REM in /home/nfs/bkarasulu/CARBON/AIRSS/Generating-Clusters/ReaxFF-fromJPCA2015/Units_Real/Try2-Higher-symm/Only-C60
REM
REM
REM
REM
REM
REM ./C.cell (863b2abdce7293c0672fb3ba77bf323a)
REM AIRSS Version 0.9.1 bugfix July 2018 build 013d7b7c2542+ Fri, 06 Jul 2018 19:26:36 +0100
REM compiler GCC version 9.2.1 20190827 (Red Hat 9.2.1-1)
REM options -cpp -mtune=generic -march=x86-64 -g -O0 -fpre-include=/usr/include/finclude/math-vector-fortran.h
REM seed 1117055831 892712855 -481478645 -2108051757 -1488231410 -1692260047 1864263060 -1297420754 -860022317 -857759846 1079134629 -1148969478 1644859876 -897887509 -1834279018 205478813 1392080746 987604620 330553654 -31617977 -826510088 1088901375 250004144 -741885922 -1768131063 886763680 -1937970750 743212108 -1206683617 1944452765 995246904 -986494089 1445248244
REM
CELL 1.54180   15.00000   15.00000   15.00000   90.00000   90.00000   90.00000
LATT -1
SFAC C  
C      1  0.5981430000000  0.2966710000000  0.6064460000000 1.0
C      1  0.7300870000000  0.5196320000000  0.6024190000000 1.0
C      1  0.5536080000000  0.7100460000000  0.5959670000000 1.0
C      1  0.3116230000000  0.6195370000000  0.6013770000000 1.0
C      1  0.3539970000000  0.3768310000000  0.5698170000000 1.0
C      1  0.4012680000000  0.3023370000000  0.3977550000000 1.0
C      1  0.2694800000000  0.5182860000000  0.3958900000000 1.0
C      1  0.4489040000000  0.7079970000000  0.4035000000000 1.0
C      1  0.6842860000000  0.6204340000000  0.4009620000000 1.0
C      1  0.6525620000000  0.3645550000000  0.4124370000000 1.0
C      1  0.3721810000000  0.4124570000000  0.3124950000000 1.0
C      1  0.5136360000000  0.3945290000000  0.3648880000000 1.0
C      1  0.6087600000000  0.5101560000000  0.3657170000000 1.0
C      1  0.5368310000000  0.6311650000000  0.3263030000000 1.0
C      1  0.4053120000000  0.5435610000000  0.3675530000000 1.0
C      1  0.6164500000000  0.4280180000000  0.6843230000000 1.0
C      1  0.4868830000000  0.3929940000000  0.6307710000000 1.0
C      1  0.3988240000000  0.5148580000000  0.6342280000000 1.0
C      1  0.4539570000000  0.6278810000000  0.6903210000000 1.0
C      1  0.5711910000000  0.5641660000000  0.6181230000000 1.0
C      1  0.6323430000000  0.6899950000000  0.4555790000000 1.0
C      1  0.3576420000000  0.6786910000000  0.4559840000000 1.0
C      1  0.2667330000000  0.4292040000000  0.4460360000000 1.0
C      1  0.4949090000000  0.2675980000000  0.4519930000000 1.0
C      1  0.7260410000000  0.4449150000000  0.4581680000000 1.0
C      1  0.3635610000000  0.6935890000000  0.5526750000000 1.0
C      1  0.6428650000000  0.6851270000000  0.5514150000000 1.0
C      1  0.7359910000000  0.4279350000000  0.5543230000000 1.0
C      1  0.5062880000000  0.2662140000000  0.5504090000000 1.0
C      1  0.2704420000000  0.4484600000000  0.5379910000000 1.0
C      1  0.4392970000000  0.3471520000000  0.3185960000000 1.0
C      1  0.6052140000000  0.4154290000000  0.3424160000000 1.0
C      1  0.6246160000000  0.5976860000000  0.3231840000000 1.0
C      1  0.4455470000000  0.6341970000000  0.3388020000000 1.0
C      1  0.3322130000000  0.4973790000000  0.3188660000000 1.0
C      1  0.5650600000000  0.3503990000000  0.6820600000000 1.0
C      1  0.3955300000000  0.4186000000000  0.6501010000000 1.0
C      1  0.3667840000000  0.5973270000000  0.6825980000000 1.0
C      1  0.5437520000000  0.6466570000000  0.6707540000000 1.0
C      1  0.6510130000000  0.5123540000000  0.6629920000000 1.0
C      1  0.7309390000000  0.5377510000000  0.4299230000000 1.0
C      1  0.5418980000000  0.7249720000000  0.4311610000000 1.0
C      1  0.2940470000000  0.6095290000000  0.4249420000000 1.0
C      1  0.3130510000000  0.3401990000000  0.4195920000000 1.0
C      1  0.5874290000000  0.2900810000000  0.4328510000000 1.0
C      1  0.2756540000000  0.5368660000000  0.5673060000000 1.0
C      1  0.4625130000000  0.7094560000000  0.5569720000000 1.0
C      1  0.7041220000000  0.6097640000000  0.5769860000000 1.0
C      1  0.6786990000000  0.3422440000000  0.5786720000000 1.0
C      1  0.4150760000000  0.2881060000000  0.5622770000000 1.0
C      1  0.4665140000000  0.6227190000000  0.5079290000000 1.0
C      1  0.3922890000000  0.5089560000000  0.4607210000000 1.0
C      1  0.4832530000000  0.4063840000000  0.4589030000000 1.0
C      1  0.6155240000000  0.3950560000000  0.5198370000000 1.0
C      1  0.5942580000000  0.5312520000000  0.4612130000000 1.0
C      1  0.5518310000000  0.5907130000000  0.5237640000000 1.0
C      1  0.6255080000000  0.4835660000000  0.5315300000000 1.0
C      1  0.5222410000000  0.4008490000000  0.5419260000000 1.0
C      1  0.3952240000000  0.4194300000000  0.4859620000000 1.0
C      1  0.4161050000000  0.5470880000000  0.5412980000000 1.0
END
