TITL C-1525613-7943-3626 0.131232817104176 3375 -7791.31855828646 0 0 60 (C1) n - 1
REM
REM in /home/nfs/bkarasulu/CARBON/AIRSS/Generating-Clusters/ReaxFF-fromJPCA2015/Units_Real/Try2-Higher-symm/Only-C60
REM
REM
REM
REM
REM
REM ./C.cell (863b2abdce7293c0672fb3ba77bf323a)
REM AIRSS Version 0.9.1 bugfix July 2018 build 013d7b7c2542+ Fri, 06 Jul 2018 19:26:36 +0100
REM compiler GCC version 9.2.1 20190827 (Red Hat 9.2.1-1)
REM options -cpp -mtune=generic -march=x86-64 -g -O0 -fpre-include=/usr/include/finclude/math-vector-fortran.h
REM seed -693984318 -1020534709 -1267233603 1479335757 -1181414218 669247760 -929401222 1915635798 406569735 256231670 -524602605 -1257442417 1177765108 664258520 1402693458 2000027171 -2128073790 807972975 1220863717 95151120 1524061894 -1730674464 511956285 -836771292 795659032 258726370 460877894 -1879562947 -2028453128 1613766828 141545220 -1681379793 -666525267
REM
CELL 1.54180   15.00000   15.00000   15.00000   90.00000   90.00000   90.00000
LATT -1
SFAC C  
C      1  0.5698420000000  0.3655160000000  0.6906210000000 1.0
C      1  0.3901700000000  0.3368460000000  0.7202660000000 1.0
C      1  0.2938550000000  0.3425650000000  0.6195400000000 1.0
C      1  0.3085050000000  0.3682930000000  0.4353060000000 1.0
C      1  0.3687340000000  0.4184580000000  0.3682110000000 1.0
C      1  0.4254320000000  0.3652100000000  0.3017240000000 1.0
C      1  0.6354240000000  0.3595810000000  0.2864700000000 1.0
C      1  0.7256480000000  0.3339740000000  0.3830510000000 1.0
C      1  0.6861900000000  0.3714590000000  0.5689450000000 1.0
C      1  0.6315090000000  0.4187050000000  0.6306110000000 1.0
C      1  0.6502320000000  0.5607060000000  0.5283500000000 1.0
C      1  0.6009410000000  0.5245980000000  0.6080020000000 1.0
C      1  0.5105470000000  0.5532090000000  0.6614770000000 1.0
C      1  0.4145520000000  0.5471400000000  0.6465330000000 1.0
C      1  0.3510200000000  0.5370590000000  0.5664200000000 1.0
C      1  0.3492730000000  0.5593410000000  0.4718330000000 1.0
C      1  0.4000140000000  0.5225100000000  0.3930160000000 1.0
C      1  0.4900690000000  0.5515620000000  0.3386670000000 1.0
C      1  0.5860610000000  0.5472990000000  0.3533690000000 1.0
C      1  0.6485010000000  0.5359790000000  0.4342050000000 1.0
C      1  0.7270270000000  0.3711260000000  0.2914040000000 1.0
C      1  0.7884100000000  0.3649320000000  0.4475390000000 1.0
C      1  0.7573970000000  0.3611220000000  0.6273290000000 1.0
C      1  0.6365550000000  0.3603040000000  0.7589440000000 1.0
C      1  0.4522200000000  0.3667690000000  0.7917850000000 1.0
C      1  0.2907740000000  0.3650110000000  0.7211320000000 1.0
C      1  0.2177390000000  0.3656450000000  0.5584450000000 1.0
C      1  0.2352410000000  0.3650920000000  0.3728660000000 1.0
C      1  0.3524370000000  0.3563550000000  0.2424480000000 1.0
C      1  0.5335940000000  0.3876150000000  0.1999280000000 1.0
C      1  0.3702970000000  0.4121940000000  0.7696650000000 1.0
C      1  0.2372060000000  0.4108390000000  0.6408190000000 1.0
C      1  0.2211070000000  0.3968070000000  0.4656010000000 1.0
C      1  0.2904600000000  0.4037070000000  0.3014520000000 1.0
C      1  0.4413670000000  0.3891360000000  0.2058600000000 1.0
C      1  0.6164240000000  0.3819650000000  0.2117520000000 1.0
C      1  0.7753850000000  0.4086310000000  0.3676080000000 1.0
C      1  0.7714680000000  0.3953610000000  0.5374610000000 1.0
C      1  0.7045730000000  0.3995240000000  0.6999390000000 1.0
C      1  0.5457740000000  0.3920530000000  0.7805240000000 1.0
C      1  0.6457880000000  0.6901940000000  0.4314100000000 1.0
C      1  0.6471880000000  0.7127980000000  0.5303760000000 1.0
C      1  0.5968040000000  0.6857390000000  0.6148620000000 1.0
C      1  0.5131280000000  0.7073100000000  0.6595350000000 1.0
C      1  0.4153180000000  0.7024370000000  0.6436300000000 1.0
C      1  0.3531160000000  0.6915610000000  0.5686580000000 1.0
C      1  0.3527520000000  0.7121700000000  0.4692780000000 1.0
C      1  0.4034770000000  0.6843580000000  0.3857860000000 1.0
C      1  0.4862280000000  0.7064880000000  0.3405940000000 1.0
C      1  0.5840240000000  0.7028110000000  0.3563740000000 1.0
C      1  0.3810390000000  0.6256280000000  0.7022560000000 1.0
C      1  0.2882580000000  0.6120900000000  0.5924530000000 1.0
C      1  0.2825570000000  0.6440540000000  0.4517820000000 1.0
C      1  0.3589340000000  0.6019970000000  0.3354330000000 1.0
C      1  0.4726980000000  0.6289510000000  0.2711690000000 1.0
C      1  0.6193500000000  0.6264810000000  0.2979480000000 1.0
C      1  0.7111000000000  0.6106780000000  0.4070830000000 1.0
C      1  0.7175990000000  0.6453520000000  0.5481500000000 1.0
C      1  0.6420540000000  0.6042470000000  0.6649330000000 1.0
C      1  0.5266110000000  0.6304580000000  0.7291760000000 1.0
END
