TITL C-1525613-7943-7398 -0.0247240735295957 3375 -8905.40928310747 0 0 60 (S10) n - 1
REM
REM in /home/nfs/bkarasulu/CARBON/AIRSS/Generating-Clusters/ReaxFF-fromJPCA2015/Units_Real/Try2-Higher-symm/Only-C60
REM
REM
REM
REM
REM
REM ./C.cell (863b2abdce7293c0672fb3ba77bf323a)
REM AIRSS Version 0.9.1 bugfix July 2018 build 013d7b7c2542+ Fri, 06 Jul 2018 19:26:36 +0100
REM compiler GCC version 9.2.1 20190827 (Red Hat 9.2.1-1)
REM options -cpp -mtune=generic -march=x86-64 -g -O0 -fpre-include=/usr/include/finclude/math-vector-fortran.h
REM seed 392204584 756496564 -289985731 2089698276 1876311087 -1592976061 518597003 -1248159010 691181899 -212381355 -1998484538 -1193951009 -1234580295 959093843 1398161593 -1847450399 1827076731 -1472163442 -1989312530 992540911 305199789 -747647902 -794485338 -172362466 -285818998 2064031154 1026189389 -492067617 862063655 733757277 -397186158 556141876 1698847678
REM
CELL 1.54180   15.00000   15.00000   15.00000   90.00000   90.00000   90.00000
LATT -1
SFAC C  
C      1  0.4994100000000  0.6168960000000  0.6956460000000 1.0
C      1  0.5013130000000  0.4796450000000  0.7266280000000 1.0
C      1  0.4997930000000  0.3503640000000  0.6717320000000 1.0
C      1  0.5012260000000  0.2780690000000  0.5511220000000 1.0
C      1  0.4995070000000  0.2905680000000  0.4110630000000 1.0
C      1  0.5009400000000  0.3825880000000  0.3047350000000 1.0
C      1  0.4989470000000  0.5196280000000  0.2734310000000 1.0
C      1  0.5001770000000  0.6493270000000  0.3281260000000 1.0
C      1  0.4986820000000  0.7214520000000  0.4490030000000 1.0
C      1  0.4994920000000  0.7090430000000  0.5892370000000 1.0
C      1  0.2346280000000  0.4349640000000  0.4452150000000 1.0
C      1  0.7656090000000  0.4795260000000  0.4171350000000 1.0
C      1  0.2352230000000  0.5323360000000  0.4216020000000 1.0
C      1  0.7653640000000  0.5723980000000  0.4549460000000 1.0
C      1  0.2348880000000  0.5845460000000  0.5068520000000 1.0
C      1  0.7657110000000  0.5649720000000  0.5549460000000 1.0
C      1  0.2337460000000  0.5200420000000  0.5835970000000 1.0
C      1  0.7661110000000  0.4674060000000  0.5787920000000 1.0
C      1  0.2340860000000  0.4272980000000  0.5451180000000 1.0
C      1  0.7660960000000  0.4146280000000  0.4934370000000 1.0
C      1  0.4275040000000  0.4717990000000  0.5720860000000 1.0
C      1  0.5745550000000  0.4322120000000  0.5423970000000 1.0
C      1  0.4270890000000  0.4209920000000  0.4924400000000 1.0
C      1  0.5735590000000  0.4391250000000  0.4495960000000 1.0
C      1  0.4259510000000  0.4805960000000  0.4197660000000 1.0
C      1  0.5731530000000  0.5295490000000  0.4273790000000 1.0
C      1  0.4252890000000  0.5680570000000  0.4531540000000 1.0
C      1  0.5741400000000  0.5785760000000  0.5064790000000 1.0
C      1  0.4256820000000  0.5649570000000  0.5487920000000 1.0
C      1  0.5749150000000  0.5184160000000  0.5774550000000 1.0
C      1  0.3096540000000  0.3801970000000  0.5742080000000 1.0
C      1  0.6909900000000  0.3587610000000  0.4893540000000 1.0
C      1  0.3095310000000  0.3922620000000  0.4084070000000 1.0
C      1  0.6901300000000  0.4667150000000  0.3631470000000 1.0
C      1  0.3093930000000  0.5540520000000  0.3686950000000 1.0
C      1  0.6900070000000  0.6201920000000  0.4263070000000 1.0
C      1  0.3111710000000  0.6401360000000  0.5125380000000 1.0
C      1  0.6908230000000  0.6075790000000  0.5917680000000 1.0
C      1  0.3084040000000  0.5336090000000  0.6389600000000 1.0
C      1  0.6913710000000  0.4458330000000  0.6309120000000 1.0
C      1  0.6441260000000  0.5580730000000  0.3593660000000 1.0
C      1  0.3540160000000  0.6308280000000  0.4178890000000 1.0
C      1  0.6446890000000  0.6523570000000  0.5122340000000 1.0
C      1  0.3525010000000  0.6183000000000  0.6027450000000 1.0
C      1  0.6457730000000  0.5356930000000  0.6490780000000 1.0
C      1  0.3554250000000  0.4422820000000  0.6411230000000 1.0
C      1  0.6457960000000  0.3692140000000  0.5803640000000 1.0
C      1  0.3549300000000  0.3475430000000  0.4880470000000 1.0
C      1  0.6448220000000  0.3835370000000  0.4013460000000 1.0
C      1  0.3539500000000  0.4637160000000  0.3499940000000 1.0
C      1  0.4404850000000  0.2757260000000  0.4810850000000 1.0
C      1  0.5600390000000  0.3293590000000  0.3526010000000 1.0
C      1  0.4402370000000  0.4482160000000  0.2802110000000 1.0
C      1  0.5592810000000  0.5873910000000  0.2925660000000 1.0
C      1  0.4396880000000  0.6935170000000  0.3828600000000 1.0
C      1  0.5588750000000  0.7239900000000  0.5194290000000 1.0
C      1  0.4398270000000  0.6708810000000  0.6492870000000 1.0
C      1  0.5602680000000  0.5510900000000  0.7196170000000 1.0
C      1  0.4406300000000  0.4123330000000  0.7073550000000 1.0
C      1  0.5603800000000  0.3066410000000  0.6166010000000 1.0
END
