TITL C-1525613-7943-5642 0.249756480099568 3375 -8586.05759682848 0 0 60 (C1) n - 1
REM
REM in /home/nfs/bkarasulu/CARBON/AIRSS/Generating-Clusters/ReaxFF-fromJPCA2015/Units_Real/Try2-Higher-symm/Only-C60
REM
REM
REM
REM
REM
REM ./C.cell (863b2abdce7293c0672fb3ba77bf323a)
REM AIRSS Version 0.9.1 bugfix July 2018 build 013d7b7c2542+ Fri, 06 Jul 2018 19:26:36 +0100
REM compiler GCC version 9.2.1 20190827 (Red Hat 9.2.1-1)
REM options -cpp -mtune=generic -march=x86-64 -g -O0 -fpre-include=/usr/include/finclude/math-vector-fortran.h
REM seed -713374622 1126163118 612372262 -1146348504 -511360068 1659245227 182032052 39384758 359459116 -1405607212 -243886210 -1264157886 -288551671 -1885854858 1326243589 63044193 -780418024 1110131229 -761108972 -1021927613 -749157883 -748882425 -1173969733 1894773395 -1288000144 1536290422 696946406 -558933703 -1139834362 -905635062 -1751808995 -1658401125 581616516
REM
CELL 1.54180   15.00000   15.00000   15.00000   90.00000   90.00000   90.00000
LATT -1
SFAC C  
C      1  0.4510060000000  0.6063570000000  0.3749040000000 1.0
C      1  0.4530400000000  0.4032530000000  0.3610760000000 1.0
C      1  0.4592790000000  0.3385650000000  0.5365410000000 1.0
C      1  0.4506240000000  0.4977850000000  0.6702730000000 1.0
C      1  0.4502890000000  0.6609500000000  0.5584600000000 1.0
C      1  0.5501390000000  0.6061860000000  0.3739770000000 1.0
C      1  0.5497890000000  0.4051030000000  0.3602960000000 1.0
C      1  0.5552650000000  0.3396490000000  0.5355040000000 1.0
C      1  0.5501520000000  0.4964930000000  0.6703860000000 1.0
C      1  0.5497550000000  0.6609160000000  0.5582740000000 1.0
C      1  0.3357810000000  0.3734840000000  0.6547780000000 1.0
C      1  0.3270000000000  0.6148900000000  0.6698610000000 1.0
C      1  0.3259650000000  0.6985590000000  0.4449630000000 1.0
C      1  0.3318330000000  0.5069460000000  0.2999720000000 1.0
C      1  0.3307070000000  0.3051440000000  0.4274790000000 1.0
C      1  0.6657600000000  0.3727480000000  0.6594810000000 1.0
C      1  0.6731070000000  0.6153470000000  0.6696130000000 1.0
C      1  0.6747480000000  0.6980110000000  0.4448340000000 1.0
C      1  0.6660240000000  0.5065190000000  0.2973310000000 1.0
C      1  0.6642650000000  0.3042470000000  0.4185950000000 1.0
C      1  0.8037280000000  0.4459780000000  0.5729370000000 1.0
C      1  0.8073300000000  0.5489950000000  0.5734390000000 1.0
C      1  0.8065340000000  0.5812000000000  0.4766440000000 1.0
C      1  0.7993100000000  0.4985780000000  0.4160370000000 1.0
C      1  0.7940750000000  0.4146710000000  0.4759540000000 1.0
C      1  0.1968720000000  0.4443150000000  0.5674120000000 1.0
C      1  0.1941010000000  0.5469120000000  0.5727520000000 1.0
C      1  0.1929390000000  0.5833760000000  0.4773120000000 1.0
C      1  0.1953080000000  0.5024760000000  0.4143510000000 1.0
C      1  0.1955040000000  0.4158460000000  0.4693120000000 1.0
C      1  0.6108340000000  0.4232420000000  0.2944620000000 1.0
C      1  0.6241270000000  0.2819430000000  0.5079040000000 1.0
C      1  0.6184670000000  0.4443020000000  0.7150630000000 1.0
C      1  0.6208500000000  0.6866670000000  0.6193990000000 1.0
C      1  0.6209160000000  0.6722530000000  0.3627520000000 1.0
C      1  0.3834920000000  0.4194860000000  0.2958900000000 1.0
C      1  0.3875630000000  0.2798270000000  0.5077050000000 1.0
C      1  0.3816620000000  0.4439410000000  0.7121430000000 1.0
C      1  0.3791100000000  0.6865260000000  0.6195420000000 1.0
C      1  0.3801530000000  0.6721590000000  0.3632800000000 1.0
C      1  0.3912840000000  0.3090690000000  0.5992110000000 1.0
C      1  0.3775190000000  0.5405650000000  0.7177120000000 1.0
C      1  0.3789140000000  0.7201280000000  0.5290140000000 1.0
C      1  0.3833480000000  0.5944630000000  0.3061280000000 1.0
C      1  0.3829860000000  0.3377980000000  0.3469270000000 1.0
C      1  0.6144720000000  0.3130060000000  0.5985220000000 1.0
C      1  0.6225910000000  0.5408790000000  0.7176590000000 1.0
C      1  0.6213520000000  0.7196700000000  0.5286130000000 1.0
C      1  0.6169820000000  0.5955850000000  0.3042950000000 1.0
C      1  0.6126890000000  0.3413890000000  0.3412600000000 1.0
C      1  0.7411600000000  0.6392260000000  0.4608090000000 1.0
C      1  0.7336230000000  0.5025440000000  0.3574940000000 1.0
C      1  0.7291100000000  0.3545870000000  0.4558600000000 1.0
C      1  0.7357180000000  0.4099020000000  0.6157530000000 1.0
C      1  0.7408110000000  0.5822440000000  0.6211190000000 1.0
C      1  0.2589180000000  0.6406560000000  0.4611440000000 1.0
C      1  0.2629890000000  0.5047030000000  0.3576470000000 1.0
C      1  0.2625560000000  0.3608750000000  0.4485590000000 1.0
C      1  0.2654540000000  0.4081510000000  0.6103720000000 1.0
C      1  0.2601200000000  0.5807140000000  0.6210130000000 1.0
END
