TITL C-1525613-7943-1040 0.139520926710094 3375 -8696.95222815956 0 0 60 (C1) n - 1
REM
REM in /home/nfs/bkarasulu/CARBON/AIRSS/Generating-Clusters/ReaxFF-fromJPCA2015/Units_Real/Try2-Higher-symm/Only-C60
REM
REM
REM
REM
REM
REM ./C.cell (863b2abdce7293c0672fb3ba77bf323a)
REM AIRSS Version 0.9.1 bugfix July 2018 build 013d7b7c2542+ Fri, 06 Jul 2018 19:26:36 +0100
REM compiler GCC version 9.2.1 20190827 (Red Hat 9.2.1-1)
REM options -cpp -mtune=generic -march=x86-64 -g -O0 -fpre-include=/usr/include/finclude/math-vector-fortran.h
REM seed 1850313102 147822649 -2118944296 2042775570 -1330054088 1570759889 1687383787 -1887177347 -1518749555 -1063916116 -824084741 323886800 1446410015 30470586 -646822332 -851000151 2016117411 1580505390 1664401479 -1312503063 -627859263 1437956145 333788866 -1918994203 750979428 -40099443 847803965 -455892600 -2043276189 276004070 1409973983 -135595031 594386436
REM
CELL 1.54180   15.00000   15.00000   15.00000   90.00000   90.00000   90.00000
LATT -1
SFAC C  
C      1  0.6411480000000  0.3176960000000  0.4702200000000 1.0
C      1  0.6553080000000  0.4423010000000  0.7082000000000 1.0
C      1  0.6789960000000  0.6641260000000  0.6346980000000 1.0
C      1  0.6534050000000  0.6519570000000  0.3917280000000 1.0
C      1  0.6510300000000  0.4417510000000  0.2771020000000 1.0
C      1  0.3566560000000  0.2892090000000  0.5171250000000 1.0
C      1  0.3253200000000  0.4006730000000  0.2880270000000 1.0
C      1  0.3561310000000  0.6755270000000  0.3677000000000 1.0
C      1  0.3333090000000  0.6467740000000  0.6198160000000 1.0
C      1  0.3450630000000  0.4361690000000  0.7230490000000 1.0
C      1  0.5475940000000  0.3899780000000  0.5830600000000 1.0
C      1  0.5578830000000  0.5686740000000  0.6523100000000 1.0
C      1  0.5506630000000  0.6507500000000  0.5098330000000 1.0
C      1  0.5229420000000  0.5268840000000  0.3913810000000 1.0
C      1  0.5474760000000  0.4255100000000  0.4089330000000 1.0
C      1  0.4527960000000  0.3734960000000  0.3912630000000 1.0
C      1  0.4434590000000  0.5218050000000  0.3378870000000 1.0
C      1  0.4533500000000  0.6645750000000  0.5201120000000 1.0
C      1  0.4697400000000  0.5331660000000  0.6295170000000 1.0
C      1  0.4670200000000  0.4361290000000  0.6164020000000 1.0
C      1  0.7865730000000  0.5763400000000  0.4737010000000 1.0
C      1  0.7883530000000  0.4972070000000  0.4181230000000 1.0
C      1  0.7696380000000  0.4211650000000  0.4770470000000 1.0
C      1  0.7586230000000  0.4532630000000  0.5663450000000 1.0
C      1  0.7748050000000  0.5485020000000  0.5643640000000 1.0
C      1  0.2213600000000  0.5777080000000  0.5188880000000 1.0
C      1  0.2189670000000  0.4990000000000  0.5766440000000 1.0
C      1  0.2345810000000  0.4198500000000  0.5199480000000 1.0
C      1  0.2333000000000  0.4524950000000  0.4290610000000 1.0
C      1  0.2406110000000  0.5496620000000  0.4278330000000 1.0
C      1  0.2769340000000  0.3240720000000  0.3117280000000 1.0
C      1  0.3444590000000  0.3190530000000  0.6125410000000 1.0
C      1  0.2824840000000  0.4867920000000  0.7404630000000 1.0
C      1  0.3012420000000  0.7260650000000  0.5844600000000 1.0
C      1  0.3729340000000  0.5890400000000  0.3178510000000 1.0
C      1  0.6207160000000  0.3743770000000  0.6474150000000 1.0
C      1  0.6618750000000  0.3227190000000  0.3816430000000 1.0
C      1  0.7130030000000  0.4933780000000  0.2576890000000 1.0
C      1  0.6911700000000  0.7252540000000  0.4338660000000 1.0
C      1  0.6971970000000  0.6002910000000  0.7025120000000 1.0
C      1  0.2870290000000  0.5994550000000  0.3573420000000 1.0
C      1  0.2376950000000  0.4020630000000  0.3437790000000 1.0
C      1  0.2727980000000  0.3361400000000  0.5520390000000 1.0
C      1  0.2417140000000  0.5027700000000  0.6688720000000 1.0
C      1  0.2405420000000  0.6614190000000  0.5648520000000 1.0
C      1  0.7566020000000  0.6092030000000  0.6345310000000 1.0
C      1  0.7131610000000  0.4047410000000  0.6387410000000 1.0
C      1  0.7303740000000  0.3377550000000  0.4459390000000 1.0
C      1  0.7592640000000  0.5038280000000  0.3274260000000 1.0
C      1  0.7513350000000  0.6549490000000  0.4264190000000 1.0
C      1  0.4117670000000  0.4296150000000  0.3239270000000 1.0
C      1  0.4052910000000  0.3316450000000  0.4536110000000 1.0
C      1  0.3984520000000  0.3839180000000  0.6637090000000 1.0
C      1  0.4130820000000  0.6030700000000  0.5900870000000 1.0
C      1  0.4047740000000  0.6770330000000  0.4424260000000 1.0
C      1  0.6281820000000  0.5356090000000  0.7099280000000 1.0
C      1  0.5778440000000  0.3829750000000  0.4933510000000 1.0
C      1  0.6076400000000  0.3862550000000  0.3379550000000 1.0
C      1  0.5727490000000  0.6031210000000  0.4267280000000 1.0
C      1  0.5915860000000  0.6410550000000  0.5978520000000 1.0
END
