TITL C-1525613-7943-1177 -0.0740781718369957 3375 -9301.92795877719 0 0 60 (C2v) n - 1
REM
REM in /home/nfs/bkarasulu/CARBON/AIRSS/Generating-Clusters/ReaxFF-fromJPCA2015/Units_Real/Try2-Higher-symm/Only-C60
REM
REM
REM
REM
REM
REM ./C.cell (863b2abdce7293c0672fb3ba77bf323a)
REM AIRSS Version 0.9.1 bugfix July 2018 build 013d7b7c2542+ Fri, 06 Jul 2018 19:26:36 +0100
REM compiler GCC version 9.2.1 20190827 (Red Hat 9.2.1-1)
REM options -cpp -mtune=generic -march=x86-64 -g -O0 -fpre-include=/usr/include/finclude/math-vector-fortran.h
REM seed -1193649418 -862539025 -828164433 -1642045203 -1939161783 630140407 648117007 -299140332 836724219 423213607 1782341921 -178047691 -695149601 1305416135 -293956700 1361099378 1129434694 -1258592684 -149532682 -118271849 302627356 -1270943777 -1422762101 796764954 1089300374 -1037624172 -198817845 -732487250 -669562109 259923677 -441173178 649506537 -1209179283
REM
CELL 1.54180   15.00000   15.00000   15.00000   90.00000   90.00000   90.00000
LATT -1
SFAC C  
C      1  0.3660590000000  0.5792120000000  0.6678850000000 1.0
C      1  0.3471820000000  0.4839130000000  0.6582350000000 1.0
C      1  0.3809790000000  0.3932570000000  0.6707380000000 1.0
C      1  0.4636220000000  0.3443180000000  0.6708450000000 1.0
C      1  0.5592730000000  0.3584640000000  0.6582120000000 1.0
C      1  0.6339050000000  0.4205730000000  0.6679650000000 1.0
C      1  0.6526860000000  0.5158580000000  0.6582900000000 1.0
C      1  0.6190800000000  0.6065340000000  0.6708210000000 1.0
C      1  0.5365510000000  0.6555140000000  0.6708520000000 1.0
C      1  0.4408880000000  0.6412870000000  0.6580880000000 1.0
C      1  0.6243450000000  0.7107440000000  0.4640630000000 1.0
C      1  0.5202800000000  0.7286340000000  0.4683840000000 1.0
C      1  0.3096630000000  0.6687920000000  0.4631620000000 1.0
C      1  0.2601960000000  0.5858020000000  0.4631760000000 1.0
C      1  0.3093850000000  0.3724680000000  0.4687440000000 1.0
C      1  0.3752840000000  0.2897300000000  0.4643310000000 1.0
C      1  0.4796380000000  0.2718700000000  0.4688300000000 1.0
C      1  0.6905500000000  0.3311930000000  0.4631380000000 1.0
C      1  0.7398130000000  0.4144320000000  0.4631140000000 1.0
C      1  0.6900100000000  0.6276370000000  0.4685270000000 1.0
C      1  0.4107040000000  0.7122470000000  0.5975970000000 1.0
C      1  0.2953250000000  0.6212450000000  0.6143570000000 1.0
C      1  0.2704160000000  0.4765260000000  0.5978670000000 1.0
C      1  0.3186250000000  0.3326860000000  0.6193090000000 1.0
C      1  0.4404470000000  0.2605830000000  0.6193640000000 1.0
C      1  0.5897500000000  0.2877130000000  0.5977350000000 1.0
C      1  0.7048580000000  0.3787880000000  0.6144250000000 1.0
C      1  0.7294010000000  0.5235240000000  0.5977230000000 1.0
C      1  0.6814010000000  0.6667870000000  0.6191250000000 1.0
C      1  0.5593820000000  0.7391050000000  0.6191140000000 1.0
C      1  0.3695400000000  0.2799170000000  0.3597010000000 1.0
C      1  0.5370990000000  0.2793070000000  0.3916730000000 1.0
C      1  0.6305410000000  0.3151890000000  0.3882730000000 1.0
C      1  0.7249010000000  0.4746670000000  0.3881140000000 1.0
C      1  0.7113450000000  0.5736870000000  0.3913920000000 1.0
C      1  0.6311760000000  0.7199710000000  0.3594990000000 1.0
C      1  0.4628930000000  0.7207340000000  0.3913120000000 1.0
C      1  0.3694280000000  0.6848710000000  0.3882230000000 1.0
C      1  0.2750150000000  0.5255780000000  0.3883330000000 1.0
C      1  0.2883290000000  0.4263760000000  0.3915900000000 1.0
C      1  0.3607540000000  0.2648640000000  0.5658040000000 1.0
C      1  0.5133880000000  0.2443430000000  0.5539880000000 1.0
C      1  0.6753270000000  0.3062220000000  0.5572960000000 1.0
C      1  0.7543670000000  0.4396370000000  0.5573720000000 1.0
C      1  0.7303950000000  0.6109670000000  0.5535550000000 1.0
C      1  0.6393600000000  0.7349150000000  0.5657820000000 1.0
C      1  0.4867990000000  0.7555950000000  0.5537050000000 1.0
C      1  0.3250530000000  0.6937460000000  0.5571750000000 1.0
C      1  0.2456940000000  0.5604700000000  0.5572760000000 1.0
C      1  0.2692090000000  0.3888070000000  0.5539980000000 1.0
C      1  0.3477770000000  0.5330540000000  0.3208050000000 1.0
C      1  0.3554960000000  0.4350110000000  0.3189350000000 1.0
C      1  0.4125730000000  0.3524560000000  0.3118500000000 1.0
C      1  0.5124340000000  0.3419750000000  0.3188590000000 1.0
C      1  0.6020900000000  0.3825070000000  0.3208040000000 1.0
C      1  0.6522830000000  0.4670910000000  0.3208620000000 1.0
C      1  0.6444880000000  0.5651920000000  0.3188030000000 1.0
C      1  0.5874010000000  0.6479040000000  0.3117840000000 1.0
C      1  0.4874810000000  0.6579700000000  0.3185800000000 1.0
C      1  0.3976680000000  0.6175420000000  0.3206440000000 1.0
END
