TITL C-1525613-7943-2251 0.00355889802274368 3375 -8898.93302108982 0 0 60 (C5) n - 1
REM
REM in /home/nfs/bkarasulu/CARBON/AIRSS/Generating-Clusters/ReaxFF-fromJPCA2015/Units_Real/Try2-Higher-symm/Only-C60
REM
REM
REM
REM
REM
REM ./C.cell (863b2abdce7293c0672fb3ba77bf323a)
REM AIRSS Version 0.9.1 bugfix July 2018 build 013d7b7c2542+ Fri, 06 Jul 2018 19:26:36 +0100
REM compiler GCC version 9.2.1 20190827 (Red Hat 9.2.1-1)
REM options -cpp -mtune=generic -march=x86-64 -g -O0 -fpre-include=/usr/include/finclude/math-vector-fortran.h
REM seed -1295044290 375560797 -1554585918 -687102408 1159318438 1235082017 1532179388 -198506795 577911720 -85543401 -1801959116 893737419 -823522958 1916457283 200855848 -89280430 729849666 -97929471 749518526 -1927763506 2136485928 -646809185 -1579066958 59979293 -1898605059 -2048630336 -1619503467 -1620234445 -1296729489 -253264815 -1916605650 -1416212707 -1988565337
REM
CELL 1.54180   15.00000   15.00000   15.00000   90.00000   90.00000   90.00000
LATT -1
SFAC C  
C      1  0.5496380000000  0.4923440000000  0.2869460000000 1.0
C      1  0.5496450000000  0.7002520000000  0.4268810000000 1.0
C      1  0.5496540000000  0.6314210000000  0.6678510000000 1.0
C      1  0.5496510000000  0.3809720000000  0.6768620000000 1.0
C      1  0.5496440000000  0.2950100000000  0.4414470000000 1.0
C      1  0.4503470000000  0.4923440000000  0.2869500000000 1.0
C      1  0.4503510000000  0.7002500000000  0.4268850000000 1.0
C      1  0.4503620000000  0.6314210000000  0.6678550000000 1.0
C      1  0.4503580000000  0.3809740000000  0.6768630000000 1.0
C      1  0.4503520000000  0.2950090000000  0.4414490000000 1.0
C      1  0.4503400000000  0.3133230000000  0.6022240000000 1.0
C      1  0.4503360000000  0.3450880000000  0.3540430000000 1.0
C      1  0.4503310000000  0.5909460000000  0.3075710000000 1.0
C      1  0.4503400000000  0.7111140000000  0.5270320000000 1.0
C      1  0.4503480000000  0.5395320000000  0.7091310000000 1.0
C      1  0.5496640000000  0.3133210000000  0.6022230000000 1.0
C      1  0.5496560000000  0.3450880000000  0.3540410000000 1.0
C      1  0.5496540000000  0.5909470000000  0.3075670000000 1.0
C      1  0.5496630000000  0.7111150000000  0.5270290000000 1.0
C      1  0.5496710000000  0.5395310000000  0.7091260000000 1.0
C      1  0.3986070000000  0.4602200000000  0.6931900000000 1.0
C      1  0.3986060000000  0.3039810000000  0.5218640000000 1.0
C      1  0.3986050000000  0.4186360000000  0.3203360000000 1.0
C      1  0.3985990000000  0.6457340000000  0.3670990000000 1.0
C      1  0.3986060000000  0.6714350000000  0.5975350000000 1.0
C      1  0.6014060000000  0.4602170000000  0.6931820000000 1.0
C      1  0.6013940000000  0.3039790000000  0.5218600000000 1.0
C      1  0.6013840000000  0.4186350000000  0.3203250000000 1.0
C      1  0.6013910000000  0.6457340000000  0.3670920000000 1.0
C      1  0.6014040000000  0.6714400000000  0.5975290000000 1.0
C      1  0.2621180000000  0.4201520000000  0.5086530000000 1.0
C      1  0.2621180000000  0.4671080000000  0.4267410000000 1.0
C      1  0.2621130000000  0.5595220000000  0.4460830000000 1.0
C      1  0.2621150000000  0.5696800000000  0.5399510000000 1.0
C      1  0.2621170000000  0.4835460000000  0.5786210000000 1.0
C      1  0.7378790000000  0.4201520000000  0.5086340000000 1.0
C      1  0.7378740000000  0.4671060000000  0.4267220000000 1.0
C      1  0.7378780000000  0.5595180000000  0.4460680000000 1.0
C      1  0.7378860000000  0.5696800000000  0.5399360000000 1.0
C      1  0.7378860000000  0.4835450000000  0.5786040000000 1.0
C      1  0.7046030000000  0.4252680000000  0.3328360000000 1.0
C      1  0.7046100000000  0.6358820000000  0.3772660000000 1.0
C      1  0.7046240000000  0.6587130000000  0.5913000000000 1.0
C      1  0.7046250000000  0.4622040000000  0.6791530000000 1.0
C      1  0.7046130000000  0.3179310000000  0.5194140000000 1.0
C      1  0.2953860000000  0.4252650000000  0.3328560000000 1.0
C      1  0.2953800000000  0.6358810000000  0.3772760000000 1.0
C      1  0.2953850000000  0.6587140000000  0.5913100000000 1.0
C      1  0.2953870000000  0.4622140000000  0.6791680000000 1.0
C      1  0.2953870000000  0.3179320000000  0.5194290000000 1.0
C      1  0.2401840000000  0.2524760000000  0.5194700000000 1.0
C      1  0.2401840000000  0.4049960000000  0.2706170000000 1.0
C      1  0.2401740000000  0.6888120000000  0.3387720000000 1.0
C      1  0.2401800000000  0.7116930000000  0.6297470000000 1.0
C      1  0.2401810000000  0.4420230000000  0.7414300000000 1.0
C      1  0.7598170000000  0.2524770000000  0.5194350000000 1.0
C      1  0.7598020000000  0.4049970000000  0.2705940000000 1.0
C      1  0.7598150000000  0.6888170000000  0.3387670000000 1.0
C      1  0.7598340000000  0.7116810000000  0.6297480000000 1.0
C      1  0.7598360000000  0.4420060000000  0.7414080000000 1.0
END
