TITL C-1525613-7943-2764 0.0381657699160729 3375 -8785.85811284403 0 0 60 (C1) n - 1
REM
REM in /home/nfs/bkarasulu/CARBON/AIRSS/Generating-Clusters/ReaxFF-fromJPCA2015/Units_Real/Try2-Higher-symm/Only-C60
REM
REM
REM
REM
REM
REM ./C.cell (863b2abdce7293c0672fb3ba77bf323a)
REM AIRSS Version 0.9.1 bugfix July 2018 build 013d7b7c2542+ Fri, 06 Jul 2018 19:26:36 +0100
REM compiler GCC version 9.2.1 20190827 (Red Hat 9.2.1-1)
REM options -cpp -mtune=generic -march=x86-64 -g -O0 -fpre-include=/usr/include/finclude/math-vector-fortran.h
REM seed 1689223807 -84391494 1068650472 296367195 -1298714316 -132066453 -428697040 448318408 -1465109060 925723796 1999818392 -746880276 1283749313 873444256 1517940242 719201723 -1059698407 1767521317 1064194336 -2056399788 -119385303 1622212109 -798803157 -1265053884 -1083634163 634916916 2018881986 -1509079795 1884742478 943655086 -2020903201 135247379 1461761648
REM
CELL 1.54180   15.00000   15.00000   15.00000   90.00000   90.00000   90.00000
LATT -1
SFAC C  
C      1  0.6067520000000  0.6372030000000  0.3689720000000 1.0
C      1  0.6000200000000  0.4307480000000  0.2786210000000 1.0
C      1  0.6101590000000  0.3269140000000  0.5020250000000 1.0
C      1  0.5996320000000  0.4635940000000  0.6851540000000 1.0
C      1  0.6003720000000  0.6677560000000  0.5900490000000 1.0
C      1  0.3927570000000  0.6388210000000  0.3725910000000 1.0
C      1  0.4038580000000  0.4245920000000  0.2745040000000 1.0
C      1  0.3880210000000  0.3257500000000  0.4992650000000 1.0
C      1  0.4000680000000  0.4640440000000  0.6863780000000 1.0
C      1  0.4015120000000  0.6670640000000  0.5899540000000 1.0
C      1  0.7219630000000  0.6458460000000  0.4742980000000 1.0
C      1  0.7180970000000  0.4956810000000  0.3773580000000 1.0
C      1  0.7360550000000  0.3290430000000  0.4273120000000 1.0
C      1  0.7199150000000  0.4073670000000  0.5981230000000 1.0
C      1  0.7236810000000  0.5771470000000  0.6464650000000 1.0
C      1  0.2780680000000  0.6514610000000  0.4805780000000 1.0
C      1  0.2784410000000  0.5028050000000  0.3793260000000 1.0
C      1  0.2672390000000  0.3249170000000  0.4264260000000 1.0
C      1  0.2751250000000  0.4077930000000  0.6052470000000 1.0
C      1  0.2755020000000  0.5770290000000  0.6482840000000 1.0
C      1  0.3077120000000  0.4763220000000  0.6712250000000 1.0
C      1  0.3110380000000  0.6433600000000  0.5785960000000 1.0
C      1  0.3139250000000  0.5909990000000  0.4066590000000 1.0
C      1  0.2679220000000  0.4194710000000  0.4413940000000 1.0
C      1  0.3303060000000  0.4056490000000  0.5138730000000 1.0
C      1  0.6909890000000  0.4768520000000  0.6656870000000 1.0
C      1  0.6899600000000  0.6409930000000  0.5736000000000 1.0
C      1  0.6840210000000  0.5856750000000  0.4006960000000 1.0
C      1  0.7217390000000  0.4184510000000  0.4412060000000 1.0
C      1  0.6642380000000  0.4038450000000  0.5106970000000 1.0
C      1  0.4554080000000  0.3494220000000  0.3194330000000 1.0
C      1  0.4510050000000  0.3198180000000  0.5834600000000 1.0
C      1  0.4513250000000  0.5442910000000  0.7115120000000 1.0
C      1  0.4510800000000  0.7080670000000  0.5202390000000 1.0
C      1  0.4511020000000  0.5955150000000  0.3102400000000 1.0
C      1  0.5539460000000  0.3530270000000  0.3217100000000 1.0
C      1  0.5480020000000  0.3189490000000  0.5841630000000 1.0
C      1  0.5493130000000  0.5440610000000  0.7120140000000 1.0
C      1  0.5478520000000  0.7131000000000  0.5211400000000 1.0
C      1  0.5457260000000  0.5959060000000  0.3086200000000 1.0
C      1  0.3350000000000  0.4618070000000  0.3214170000000 1.0
C      1  0.3059940000000  0.2517870000000  0.4608490000000 1.0
C      1  0.2623070000000  0.3482070000000  0.6704160000000 1.0
C      1  0.2557260000000  0.6404620000000  0.7029330000000 1.0
C      1  0.3009720000000  0.7243390000000  0.4274010000000 1.0
C      1  0.6971710000000  0.4534820000000  0.2899310000000 1.0
C      1  0.6976010000000  0.2578150000000  0.4642130000000 1.0
C      1  0.7297850000000  0.3466060000000  0.6645310000000 1.0
C      1  0.7256420000000  0.6412360000000  0.7059620000000 1.0
C      1  0.7053680000000  0.7188660000000  0.4200280000000 1.0
C      1  0.5485080000000  0.3794460000000  0.6627250000000 1.0
C      1  0.5493930000000  0.6335990000000  0.6680810000000 1.0
C      1  0.5478920000000  0.6917430000000  0.4249780000000 1.0
C      1  0.5479510000000  0.5117910000000  0.2588220000000 1.0
C      1  0.5495790000000  0.3276990000000  0.4189090000000 1.0
C      1  0.4502220000000  0.3794430000000  0.6626080000000 1.0
C      1  0.4520860000000  0.6337980000000  0.6674240000000 1.0
C      1  0.4508360000000  0.6885430000000  0.4284520000000 1.0
C      1  0.4492590000000  0.5121240000000  0.2575940000000 1.0
C      1  0.4548590000000  0.3278610000000  0.4156320000000 1.0
END
