TITL C-1525613-7943-6215 0.370998895847963 3375 -8580.05422860257 0 0 60 (C1) n - 1
REM
REM in /home/nfs/bkarasulu/CARBON/AIRSS/Generating-Clusters/ReaxFF-fromJPCA2015/Units_Real/Try2-Higher-symm/Only-C60
REM
REM
REM
REM
REM
REM ./C.cell (863b2abdce7293c0672fb3ba77bf323a)
REM AIRSS Version 0.9.1 bugfix July 2018 build 013d7b7c2542+ Fri, 06 Jul 2018 19:26:36 +0100
REM compiler GCC version 9.2.1 20190827 (Red Hat 9.2.1-1)
REM options -cpp -mtune=generic -march=x86-64 -g -O0 -fpre-include=/usr/include/finclude/math-vector-fortran.h
REM seed -2136253167 576185001 1524578471 -1467764604 683648099 991259911 152586676 -66237033 811311625 1123343246 -1428152461 -1744580327 1664345451 864447928 -2084893572 410793825 778134764 1143677792 -1429957654 -631897424 1001446144 1907991337 -1423337789 1578867146 -1870923253 1996896258 2055868 2013456029 -1378276756 -2129815584 -836658547 -1711062737 1465279597
REM
CELL 1.54180   15.00000   15.00000   15.00000   90.00000   90.00000   90.00000
LATT -1
SFAC C  
C      1  0.6245520000000  0.5930370000000  0.3058150000000 1.0
C      1  0.6267210000000  0.4044040000000  0.3133090000000 1.0
C      1  0.4520080000000  0.3484290000000  0.3097620000000 1.0
C      1  0.3496500000000  0.4983950000000  0.3042310000000 1.0
C      1  0.4508410000000  0.6533290000000  0.3096730000000 1.0
C      1  0.3756490000000  0.5919110000000  0.3057930000000 1.0
C      1  0.3737920000000  0.4042180000000  0.3137310000000 1.0
C      1  0.5478330000000  0.3491800000000  0.3099980000000 1.0
C      1  0.6505920000000  0.4984740000000  0.3043720000000 1.0
C      1  0.5485170000000  0.6541720000000  0.3096740000000 1.0
C      1  0.3120240000000  0.3874870000000  0.6084450000000 1.0
C      1  0.3336530000000  0.6440860000000  0.6059530000000 1.0
C      1  0.5850580000000  0.6976290000000  0.6016770000000 1.0
C      1  0.7129310000000  0.4804450000000  0.6026630000000 1.0
C      1  0.5483980000000  0.2868640000000  0.6072720000000 1.0
C      1  0.6887850000000  0.3860480000000  0.6100570000000 1.0
C      1  0.6661260000000  0.6437790000000  0.6057910000000 1.0
C      1  0.4149410000000  0.6975870000000  0.6019160000000 1.0
C      1  0.2881300000000  0.4807700000000  0.6018670000000 1.0
C      1  0.4515680000000  0.2831790000000  0.6104670000000 1.0
C      1  0.3713480000000  0.5912210000000  0.4027540000000 1.0
C      1  0.5490410000000  0.6464800000000  0.4074920000000 1.0
C      1  0.6659910000000  0.5021580000000  0.3990980000000 1.0
C      1  0.5504580000000  0.3237390000000  0.4039360000000 1.0
C      1  0.3480880000000  0.4072910000000  0.4083100000000 1.0
C      1  0.6283510000000  0.5905490000000  0.4031130000000 1.0
C      1  0.4516740000000  0.6465770000000  0.4072550000000 1.0
C      1  0.3318040000000  0.5023670000000  0.3986230000000 1.0
C      1  0.4530620000000  0.3229050000000  0.4047120000000 1.0
C      1  0.6514820000000  0.4067960000000  0.4088800000000 1.0
C      1  0.5492010000000  0.3550270000000  0.6729260000000 1.0
C      1  0.3752680000000  0.4098820000000  0.6802890000000 1.0
C      1  0.3734260000000  0.5904480000000  0.6744600000000 1.0
C      1  0.5475310000000  0.6448690000000  0.6742040000000 1.0
C      1  0.6501780000000  0.5012450000000  0.6712590000000 1.0
C      1  0.4525010000000  0.3533610000000  0.6795250000000 1.0
C      1  0.6239740000000  0.4094040000000  0.6786840000000 1.0
C      1  0.6263700000000  0.5901620000000  0.6746170000000 1.0
C      1  0.4522660000000  0.6448250000000  0.6742430000000 1.0
C      1  0.3487440000000  0.5025600000000  0.6705200000000 1.0
C      1  0.6978470000000  0.7002100000000  0.4861890000000 1.0
C      1  0.7291220000000  0.3723800000000  0.4617910000000 1.0
C      1  0.4498680000000  0.2441830000000  0.4637250000000 1.0
C      1  0.2150930000000  0.4543370000000  0.4761180000000 1.0
C      1  0.3689730000000  0.7657440000000  0.4694650000000 1.0
C      1  0.3022480000000  0.7000520000000  0.4860770000000 1.0
C      1  0.2712890000000  0.3728440000000  0.4612360000000 1.0
C      1  0.5475590000000  0.2456630000000  0.4628940000000 1.0
C      1  0.7846090000000  0.4541060000000  0.4760350000000 1.0
C      1  0.6311910000000  0.7658710000000  0.4695410000000 1.0
C      1  0.4522830000000  0.7516090000000  0.5323700000000 1.0
C      1  0.7314990000000  0.6291000000000  0.5351310000000 1.0
C      1  0.6884170000000  0.3229380000000  0.5366920000000 1.0
C      1  0.3904460000000  0.2650960000000  0.5377040000000 1.0
C      1  0.2412370000000  0.5299140000000  0.5336710000000 1.0
C      1  0.5477340000000  0.7516420000000  0.5323470000000 1.0
C      1  0.2683730000000  0.6291700000000  0.5349390000000 1.0
C      1  0.3114690000000  0.3234420000000  0.5366500000000 1.0
C      1  0.6089400000000  0.2661850000000  0.5364840000000 1.0
C      1  0.7592770000000  0.5302250000000  0.5335700000000 1.0
END
