TITL C-1525613-7943-4610 -0.0341695198494256 3375 -8759.47943811345 0 0 60 (C2) n - 1
REM
REM in /home/nfs/bkarasulu/CARBON/AIRSS/Generating-Clusters/ReaxFF-fromJPCA2015/Units_Real/Try2-Higher-symm/Only-C60
REM
REM
REM
REM
REM
REM ./C.cell (863b2abdce7293c0672fb3ba77bf323a)
REM AIRSS Version 0.9.1 bugfix July 2018 build 013d7b7c2542+ Fri, 06 Jul 2018 19:26:36 +0100
REM compiler GCC version 9.2.1 20190827 (Red Hat 9.2.1-1)
REM options -cpp -mtune=generic -march=x86-64 -g -O0 -fpre-include=/usr/include/finclude/math-vector-fortran.h
REM seed -29606682 -1119669505 546971205 -1973343543 -568310306 -765438023 718913406 -2029109733 -1974223127 657126691 585522156 1409748138 1898012340 280180634 -675916907 -2005106531 -2017107510 227492128 1018834608 -2114569875 293788159 1785903409 1743323712 -200837854 408651336 -939259250 590653601 169186310 -617595820 -519943571 113337358 -29568084 -1707364470
REM
CELL 1.54180   15.00000   15.00000   15.00000   90.00000   90.00000   90.00000
LATT -1
SFAC C  
C      1  0.6274800000000  0.7213590000000  0.5604970000000 1.0
C      1  0.6248250000000  0.6428290000000  0.6768230000000 1.0
C      1  0.6225850000000  0.5105050000000  0.7226430000000 1.0
C      1  0.6278810000000  0.3732560000000  0.6927230000000 1.0
C      1  0.6236030000000  0.2893230000000  0.5798560000000 1.0
C      1  0.6274770000000  0.2786280000000  0.4395500000000 1.0
C      1  0.6248200000000  0.3572230000000  0.3231360000000 1.0
C      1  0.6225800000000  0.4894240000000  0.2773610000000 1.0
C      1  0.6278840000000  0.6267660000000  0.3072870000000 1.0
C      1  0.6236080000000  0.7106640000000  0.4201250000000 1.0
C      1  0.4525590000000  0.2732630000000  0.5724300000000 1.0
C      1  0.4460140000000  0.2695520000000  0.4236290000000 1.0
C      1  0.4513430000000  0.3597860000000  0.3075080000000 1.0
C      1  0.4494540000000  0.5057300000000  0.2611490000000 1.0
C      1  0.4464530000000  0.6430890000000  0.3042140000000 1.0
C      1  0.4525610000000  0.7267380000000  0.4275710000000 1.0
C      1  0.4460140000000  0.7304470000000  0.5763710000000 1.0
C      1  0.4513420000000  0.6402140000000  0.6924940000000 1.0
C      1  0.4494530000000  0.4942680000000  0.7388510000000 1.0
C      1  0.4464520000000  0.3569130000000  0.6957870000000 1.0
C      1  0.3834680000000  0.4244840000000  0.7209380000000 1.0
C      1  0.3880510000000  0.3115960000000  0.6343570000000 1.0
C      1  0.3876390000000  0.2682790000000  0.4996440000000 1.0
C      1  0.3861350000000  0.3124330000000  0.3614400000000 1.0
C      1  0.3914250000000  0.4311760000000  0.2806420000000 1.0
C      1  0.3834710000000  0.5755160000000  0.2790610000000 1.0
C      1  0.3880510000000  0.6884060000000  0.3656440000000 1.0
C      1  0.3876390000000  0.7317220000000  0.5003540000000 1.0
C      1  0.3861350000000  0.6875670000000  0.6385600000000 1.0
C      1  0.3914250000000  0.5688230000000  0.7193580000000 1.0
C      1  0.3250710000000  0.4536520000000  0.3504040000000 1.0
C      1  0.3194030000000  0.5509290000000  0.3508370000000 1.0
C      1  0.3225050000000  0.6281960000000  0.4099150000000 1.0
C      1  0.3223930000000  0.6572990000000  0.5025880000000 1.0
C      1  0.3214720000000  0.6266700000000  0.5949750000000 1.0
C      1  0.3250710000000  0.5463480000000  0.6495960000000 1.0
C      1  0.3194030000000  0.4490710000000  0.6491630000000 1.0
C      1  0.3225060000000  0.3718030000000  0.5900850000000 1.0
C      1  0.3223940000000  0.3427000000000  0.4974120000000 1.0
C      1  0.3214720000000  0.3733300000000  0.4050250000000 1.0
C      1  0.5306860000000  0.3300740000000  0.5586010000000 1.0
C      1  0.5283740000000  0.3239830000000  0.4423110000000 1.0
C      1  0.5307130000000  0.3824130000000  0.3609860000000 1.0
C      1  0.5284170000000  0.5069150000000  0.3200480000000 1.0
C      1  0.5292820000000  0.6034630000000  0.3472170000000 1.0
C      1  0.5307010000000  0.6699320000000  0.4413950000000 1.0
C      1  0.5283760000000  0.6760180000000  0.5576900000000 1.0
C      1  0.5307180000000  0.6175880000000  0.6390150000000 1.0
C      1  0.5284200000000  0.4930870000000  0.6799510000000 1.0
C      1  0.5292750000000  0.3965380000000  0.6527790000000 1.0
C      1  0.6853770000000  0.5745330000000  0.6955100000000 1.0
C      1  0.6864030000000  0.4447520000000  0.7042500000000 1.0
C      1  0.6869820000000  0.3357530000000  0.6321610000000 1.0
C      1  0.6865430000000  0.2885610000000  0.5105190000000 1.0
C      1  0.6874740000000  0.3228550000000  0.3845550000000 1.0
C      1  0.6853780000000  0.4254670000000  0.3044890000000 1.0
C      1  0.6864020000000  0.5552600000000  0.2957520000000 1.0
C      1  0.6869680000000  0.6642520000000  0.3678420000000 1.0
C      1  0.6865290000000  0.7114390000000  0.4894740000000 1.0
C      1  0.6874650000000  0.6771410000000  0.6154510000000 1.0
END
