TITL C-1525613-7943-1559 -4.72087301379709e-05 3375 -8606.23657269108 0 0 60 (D5) n - 1
REM
REM in /home/nfs/bkarasulu/CARBON/AIRSS/Generating-Clusters/ReaxFF-fromJPCA2015/Units_Real/Try2-Higher-symm/Only-C60
REM
REM
REM
REM
REM
REM ./C.cell (863b2abdce7293c0672fb3ba77bf323a)
REM AIRSS Version 0.9.1 bugfix July 2018 build 013d7b7c2542+ Fri, 06 Jul 2018 19:26:36 +0100
REM compiler GCC version 9.2.1 20190827 (Red Hat 9.2.1-1)
REM options -cpp -mtune=generic -march=x86-64 -g -O0 -fpre-include=/usr/include/finclude/math-vector-fortran.h
REM seed -736281967 75537576 -2046578846 451170781 -434447093 956264042 -212442551 -1672046573 -1873387498 -881464965 1271700223 579123299 -461002764 -2086047814 765515016 -1534173616 1139052554 801961274 1843277229 1902288263 1991306450 -398176217 99974418 281548071 -1910913670 610266347 1449902075 177406407 1094711751 -2078457231 -767922791 -2104677058 -438041390
REM
CELL 1.54180   15.00000   15.00000   15.00000   90.00000   90.00000   90.00000
LATT -1
SFAC C  
C      1  0.4200710000000  0.5801440000000  0.4902150000000 1.0
C      1  0.4200640000000  0.5154550000000  0.4207570000000 1.0
C      1  0.4200700000000  0.4294070000000  0.4608180000000 1.0
C      1  0.4200760000000  0.4409150000000  0.5550340000000 1.0
C      1  0.4200760000000  0.5340760000000  0.5732030000000 1.0
C      1  0.5799290000000  0.5801440000000  0.5097850000000 1.0
C      1  0.5799360000000  0.5154550000000  0.5792430000000 1.0
C      1  0.5799300000000  0.4294070000000  0.5391820000000 1.0
C      1  0.5799240000000  0.4409150000000  0.4449660000000 1.0
C      1  0.5799240000000  0.5340760000000  0.4267970000000 1.0
C      1  0.3051700000000  0.4047930000000  0.3739790000000 1.0
C      1  0.3051910000000  0.3507270000000  0.5516190000000 1.0
C      1  0.3051890000000  0.5029460000000  0.6579490000000 1.0
C      1  0.3051870000000  0.6510940000000  0.5460080000000 1.0
C      1  0.3051720000000  0.5904410000000  0.3705120000000 1.0
C      1  0.6948300000000  0.4047930000000  0.6260210000000 1.0
C      1  0.6948090000000  0.3507270000000  0.4483810000000 1.0
C      1  0.6948110000000  0.5029460000000  0.3420510000000 1.0
C      1  0.6948130000000  0.6510940000000  0.4539920000000 1.0
C      1  0.6948280000000  0.5904410000000  0.6294880000000 1.0
C      1  0.5442080000000  0.6722330000000  0.5222800000000 1.0
C      1  0.5441960000000  0.5744130000000  0.3430780000000 1.0
C      1  0.5441980000000  0.3737590000000  0.3807290000000 1.0
C      1  0.5442120000000  0.3475640000000  0.5832090000000 1.0
C      1  0.5442190000000  0.5320300000000  0.6706880000000 1.0
C      1  0.4557920000000  0.6722330000000  0.4777200000000 1.0
C      1  0.4558040000000  0.5744130000000  0.6569220000000 1.0
C      1  0.4558020000000  0.3737590000000  0.6192710000000 1.0
C      1  0.4557880000000  0.3475640000000  0.4167910000000 1.0
C      1  0.4557810000000  0.5320300000000  0.3293120000000 1.0
C      1  0.3008910000000  0.4953920000000  0.3402560000000 1.0
C      1  0.3009030000000  0.3466540000000  0.4550330000000 1.0
C      1  0.3009140000000  0.4098300000000  0.6319730000000 1.0
C      1  0.3009120000000  0.5976220000000  0.6265460000000 1.0
C      1  0.3009010000000  0.6505030000000  0.4462620000000 1.0
C      1  0.6991090000000  0.4953920000000  0.6597440000000 1.0
C      1  0.6990970000000  0.3466540000000  0.5449670000000 1.0
C      1  0.6990860000000  0.4098300000000  0.3680270000000 1.0
C      1  0.6990880000000  0.5976220000000  0.3734540000000 1.0
C      1  0.6990990000000  0.6505030000000  0.5537380000000 1.0
C      1  0.3624720000000  0.6760390000000  0.6242920000000 1.0
C      1  0.3624580000000  0.6726010000000  0.3709850000000 1.0
C      1  0.3624490000000  0.4306300000000  0.2959810000000 1.0
C      1  0.3624650000000  0.2845320000000  0.5029390000000 1.0
C      1  0.3624810000000  0.4361990000000  0.7058520000000 1.0
C      1  0.6375280000000  0.6760390000000  0.3757080000000 1.0
C      1  0.6375420000000  0.6726010000000  0.6290150000000 1.0
C      1  0.6375510000000  0.4306300000000  0.7040190000000 1.0
C      1  0.6375350000000  0.2845320000000  0.4970610000000 1.0
C      1  0.6375190000000  0.4361990000000  0.2941480000000 1.0
C      1  0.4562610000000  0.6707960000000  0.6534350000000 1.0
C      1  0.4562460000000  0.6986990000000  0.3849760000000 1.0
C      1  0.4562350000000  0.4520070000000  0.2754770000000 1.0
C      1  0.4562510000000  0.2716400000000  0.4762680000000 1.0
C      1  0.4562690000000  0.4068580000000  0.7098600000000 1.0
C      1  0.5437390000000  0.6707960000000  0.3465650000000 1.0
C      1  0.5437540000000  0.6986990000000  0.6150240000000 1.0
C      1  0.5437650000000  0.4520070000000  0.7245230000000 1.0
C      1  0.5437490000000  0.2716400000000  0.5237320000000 1.0
C      1  0.5437310000000  0.4068580000000  0.2901400000000 1.0
END
