TITL C-1525613-7943-4544 0.0728029328457286 3375 -8589.75806577733 0 0 60 (Cs) n - 1
REM
REM in /home/nfs/bkarasulu/CARBON/AIRSS/Generating-Clusters/ReaxFF-fromJPCA2015/Units_Real/Try2-Higher-symm/Only-C60
REM
REM
REM
REM
REM
REM ./C.cell (863b2abdce7293c0672fb3ba77bf323a)
REM AIRSS Version 0.9.1 bugfix July 2018 build 013d7b7c2542+ Fri, 06 Jul 2018 19:26:36 +0100
REM compiler GCC version 9.2.1 20190827 (Red Hat 9.2.1-1)
REM options -cpp -mtune=generic -march=x86-64 -g -O0 -fpre-include=/usr/include/finclude/math-vector-fortran.h
REM seed 611892448 409011065 19606775 721177462 1165452247 -940497556 970566627 403569731 1152920892 934541725 -1805350323 459012419 -257557083 193355910 1018949698 -1850465650 -1644508132 1131398700 -2135190424 1208300767 1573976058 1044027046 1308735955 1035252078 -1105479000 984948334 1004618508 -235027531 -1379906739 -957810864 -345078550 -1954566194 1967534701
REM
CELL 1.54180   15.00000   15.00000   15.00000   90.00000   90.00000   90.00000
LATT -1
SFAC C  
C      1  0.3718950000000  0.6655230000000  0.5942760000000 1.0
C      1  0.5492980000000  0.6648870000000  0.6523220000000 1.0
C      1  0.6590630000000  0.6667540000000  0.5019250000000 1.0
C      1  0.5498390000000  0.6640960000000  0.3468810000000 1.0
C      1  0.3731560000000  0.6623470000000  0.4064400000000 1.0
C      1  0.6281540000000  0.6654440000000  0.5942400000000 1.0
C      1  0.4508230000000  0.6647150000000  0.6522340000000 1.0
C      1  0.3410030000000  0.6667420000000  0.5019570000000 1.0
C      1  0.4502290000000  0.6640010000000  0.3469650000000 1.0
C      1  0.6269150000000  0.6622870000000  0.4063980000000 1.0
C      1  0.5921650000000  0.6014030000000  0.7140720000000 1.0
C      1  0.7329030000000  0.6052710000000  0.4774360000000 1.0
C      1  0.5497270000000  0.5990790000000  0.2712720000000 1.0
C      1  0.3009110000000  0.5972850000000  0.3858200000000 1.0
C      1  0.3236800000000  0.6028340000000  0.6599620000000 1.0
C      1  0.4079070000000  0.6012840000000  0.7139630000000 1.0
C      1  0.2671670000000  0.6052580000000  0.4774710000000 1.0
C      1  0.4504100000000  0.5989260000000  0.2713450000000 1.0
C      1  0.6991030000000  0.5972070000000  0.3858670000000 1.0
C      1  0.6763420000000  0.6028700000000  0.6600300000000 1.0
C      1  0.5452850000000  0.4622810000000  0.6277470000000 1.0
C      1  0.6554010000000  0.4694600000000  0.5015570000000 1.0
C      1  0.5438420000000  0.4588780000000  0.3668700000000 1.0
C      1  0.3834840000000  0.4490320000000  0.4223170000000 1.0
C      1  0.3782800000000  0.4616950000000  0.5841540000000 1.0
C      1  0.4546270000000  0.4623630000000  0.6278600000000 1.0
C      1  0.3445240000000  0.4693370000000  0.5016440000000 1.0
C      1  0.4561660000000  0.4567900000000  0.3669610000000 1.0
C      1  0.6161980000000  0.4487860000000  0.4227020000000 1.0
C      1  0.6216860000000  0.4618490000000  0.5841570000000 1.0
C      1  0.7696210000000  0.5332970000000  0.5389210000000 1.0
C      1  0.6142100000000  0.5254600000000  0.2621490000000 1.0
C      1  0.3096640000000  0.5212870000000  0.3212240000000 1.0
C      1  0.2706210000000  0.5336090000000  0.6229610000000 1.0
C      1  0.5482250000000  0.5250840000000  0.7598520000000 1.0
C      1  0.2303890000000  0.5333000000000  0.5388450000000 1.0
C      1  0.3859440000000  0.5254220000000  0.2622260000000 1.0
C      1  0.6903270000000  0.5213030000000  0.3212350000000 1.0
C      1  0.7294170000000  0.5336330000000  0.6230230000000 1.0
C      1  0.4518200000000  0.5250350000000  0.7599040000000 1.0
C      1  0.5439950000000  0.3237050000000  0.3557940000000 1.0
C      1  0.3810050000000  0.3167510000000  0.4087800000000 1.0
C      1  0.3690600000000  0.3232590000000  0.5918560000000 1.0
C      1  0.5444780000000  0.3277280000000  0.6323770000000 1.0
C      1  0.6259840000000  0.3150510000000  0.4977550000000 1.0
C      1  0.4561540000000  0.3239570000000  0.3557910000000 1.0
C      1  0.6191170000000  0.3164270000000  0.4088400000000 1.0
C      1  0.6309240000000  0.3232930000000  0.5918380000000 1.0
C      1  0.4554950000000  0.3276340000000  0.6324070000000 1.0
C      1  0.3740790000000  0.3150500000000  0.4977800000000 1.0
C      1  0.7432590000000  0.4374800000000  0.5312240000000 1.0
C      1  0.5923170000000  0.4303190000000  0.2852330000000 1.0
C      1  0.3294470000000  0.4249740000000  0.3456610000000 1.0
C      1  0.3051490000000  0.4013850000000  0.6090430000000 1.0
C      1  0.5497670000000  0.4314410000000  0.7237390000000 1.0
C      1  0.2567030000000  0.4374350000000  0.5312090000000 1.0
C      1  0.4072470000000  0.4300950000000  0.2850240000000 1.0
C      1  0.6703600000000  0.4250290000000  0.3456800000000 1.0
C      1  0.6947250000000  0.4015280000000  0.6089910000000 1.0
C      1  0.4503160000000  0.4313460000000  0.7237940000000 1.0
END
