TITL C-1525613-7943-4686 0.285675657868209 3375 -8669.34989890893 0 0 60 (Ci) n - 1
REM
REM in /home/nfs/bkarasulu/CARBON/AIRSS/Generating-Clusters/ReaxFF-fromJPCA2015/Units_Real/Try2-Higher-symm/Only-C60
REM
REM
REM
REM
REM
REM ./C.cell (863b2abdce7293c0672fb3ba77bf323a)
REM AIRSS Version 0.9.1 bugfix July 2018 build 013d7b7c2542+ Fri, 06 Jul 2018 19:26:36 +0100
REM compiler GCC version 9.2.1 20190827 (Red Hat 9.2.1-1)
REM options -cpp -mtune=generic -march=x86-64 -g -O0 -fpre-include=/usr/include/finclude/math-vector-fortran.h
REM seed -1735551327 783189187 1483776614 -863471092 213391954 905072343 -1104555062 439690693 -1745645351 -1662943462 -1987586303 -1825492536 275343244 1855713954 2085069652 -2147355612 -762343834 566337350 1249406158 -518421868 -1093364097 -1934156924 -885287120 -805723768 699626184 799382279 -182447721 680152984 -1862188201 1319700864 -1149886254 1721427284 -937586569
REM
CELL 1.54180   15.00000   15.00000   15.00000   90.00000   90.00000   90.00000
LATT -1
SFAC C  
C      1  0.6543740000000  0.4441040000000  0.7105050000000 1.0
C      1  0.5826580000000  0.3653530000000  0.3027090000000 1.0
C      1  0.4984510000000  0.3385670000000  0.7034820000000 1.0
C      1  0.3935020000000  0.3759740000000  0.2936230000000 1.0
C      1  0.3512190000000  0.4563030000000  0.6932470000000 1.0
C      1  0.3462050000000  0.5584050000000  0.2898450000000 1.0
C      1  0.4145930000000  0.6360000000000  0.6945850000000 1.0
C      1  0.5042700000000  0.6616510000000  0.2989320000000 1.0
C      1  0.6033390000000  0.6262340000000  0.7054380000000 1.0
C      1  0.6505440000000  0.5429270000000  0.3079190000000 1.0
C      1  0.4693420000000  0.5769250000000  0.4324370000000 1.0
C      1  0.5379690000000  0.5724830000000  0.5676910000000 1.0
C      1  0.5571590000000  0.5439000000000  0.4355390000000 1.0
C      1  0.5921410000000  0.4949540000000  0.5682520000000 1.0
C      1  0.5520350000000  0.4499440000000  0.4356860000000 1.0
C      1  0.5320260000000  0.4218810000000  0.5677440000000 1.0
C      1  0.4611530000000  0.4267650000000  0.4318700000000 1.0
C      1  0.4436770000000  0.4538680000000  0.5646090000000 1.0
C      1  0.4081070000000  0.5050120000000  0.4316260000000 1.0
C      1  0.4476450000000  0.5478010000000  0.5636270000000 1.0
C      1  0.5034750000000  0.7068550000000  0.6123700000000 1.0
C      1  0.6095440000000  0.6758630000000  0.3899140000000 1.0
C      1  0.7071870000000  0.5721660000000  0.6286610000000 1.0
C      1  0.6880200000000  0.4401970000000  0.3955530000000 1.0
C      1  0.6383960000000  0.3339170000000  0.6250840000000 1.0
C      1  0.4934010000000  0.2936630000000  0.3837670000000 1.0
C      1  0.3931260000000  0.3225400000000  0.6130080000000 1.0
C      1  0.2912420000000  0.4307500000000  0.3720050000000 1.0
C      1  0.3113270000000  0.5565500000000  0.6038180000000 1.0
C      1  0.3640170000000  0.6677670000000  0.3759250000000 1.0
C      1  0.3115530000000  0.5111210000000  0.4238210000000 1.0
C      1  0.3746810000000  0.6121170000000  0.5501620000000 1.0
C      1  0.4397120000000  0.6698620000000  0.4396530000000 1.0
C      1  0.5755310000000  0.6624250000000  0.5595390000000 1.0
C      1  0.6359870000000  0.6008850000000  0.4489380000000 1.0
C      1  0.6888070000000  0.4914180000000  0.5766540000000 1.0
C      1  0.6241540000000  0.3845360000000  0.4482570000000 1.0
C      1  0.5625450000000  0.3292560000000  0.5617200000000 1.0
C      1  0.4224240000000  0.3372180000000  0.4388740000000 1.0
C      1  0.3653520000000  0.3959050000000  0.5526190000000 1.0
C      1  0.5975820000000  0.6270170000000  0.3046170000000 1.0
C      1  0.6575450000000  0.5430780000000  0.7096840000000 1.0
C      1  0.6446040000000  0.4428030000000  0.3072960000000 1.0
C      1  0.5940280000000  0.3654930000000  0.7078610000000 1.0
C      1  0.4863040000000  0.3404570000000  0.2971230000000 1.0
C      1  0.4050660000000  0.3728530000000  0.6974990000000 1.0
C      1  0.3402300000000  0.4595550000000  0.2903740000000 1.0
C      1  0.3547640000000  0.5566620000000  0.6920530000000 1.0
C      1  0.4084240000000  0.6357110000000  0.2934190000000 1.0
C      1  0.5106310000000  0.6618290000000  0.6999640000000 1.0
C      1  0.4072330000000  0.6848710000000  0.6086870000000 1.0
C      1  0.5156720000000  0.7065420000000  0.3862320000000 1.0
C      1  0.6509450000000  0.6531630000000  0.6229640000000 1.0
C      1  0.6940010000000  0.5391870000000  0.3961420000000 1.0
C      1  0.7010680000000  0.4101050000000  0.6295670000000 1.0
C      1  0.5899190000000  0.3144920000000  0.3873940000000 1.0
C      1  0.4873380000000  0.2929370000000  0.6165860000000 1.0
C      1  0.3465260000000  0.3490320000000  0.3765790000000 1.0
C      1  0.3071380000000  0.4574740000000  0.6053110000000 1.0
C      1  0.3000910000000  0.5926760000000  0.3709400000000 1.0
END
