TITL C-1525613-7943-2848 -0.191073956241153 3375 -8835.51800099554 0 0 60 (D5) n - 1
REM
REM in /home/nfs/bkarasulu/CARBON/AIRSS/Generating-Clusters/ReaxFF-fromJPCA2015/Units_Real/Try2-Higher-symm/Only-C60
REM
REM
REM
REM
REM
REM ./C.cell (863b2abdce7293c0672fb3ba77bf323a)
REM AIRSS Version 0.9.1 bugfix July 2018 build 013d7b7c2542+ Fri, 06 Jul 2018 19:26:36 +0100
REM compiler GCC version 9.2.1 20190827 (Red Hat 9.2.1-1)
REM options -cpp -mtune=generic -march=x86-64 -g -O0 -fpre-include=/usr/include/finclude/math-vector-fortran.h
REM seed -135083454 53017394 -2045277677 -2061484098 413199134 -1532177999 691373914 -498350943 874128474 -1059830737 1392534659 1381099548 -1628074621 -991164744 1679315558 -1189398031 972455124 1038306426 -1812824154 -1183866176 -752595803 -771816995 -1336094492 -1177609260 -1437396453 -1687781887 62393743 -1027448932 -1024426039 -767036161 213041947 1706707990 -1502023607
REM
CELL 1.54180   15.00000   15.00000   15.00000   90.00000   90.00000   90.00000
LATT -1
SFAC C  
C      1  0.4519780000000  0.7314230000000  0.4909650000000 1.0
C      1  0.2620750000000  0.5266330000000  0.4903330000000 1.0
C      1  0.4013410000000  0.2828550000000  0.4912500000000 1.0
C      1  0.6778780000000  0.3380000000000  0.4893280000000 1.0
C      1  0.7078710000000  0.6199300000000  0.4898510000000 1.0
C      1  0.5485120000000  0.7317060000000  0.5091700000000 1.0
C      1  0.7375550000000  0.5273990000000  0.5098660000000 1.0
C      1  0.5983280000000  0.2822920000000  0.5086530000000 1.0
C      1  0.3217140000000  0.3383030000000  0.5103340000000 1.0
C      1  0.2919620000000  0.6189640000000  0.5108150000000 1.0
C      1  0.5797890000000  0.4755620000000  0.6731410000000 1.0
C      1  0.5493520000000  0.5690490000000  0.6727400000000 1.0
C      1  0.4502130000000  0.5681290000000  0.6726560000000 1.0
C      1  0.4202410000000  0.4738590000000  0.6719660000000 1.0
C      1  0.5004970000000  0.4162400000000  0.6726020000000 1.0
C      1  0.4197420000000  0.4743490000000  0.3274380000000 1.0
C      1  0.4518070000000  0.5681240000000  0.3267460000000 1.0
C      1  0.5502090000000  0.5680550000000  0.3272410000000 1.0
C      1  0.5799830000000  0.4736460000000  0.3280680000000 1.0
C      1  0.4993890000000  0.4161370000000  0.3274360000000 1.0
C      1  0.4577090000000  0.7037170000000  0.6255280000000 1.0
C      1  0.2916770000000  0.5221910000000  0.6246800000000 1.0
C      1  0.4148900000000  0.3128590000000  0.6255300000000 1.0
C      1  0.6573290000000  0.3583300000000  0.6239730000000 1.0
C      1  0.6803000000000  0.6040990000000  0.6243960000000 1.0
C      1  0.5423140000000  0.7032940000000  0.3746450000000 1.0
C      1  0.7080560000000  0.5225300000000  0.3752850000000 1.0
C      1  0.5849200000000  0.3125380000000  0.3743810000000 1.0
C      1  0.3458100000000  0.3603640000000  0.3758460000000 1.0
C      1  0.3165050000000  0.6067200000000  0.3761190000000 1.0
C      1  0.6712220000000  0.4416170000000  0.3488820000000 1.0
C      1  0.6094730000000  0.6444240000000  0.3484510000000 1.0
C      1  0.3972420000000  0.6480810000000  0.3486350000000 1.0
C      1  0.3268540000000  0.4473720000000  0.3488500000000 1.0
C      1  0.4955530000000  0.3190400000000  0.3479690000000 1.0
C      1  0.3288340000000  0.4414690000000  0.6509330000000 1.0
C      1  0.3910010000000  0.6441570000000  0.6517110000000 1.0
C      1  0.6038450000000  0.6493860000000  0.6516670000000 1.0
C      1  0.6721860000000  0.4476580000000  0.6508060000000 1.0
C      1  0.5043630000000  0.3191840000000  0.6519850000000 1.0
C      1  0.2734630000000  0.5241520000000  0.3902430000000 1.0
C      1  0.4062930000000  0.2913950000000  0.3906820000000 1.0
C      1  0.6705770000000  0.3470480000000  0.3908790000000 1.0
C      1  0.6986040000000  0.6140880000000  0.3910270000000 1.0
C      1  0.4524030000000  0.7230900000000  0.3898470000000 1.0
C      1  0.7262400000000  0.5244850000000  0.6103890000000 1.0
C      1  0.5932710000000  0.2914820000000  0.6089230000000 1.0
C      1  0.3291510000000  0.3470700000000  0.6088440000000 1.0
C      1  0.3015540000000  0.6137510000000  0.6091220000000 1.0
C      1  0.5475590000000  0.7237690000000  0.6099870000000 1.0
C      1  0.3834150000000  0.4146540000000  0.4926280000000 1.0
C      1  0.5425960000000  0.3623470000000  0.4917490000000 1.0
C      1  0.6445240000000  0.4985400000000  0.4937730000000 1.0
C      1  0.5437310000000  0.6355170000000  0.4899380000000 1.0
C      1  0.3828740000000  0.5842380000000  0.4899960000000 1.0
C      1  0.6166840000000  0.4143950000000  0.5093120000000 1.0
C      1  0.4575710000000  0.3626210000000  0.5081080000000 1.0
C      1  0.3552450000000  0.4980890000000  0.5056990000000 1.0
C      1  0.4567590000000  0.6356120000000  0.5103620000000 1.0
C      1  0.6169660000000  0.5839750000000  0.5076220000000 1.0
END
