TITL C-1525613-7943-4893 0.0508415051263726 3375 -9177.97320912406 0 0 60 (C1) n - 1
REM
REM in /home/nfs/bkarasulu/CARBON/AIRSS/Generating-Clusters/ReaxFF-fromJPCA2015/Units_Real/Try2-Higher-symm/Only-C60
REM
REM
REM
REM
REM
REM ./C.cell (863b2abdce7293c0672fb3ba77bf323a)
REM AIRSS Version 0.9.1 bugfix July 2018 build 013d7b7c2542+ Fri, 06 Jul 2018 19:26:36 +0100
REM compiler GCC version 9.2.1 20190827 (Red Hat 9.2.1-1)
REM options -cpp -mtune=generic -march=x86-64 -g -O0 -fpre-include=/usr/include/finclude/math-vector-fortran.h
REM seed 796508598 1579204156 1709879097 893083451 -221993280 528602559 163368815 -318010675 -2045081833 298678117 1317655646 409876468 -1958307928 1392347079 1514068272 1285061461 -51030930 101235680 -940691154 628034202 -916393131 1628003156 1064040607 -323365117 866612233 1647192138 -2090022895 -1045865680 1647270454 -934475472 78358525 558641465 856504350
REM
CELL 1.54180   15.00000   15.00000   15.00000   90.00000   90.00000   90.00000
LATT -1
SFAC C  
C      1  0.4394410000000  0.7638150000000  0.5607970000000 1.0
C      1  0.2893660000000  0.6813910000000  0.5572460000000 1.0
C      1  0.2336710000000  0.5226230000000  0.5597310000000 1.0
C      1  0.2577210000000  0.3551690000000  0.5769380000000 1.0
C      1  0.3914880000000  0.2519270000000  0.5596350000000 1.0
C      1  0.5599430000000  0.2317280000000  0.5576060000000 1.0
C      1  0.7077980000000  0.3211170000000  0.5613910000000 1.0
C      1  0.7664640000000  0.4796480000000  0.5587750000000 1.0
C      1  0.7459780000000  0.6471770000000  0.5736910000000 1.0
C      1  0.6080570000000  0.7447460000000  0.5605690000000 1.0
C      1  0.2442180000000  0.5142840000000  0.4616500000000 1.0
C      1  0.2364290000000  0.3416600000000  0.4792520000000 1.0
C      1  0.3914600000000  0.2647540000000  0.4606490000000 1.0
C      1  0.5661210000000  0.2405400000000  0.4647980000000 1.0
C      1  0.7181430000000  0.3175400000000  0.4620190000000 1.0
C      1  0.7553610000000  0.4865150000000  0.4607350000000 1.0
C      1  0.7655400000000  0.6595660000000  0.4755580000000 1.0
C      1  0.6086810000000  0.7339470000000  0.4621170000000 1.0
C      1  0.4382180000000  0.7714250000000  0.4623680000000 1.0
C      1  0.2824870000000  0.6846990000000  0.4582870000000 1.0
C      1  0.4067090000000  0.4434870000000  0.3199050000000 1.0
C      1  0.4452070000000  0.3624570000000  0.3251500000000 1.0
C      1  0.5420650000000  0.3373520000000  0.3262060000000 1.0
C      1  0.6227400000000  0.3871500000000  0.3303900000000 1.0
C      1  0.6472180000000  0.4851060000000  0.3244900000000 1.0
C      1  0.5929790000000  0.5566700000000  0.3196300000000 1.0
C      1  0.5547810000000  0.6376950000000  0.3257680000000 1.0
C      1  0.4572910000000  0.6623770000000  0.3268070000000 1.0
C      1  0.3757490000000  0.6130030000000  0.3268140000000 1.0
C      1  0.3526840000000  0.5151530000000  0.3252500000000 1.0
C      1  0.5141520000000  0.6563630000000  0.6573840000000 1.0
C      1  0.4196570000000  0.6335120000000  0.6540510000000 1.0
C      1  0.3566730000000  0.5606910000000  0.6560320000000 1.0
C      1  0.3472040000000  0.4639630000000  0.6590710000000 1.0
C      1  0.3965830000000  0.3800670000000  0.6588450000000 1.0
C      1  0.4857920000000  0.3409620000000  0.6549900000000 1.0
C      1  0.5811390000000  0.3631660000000  0.6525530000000 1.0
C      1  0.6447110000000  0.4371390000000  0.6565300000000 1.0
C      1  0.6520640000000  0.5340920000000  0.6583340000000 1.0
C      1  0.6030850000000  0.6171470000000  0.6592970000000 1.0
C      1  0.6242080000000  0.2931080000000  0.6025900000000 1.0
C      1  0.7216780000000  0.4068550000000  0.6060530000000 1.0
C      1  0.7345260000000  0.5578090000000  0.6107690000000 1.0
C      1  0.6622090000000  0.6792120000000  0.6116800000000 1.0
C      1  0.5221690000000  0.7383330000000  0.6062070000000 1.0
C      1  0.3736650000000  0.7028230000000  0.6026010000000 1.0
C      1  0.2806600000000  0.5964710000000  0.6053760000000 1.0
C      1  0.2643510000000  0.4456680000000  0.6119920000000 1.0
C      1  0.3398220000000  0.3169450000000  0.6121000000000 1.0
C      1  0.4768970000000  0.2589510000000  0.6049390000000 1.0
C      1  0.3256410000000  0.6870810000000  0.3719320000000 1.0
C      1  0.2809970000000  0.4706170000000  0.3837510000000 1.0
C      1  0.2861230000000  0.3709930000000  0.4010580000000 1.0
C      1  0.3718960000000  0.3194890000000  0.3842100000000 1.0
C      1  0.5813680000000  0.2597240000000  0.3775140000000 1.0
C      1  0.6723110000000  0.3144490000000  0.3773400000000 1.0
C      1  0.7190960000000  0.5294900000000  0.3821040000000 1.0
C      1  0.7137900000000  0.6294040000000  0.3989170000000 1.0
C      1  0.6279580000000  0.6806210000000  0.3837950000000 1.0
C      1  0.4155690000000  0.7401330000000  0.3737640000000 1.0
END
