TITL C-1525613-7943-2119 0.00167989058230338 3375 -8838.65126354307 0 0 60 (C1) n - 1
REM
REM in /home/nfs/bkarasulu/CARBON/AIRSS/Generating-Clusters/ReaxFF-fromJPCA2015/Units_Real/Try2-Higher-symm/Only-C60
REM
REM
REM
REM
REM
REM ./C.cell (863b2abdce7293c0672fb3ba77bf323a)
REM AIRSS Version 0.9.1 bugfix July 2018 build 013d7b7c2542+ Fri, 06 Jul 2018 19:26:36 +0100
REM compiler GCC version 9.2.1 20190827 (Red Hat 9.2.1-1)
REM options -cpp -mtune=generic -march=x86-64 -g -O0 -fpre-include=/usr/include/finclude/math-vector-fortran.h
REM seed -380684710 -821546861 -265736301 -930901091 -1772417288 -527337386 1251164006 1859305890 -1472725534 -1332734438 -2021955799 771363783 510469396 1009227198 1813858881 -1714266370 -558856890 1994792622 1579985075 1810957066 -1183609238 -1510671800 -1536094578 2055276251 -1935393777 -497811258 -1886615769 1150438552 -1475248028 -901120628 343534216 -941696785 1390452504
REM
CELL 1.54180   15.00000   15.00000   15.00000   90.00000   90.00000   90.00000
LATT -1
SFAC C  
C      1  0.6541480000000  0.2661260000000  0.5773740000000 1.0
C      1  0.4746400000000  0.2635960000000  0.6711250000000 1.0
C      1  0.3304460000000  0.2664570000000  0.5289210000000 1.0
C      1  0.4208300000000  0.2655350000000  0.3467820000000 1.0
C      1  0.6210860000000  0.2656050000000  0.3770480000000 1.0
C      1  0.3449460000000  0.7359040000000  0.5766470000000 1.0
C      1  0.5247350000000  0.7333470000000  0.6699110000000 1.0
C      1  0.6700250000000  0.7339310000000  0.5275660000000 1.0
C      1  0.5799600000000  0.7351570000000  0.3463100000000 1.0
C      1  0.3787920000000  0.7337290000000  0.3766460000000 1.0
C      1  0.6142860000000  0.6209610000000  0.2744540000000 1.0
C      1  0.7500860000000  0.6201960000000  0.5370840000000 1.0
C      1  0.5397150000000  0.6188110000000  0.7479870000000 1.0
C      1  0.2751740000000  0.6222690000000  0.6165000000000 1.0
C      1  0.3198990000000  0.6194850000000  0.3224220000000 1.0
C      1  0.3871710000000  0.3795020000000  0.2740520000000 1.0
C      1  0.2515940000000  0.3810970000000  0.5391980000000 1.0
C      1  0.4589190000000  0.3775760000000  0.7494110000000 1.0
C      1  0.7241630000000  0.3803870000000  0.6162460000000 1.0
C      1  0.6793560000000  0.3801900000000  0.3233090000000 1.0
C      1  0.3253470000000  0.7006030000000  0.3233120000000 1.0
C      1  0.6149730000000  0.7023580000000  0.2789510000000 1.0
C      1  0.7448360000000  0.7012390000000  0.5392800000000 1.0
C      1  0.5359960000000  0.7001230000000  0.7451500000000 1.0
C      1  0.2772450000000  0.7035420000000  0.6111540000000 1.0
C      1  0.6747040000000  0.2988420000000  0.3231270000000 1.0
C      1  0.3865940000000  0.2984740000000  0.2793280000000 1.0
C      1  0.2554980000000  0.2998000000000  0.5415040000000 1.0
C      1  0.4629350000000  0.2962590000000  0.7460500000000 1.0
C      1  0.7212980000000  0.2993430000000  0.6117540000000 1.0
C      1  0.4411290000000  0.7661110000000  0.4395230000000 1.0
C      1  0.5386060000000  0.7662350000000  0.4251720000000 1.0
C      1  0.5824000000000  0.7657430000000  0.5133810000000 1.0
C      1  0.5119880000000  0.7657400000000  0.5823160000000 1.0
C      1  0.4247390000000  0.7664470000000  0.5366510000000 1.0
C      1  0.5588580000000  0.2336540000000  0.4402410000000 1.0
C      1  0.4614320000000  0.2337990000000  0.4257550000000 1.0
C      1  0.4175460000000  0.2337220000000  0.5139810000000 1.0
C      1  0.4878930000000  0.2328830000000  0.5829210000000 1.0
C      1  0.5752420000000  0.2335140000000  0.5374120000000 1.0
C      1  0.5459730000000  0.5164100000000  0.3647720000000 1.0
C      1  0.6458640000000  0.5118950000000  0.4987470000000 1.0
C      1  0.5435530000000  0.5132200000000  0.6391000000000 1.0
C      1  0.3840080000000  0.5173950000000  0.5834780000000 1.0
C      1  0.3799450000000  0.5111220000000  0.4156540000000 1.0
C      1  0.4553410000000  0.4868260000000  0.3626870000000 1.0
C      1  0.3533000000000  0.4872440000000  0.5018320000000 1.0
C      1  0.4566230000000  0.4824910000000  0.6354910000000 1.0
C      1  0.6176880000000  0.4895900000000  0.5871170000000 1.0
C      1  0.6163700000000  0.4848910000000  0.4137420000000 1.0
C      1  0.3260590000000  0.5264360000000  0.3338550000000 1.0
C      1  0.6043940000000  0.5285540000000  0.2864180000000 1.0
C      1  0.7381060000000  0.5270660000000  0.5317420000000 1.0
C      1  0.5416230000000  0.5261260000000  0.7338570000000 1.0
C      1  0.2904760000000  0.5297130000000  0.6137230000000 1.0
C      1  0.6720410000000  0.4726490000000  0.3364870000000 1.0
C      1  0.3963080000000  0.4725880000000  0.2845840000000 1.0
C      1  0.2639780000000  0.4738290000000  0.5334690000000 1.0
C      1  0.4572010000000  0.4700780000000  0.7337940000000 1.0
C      1  0.7119210000000  0.4735860000000  0.6134940000000 1.0
END
