TITL C-1525613-7943-7668 0.277504292642864 3375 -8231.20496548387 0 0 60 (Ci) n - 1
REM
REM in /home/nfs/bkarasulu/CARBON/AIRSS/Generating-Clusters/ReaxFF-fromJPCA2015/Units_Real/Try2-Higher-symm/Only-C60
REM
REM
REM
REM
REM
REM ./C.cell (863b2abdce7293c0672fb3ba77bf323a)
REM AIRSS Version 0.9.1 bugfix July 2018 build 013d7b7c2542+ Fri, 06 Jul 2018 19:26:36 +0100
REM compiler GCC version 9.2.1 20190827 (Red Hat 9.2.1-1)
REM options -cpp -mtune=generic -march=x86-64 -g -O0 -fpre-include=/usr/include/finclude/math-vector-fortran.h
REM seed -445837059 -59811289 -1034322946 161264378 -1739296537 -1788288204 1361944366 2060152862 2043502014 1148067852 1155418797 -371831490 -1158250771 411658260 227762736 289227482 -540591152 -1913484120 -1622402931 -2038051785 698091322 1069590353 536633231 -1599904205 -39517987 -1002089615 -1216655750 1970033125 -353283914 -1905156611 -786986360 1140660175 574262152
REM
CELL 1.54180   15.00000   15.00000   15.00000   90.00000   90.00000   90.00000
LATT -1
SFAC C  
C      1  0.2757670000000  0.5813520000000  0.5216120000000 1.0
C      1  0.7251300000000  0.5780650000000  0.4723640000000 1.0
C      1  0.2755560000000  0.5474110000000  0.4290720000000 1.0
C      1  0.7246950000000  0.4962200000000  0.4173520000000 1.0
C      1  0.2749810000000  0.4488950000000  0.4327300000000 1.0
C      1  0.7242010000000  0.4186640000000  0.4783980000000 1.0
C      1  0.2748570000000  0.4219230000000  0.5276290000000 1.0
C      1  0.7244450000000  0.4526500000000  0.5710080000000 1.0
C      1  0.2752520000000  0.5038600000000  0.5826810000000 1.0
C      1  0.7250270000000  0.5511300000000  0.5672270000000 1.0
C      1  0.6259340000000  0.6306680000000  0.2971270000000 1.0
C      1  0.3728690000000  0.4859000000000  0.2573420000000 1.0
C      1  0.6261290000000  0.3491310000000  0.3085220000000 1.0
C      1  0.3755950000000  0.2664600000000  0.4391570000000 1.0
C      1  0.6268050000000  0.2723110000000  0.5883660000000 1.0
C      1  0.3736610000000  0.3692460000000  0.7025510000000 1.0
C      1  0.6268950000000  0.5142740000000  0.7428430000000 1.0
C      1  0.3739440000000  0.6508750000000  0.6914160000000 1.0
C      1  0.6261570000000  0.7341380000000  0.5639730000000 1.0
C      1  0.3745640000000  0.7252050000000  0.4098190000000 1.0
C      1  0.6249050000000  0.4184340000000  0.4823610000000 1.0
C      1  0.3742410000000  0.4230950000000  0.5314420000000 1.0
C      1  0.6252280000000  0.4565680000000  0.5731010000000 1.0
C      1  0.3746760000000  0.5073980000000  0.5824370000000 1.0
C      1  0.6257340000000  0.5546990000000  0.5645630000000 1.0
C      1  0.3750640000000  0.5816140000000  0.5176650000000 1.0
C      1  0.6258190000000  0.5769230000000  0.4685210000000 1.0
C      1  0.3748030000000  0.5433830000000  0.4268920000000 1.0
C      1  0.6253560000000  0.4926330000000  0.4176120000000 1.0
C      1  0.3743110000000  0.4452710000000  0.4354380000000 1.0
C      1  0.5468840000000  0.6677740000000  0.3332500000000 1.0
C      1  0.4519060000000  0.5395850000000  0.2597880000000 1.0
C      1  0.5460620000000  0.3934130000000  0.2835480000000 1.0
C      1  0.4537670000000  0.2908530000000  0.3902860000000 1.0
C      1  0.5476090000000  0.2636620000000  0.5367690000000 1.0
C      1  0.4525550000000  0.3322410000000  0.6656410000000 1.0
C      1  0.5481190000000  0.4607520000000  0.7409970000000 1.0
C      1  0.4539740000000  0.6066320000000  0.7162890000000 1.0
C      1  0.5466310000000  0.7089530000000  0.6094480000000 1.0
C      1  0.4521770000000  0.7368020000000  0.4635990000000 1.0
C      1  0.4584440000000  0.7225810000000  0.5638950000000 1.0
C      1  0.5398220000000  0.7230460000000  0.4186040000000 1.0
C      1  0.4597300000000  0.6295430000000  0.3048920000000 1.0
C      1  0.5391480000000  0.4913080000000  0.2565150000000 1.0
C      1  0.4590960000000  0.3563510000000  0.3141180000000 1.0
C      1  0.5414810000000  0.2770850000000  0.4357230000000 1.0
C      1  0.4600450000000  0.2774140000000  0.5814070000000 1.0
C      1  0.5402550000000  0.3706190000000  0.6950300000000 1.0
C      1  0.4610050000000  0.5087240000000  0.7436150000000 1.0
C      1  0.5408560000000  0.6438680000000  0.6860210000000 1.0
C      1  0.6051520000000  0.5844000000000  0.7163040000000 1.0
C      1  0.3968980000000  0.6928170000000  0.6242680000000 1.0
C      1  0.6022630000000  0.7323920000000  0.4850700000000 1.0
C      1  0.3961970000000  0.6783300000000  0.3512760000000 1.0
C      1  0.6015520000000  0.5565860000000  0.2714410000000 1.0
C      1  0.3947230000000  0.4157750000000  0.2836800000000 1.0
C      1  0.6030660000000  0.3070960000000  0.3755720000000 1.0
C      1  0.3966760000000  0.2670120000000  0.5142920000000 1.0
C      1  0.6026650000000  0.3227380000000  0.6489410000000 1.0
C      1  0.3986400000000  0.4432510000000  0.7284980000000 1.0
END
