TITL C-1525613-7943-5361 0.000334726889433284 3375 -9858.36398943954 0 0 60 (D5) n - 1
REM
REM in /home/nfs/bkarasulu/CARBON/AIRSS/Generating-Clusters/ReaxFF-fromJPCA2015/Units_Real/Try2-Higher-symm/Only-C60
REM
REM
REM
REM
REM
REM ./C.cell (863b2abdce7293c0672fb3ba77bf323a)
REM AIRSS Version 0.9.1 bugfix July 2018 build 013d7b7c2542+ Fri, 06 Jul 2018 19:26:36 +0100
REM compiler GCC version 9.2.1 20190827 (Red Hat 9.2.1-1)
REM options -cpp -mtune=generic -march=x86-64 -g -O0 -fpre-include=/usr/include/finclude/math-vector-fortran.h
REM seed -1996103430 940843165 1201260725 -2107807466 -152483026 1721013755 620757864 644640037 1344471873 184003453 124219852 693291305 2080392594 -419922341 1914707748 634271017 -1391875286 749206419 -739908284 -2015733670 896336306 -302772347 462349498 2060351461 -1693794382 593194702 2090049006 -642743367 -1273542342 1022088987 -1395637076 814386371 938246518
REM
CELL 1.54180   15.00000   15.00000   15.00000   90.00000   90.00000   90.00000
LATT -1
SFAC C  
C      1  0.5281780000000  0.7300320000000  0.3845770000000 1.0
C      1  0.5273670000000  0.6798720000000  0.6834050000000 1.0
C      1  0.5275700000000  0.3801370000000  0.7284670000000 1.0
C      1  0.5283000000000  0.2444110000000  0.4572080000000 1.0
C      1  0.5285490000000  0.4611600000000  0.2442590000000 1.0
C      1  0.4718230000000  0.2699690000000  0.3845770000000 1.0
C      1  0.4726330000000  0.3201280000000  0.6834070000000 1.0
C      1  0.4724310000000  0.6198630000000  0.7284660000000 1.0
C      1  0.4717000000000  0.7555880000000  0.4572070000000 1.0
C      1  0.4714520000000  0.5388400000000  0.2442600000000 1.0
C      1  0.6105390000000  0.4856690000000  0.2882370000000 1.0
C      1  0.6103550000000  0.6970910000000  0.4203180000000 1.0
C      1  0.6097410000000  0.6368220000000  0.6621860000000 1.0
C      1  0.6096410000000  0.3879830000000  0.6798930000000 1.0
C      1  0.6101380000000  0.2946240000000  0.4484200000000 1.0
C      1  0.3894610000000  0.5143300000000  0.2882350000000 1.0
C      1  0.3896430000000  0.3029100000000  0.4203170000000 1.0
C      1  0.3902580000000  0.3631770000000  0.6621870000000 1.0
C      1  0.3903600000000  0.6120170000000  0.6798930000000 1.0
C      1  0.3898610000000  0.7053750000000  0.4484210000000 1.0
C      1  0.3082760000000  0.5801510000000  0.5124320000000 1.0
C      1  0.3082490000000  0.5123900000000  0.5803100000000 1.0
C      1  0.3077110000000  0.4272570000000  0.5367490000000 1.0
C      1  0.3073600000000  0.4421420000000  0.4426270000000 1.0
C      1  0.3077760000000  0.5362950000000  0.4272900000000 1.0
C      1  0.6917230000000  0.4198490000000  0.5124320000000 1.0
C      1  0.6917500000000  0.4876100000000  0.5803100000000 1.0
C      1  0.6922910000000  0.5727420000000  0.5367510000000 1.0
C      1  0.6926380000000  0.5578580000000  0.4426300000000 1.0
C      1  0.6922250000000  0.4637050000000  0.4272900000000 1.0
C      1  0.3926150000000  0.4199210000000  0.3054310000000 1.0
C      1  0.3936070000000  0.6595340000000  0.3640100000000 1.0
C      1  0.3935150000000  0.6786030000000  0.6100930000000 1.0
C      1  0.3925590000000  0.4497090000000  0.7043600000000 1.0
C      1  0.3920960000000  0.2897260000000  0.5155200000000 1.0
C      1  0.6073830000000  0.5800780000000  0.3054320000000 1.0
C      1  0.6063930000000  0.3404650000000  0.3640090000000 1.0
C      1  0.6064850000000  0.3213970000000  0.6100930000000 1.0
C      1  0.6074420000000  0.5502910000000  0.7043590000000 1.0
C      1  0.6079050000000  0.7102780000000  0.5155210000000 1.0
C      1  0.4784180000000  0.7228950000000  0.6171100000000 1.0
C      1  0.4769800000000  0.4578180000000  0.7502040000000 1.0
C      1  0.4764870000000  0.2496110000000  0.5383570000000 1.0
C      1  0.4773820000000  0.3868420000000  0.2753500000000 1.0
C      1  0.4787740000000  0.6788990000000  0.3244650000000 1.0
C      1  0.5215820000000  0.2771040000000  0.6171120000000 1.0
C      1  0.5230210000000  0.5421820000000  0.7502030000000 1.0
C      1  0.5235130000000  0.7503910000000  0.5383560000000 1.0
C      1  0.5226180000000  0.6131600000000  0.2753490000000 1.0
C      1  0.5212260000000  0.3211030000000  0.3244630000000 1.0
C      1  0.6485110000000  0.4257920000000  0.3516920000000 1.0
C      1  0.6493320000000  0.6178510000000  0.3828370000000 1.0
C      1  0.6488980000000  0.6482880000000  0.5750690000000 1.0
C      1  0.6481280000000  0.4743400000000  0.6639780000000 1.0
C      1  0.6479440000000  0.3362000000000  0.5251440000000 1.0
C      1  0.3514910000000  0.5742060000000  0.3516910000000 1.0
C      1  0.3506680000000  0.3821510000000  0.3828370000000 1.0
C      1  0.3511010000000  0.3517100000000  0.5750710000000 1.0
C      1  0.3518730000000  0.5256600000000  0.6639790000000 1.0
C      1  0.3520550000000  0.6637980000000  0.5251440000000 1.0
END
