TITL C-1525613-7943-1075 -5.98923215686817e-05 3375 -9891.21905780005 0 0 60 (Ih) n - 1
REM
REM in /home/nfs/bkarasulu/CARBON/AIRSS/Generating-Clusters/ReaxFF-fromJPCA2015/Units_Real/Try2-Higher-symm/Only-C60
REM
REM
REM
REM
REM
REM ./C.cell (863b2abdce7293c0672fb3ba77bf323a)
REM AIRSS Version 0.9.1 bugfix July 2018 build 013d7b7c2542+ Fri, 06 Jul 2018 19:26:36 +0100
REM compiler GCC version 9.2.1 20190827 (Red Hat 9.2.1-1)
REM options -cpp -mtune=generic -march=x86-64 -g -O0 -fpre-include=/usr/include/finclude/math-vector-fortran.h
REM seed -2049225155 1044162980 644294404 -381676304 -375847185 1677417369 -409203463 -461886865 2092163644 -1252669314 -2083919528 -1940181302 1521811725 1666563559 -306980774 -1897391279 994705421 -899942771 369896735 -434720212 690012722 -1898720102 856927519 -472789297 -2105893467 -306210511 1503940508 -591645960 2036967369 1990466555 1352712532 372504328 1242308581
REM
CELL 1.54180   15.00000   15.00000   15.00000   90.00000   90.00000   90.00000
LATT -1
SFAC C  
C      1  0.5532510000000  0.4381620000000  0.7225280000000 1.0
C      1  0.5791260000000  0.4812570000000  0.2773660000000 1.0
C      1  0.5753330000000  0.5313610000000  0.7225300000000 1.0
C      1  0.5422100000000  0.5696360000000  0.2774070000000 1.0
C      1  0.4935190000000  0.5811630000000  0.7225960000000 1.0
C      1  0.4467490000000  0.5618380000000  0.2774720000000 1.0
C      1  0.4208740000000  0.5187430000000  0.7226340000000 1.0
C      1  0.4246670000000  0.4686390000000  0.2774700000000 1.0
C      1  0.4577900000000  0.4303640000000  0.7225930000000 1.0
C      1  0.5064810000000  0.4188370000000  0.2774040000000 1.0
C      1  0.6581420000000  0.4625350000000  0.3274720000000 1.0
C      1  0.6501950000000  0.5626550000000  0.6723200000000 1.0
C      1  0.5844490000000  0.6389600000000  0.3275560000000 1.0
C      1  0.4868760000000  0.6620700000000  0.6724510000000 1.0
C      1  0.3938860000000  0.6233920000000  0.3276840000000 1.0
C      1  0.3418580000000  0.5374650000000  0.6725280000000 1.0
C      1  0.3498050000000  0.4373450000000  0.3276800000000 1.0
C      1  0.4155510000000  0.3610400000000  0.6724440000000 1.0
C      1  0.5131240000000  0.3379300000000  0.3275490000000 1.0
C      1  0.6061140000000  0.3766080000000  0.6723160000000 1.0
C      1  0.5620210000000  0.6934820000000  0.6220520000000 1.0
C      1  0.4362850000000  0.6929770000000  0.3780220000000 1.0
C      1  0.3351890000000  0.6186790000000  0.6221940000000 1.0
C      1  0.2967420000000  0.4991320000000  0.3780820000000 1.0
C      1  0.3362370000000  0.3798340000000  0.6221490000000 1.0
C      1  0.4379790000000  0.3065180000000  0.3779480000000 1.0
C      1  0.5637150000000  0.3070230000000  0.6219780000000 1.0
C      1  0.6648110000000  0.3813210000000  0.3778060000000 1.0
C      1  0.7032580000000  0.5008680000000  0.6219180000000 1.0
C      1  0.6637630000000  0.6201660000000  0.3778510000000 1.0
C      1  0.6853030000000  0.3578490000000  0.5404300000000 1.0
C      1  0.7334130000000  0.4939130000000  0.4592540000000 1.0
C      1  0.6924680000000  0.6322740000000  0.5404760000000 1.0
C      1  0.5779060000000  0.7201390000000  0.4594040000000 1.0
C      1  0.4336880000000  0.7238910000000  0.5406710000000 1.0
C      1  0.3146970000000  0.6421510000000  0.4595700000000 1.0
C      1  0.2665870000000  0.5060870000000  0.5407460000000 1.0
C      1  0.3075320000000  0.3677260000000  0.4595240000000 1.0
C      1  0.4220940000000  0.2798610000000  0.5405960000000 1.0
C      1  0.5663120000000  0.2761090000000  0.4593290000000 1.0
C      1  0.4686140000000  0.2992540000000  0.6220420000000 1.0
C      1  0.5924380000000  0.3191360000000  0.3778440000000 1.0
C      1  0.6812590000000  0.4080200000000  0.6219160000000 1.0
C      1  0.7005400000000  0.5321200000000  0.3778100000000 1.0
C      1  0.6435260000000  0.6438680000000  0.6219860000000 1.0
C      1  0.5313860000000  0.7007460000000  0.3779580000000 1.0
C      1  0.4075620000000  0.6808640000000  0.6221560000000 1.0
C      1  0.3187410000000  0.5919800000000  0.3780840000000 1.0
C      1  0.2994600000000  0.4678800000000  0.6221900000000 1.0
C      1  0.3564740000000  0.3561320000000  0.3780140000000 1.0
C      1  0.3873430000000  0.7045710000000  0.4595320000000 1.0
C      1  0.2886700000000  0.5992860000000  0.5407480000000 1.0
C      1  0.2706160000000  0.4561050000000  0.4595660000000 1.0
C      1  0.3402810000000  0.3296620000000  0.5406620000000 1.0
C      1  0.4708510000000  0.2683100000000  0.4593930000000 1.0
C      1  0.6126570000000  0.2954290000000  0.5404680000000 1.0
C      1  0.7113300000000  0.4007140000000  0.4592520000000 1.0
C      1  0.7293840000000  0.5438950000000  0.5404340000000 1.0
C      1  0.6597190000000  0.6703380000000  0.4593380000000 1.0
C      1  0.5291490000000  0.7316900000000  0.5406070000000 1.0
END
