TITL C-1525613-7943-3004 0.0212070363098136 3375 -8662.70357770176 0 0 60 (C1) n - 1
REM
REM in /home/nfs/bkarasulu/CARBON/AIRSS/Generating-Clusters/ReaxFF-fromJPCA2015/Units_Real/Try2-Higher-symm/Only-C60
REM
REM
REM
REM
REM
REM ./C.cell (863b2abdce7293c0672fb3ba77bf323a)
REM AIRSS Version 0.9.1 bugfix July 2018 build 013d7b7c2542+ Fri, 06 Jul 2018 19:26:36 +0100
REM compiler GCC version 9.2.1 20190827 (Red Hat 9.2.1-1)
REM options -cpp -mtune=generic -march=x86-64 -g -O0 -fpre-include=/usr/include/finclude/math-vector-fortran.h
REM seed 83886277 1883973281 390583764 -1609852933 1005712283 -935491148 -1021084096 1521467215 696614590 -264954124 -318169650 70160589 1869005599 316096102 -1754877088 1667540958 595339160 -1726723527 -50011215 -794579700 1767011605 -691797368 -2127038468 1585233945 932374242 -1857319394 1736971912 -1935289608 178745640 1874634748 -1406197630 -1037417753 -399205981
REM
CELL 1.54180   15.00000   15.00000   15.00000   90.00000   90.00000   90.00000
LATT -1
SFAC C  
C      1  0.5560210000000  0.4513440000000  0.6026810000000 1.0
C      1  0.4985890000000  0.4132010000000  0.4473320000000 1.0
C      1  0.4784920000000  0.4185230000000  0.5469690000000 1.0
C      1  0.4217770000000  0.4509970000000  0.3847770000000 1.0
C      1  0.4287590000000  0.5171210000000  0.5874290000000 1.0
C      1  0.4451730000000  0.5466470000000  0.3959910000000 1.0
C      1  0.5026750000000  0.5834080000000  0.5519050000000 1.0
C      1  0.5236620000000  0.5721470000000  0.4525840000000 1.0
C      1  0.5768050000000  0.5480190000000  0.6133200000000 1.0
C      1  0.5715640000000  0.4873070000000  0.4132880000000 1.0
C      1  0.4979680000000  0.6889900000000  0.5750630000000 1.0
C      1  0.5959270000000  0.6544450000000  0.4273310000000 1.0
C      1  0.6802660000000  0.5491080000000  0.6082630000000 1.0
C      1  0.6585680000000  0.4406110000000  0.3967540000000 1.0
C      1  0.6184900000000  0.3153470000000  0.6317680000000 1.0
C      1  0.5032340000000  0.3092220000000  0.4228040000000 1.0
C      1  0.4067320000000  0.3503860000000  0.5741290000000 1.0
C      1  0.3175380000000  0.4495300000000  0.3920120000000 1.0
C      1  0.3406250000000  0.5579480000000  0.6080080000000 1.0
C      1  0.3799360000000  0.6899390000000  0.3662510000000 1.0
C      1  0.7232460000000  0.6098970000000  0.4503660000000 1.0
C      1  0.7513090000000  0.4528890000000  0.5399190000000 1.0
C      1  0.6557910000000  0.3176370000000  0.4602690000000 1.0
C      1  0.5182710000000  0.2530130000000  0.5605690000000 1.0
C      1  0.3729110000000  0.2660600000000  0.4382040000000 1.0
C      1  0.2771630000000  0.3856810000000  0.5501240000000 1.0
C      1  0.2479910000000  0.5453680000000  0.4619700000000 1.0
C      1  0.3452830000000  0.6796470000000  0.5397730000000 1.0
C      1  0.4803420000000  0.7499380000000  0.4398190000000 1.0
C      1  0.6273710000000  0.7331730000000  0.5607210000000 1.0
C      1  0.2888850000000  0.5398990000000  0.3718690000000 1.0
C      1  0.3704270000000  0.6472440000000  0.6383830000000 1.0
C      1  0.4766780000000  0.7025090000000  0.3483550000000 1.0
C      1  0.5722100000000  0.6991920000000  0.6405250000000 1.0
C      1  0.6585550000000  0.6065780000000  0.3694550000000 1.0
C      1  0.7070690000000  0.4585480000000  0.6273030000000 1.0
C      1  0.6294090000000  0.3539550000000  0.3618290000000 1.0
C      1  0.5228960000000  0.3022320000000  0.6501970000000 1.0
C      1  0.4274820000000  0.2996190000000  0.3586280000000 1.0
C      1  0.3397100000000  0.3944340000000  0.6297480000000 1.0
C      1  0.2652110000000  0.4475880000000  0.4751770000000 1.0
C      1  0.2890120000000  0.6011340000000  0.5325840000000 1.0
C      1  0.3883400000000  0.7206860000000  0.4607650000000 1.0
C      1  0.5405200000000  0.7569330000000  0.5165660000000 1.0
C      1  0.6691930000000  0.6844570000000  0.4874760000000 1.0
C      1  0.7338830000000  0.5496340000000  0.5265880000000 1.0
C      1  0.7120070000000  0.3964450000000  0.4685370000000 1.0
C      1  0.6111420000000  0.2803550000000  0.5394290000000 1.0
C      1  0.4589270000000  0.2442810000000  0.4836720000000 1.0
C      1  0.3376990000000  0.3153790000000  0.5139440000000 1.0
C      1  0.5502610000000  0.3656930000000  0.3099600000000 1.0
C      1  0.4716180000000  0.3773570000000  0.6917670000000 1.0
C      1  0.4572180000000  0.3795310000000  0.3102350000000 1.0
C      1  0.4119580000000  0.4525160000000  0.6672320000000 1.0
C      1  0.3720460000000  0.5929430000000  0.3585920000000 1.0
C      1  0.4503610000000  0.6361110000000  0.6894800000000 1.0
C      1  0.5276130000000  0.6275470000000  0.3137980000000 1.0
C      1  0.5427970000000  0.6193760000000  0.6889610000000 1.0
C      1  0.5855070000000  0.5536130000000  0.3291240000000 1.0
C      1  0.6288860000000  0.4066650000000  0.6394260000000 1.0
END
