TITL C-1525613-7943-1698 0.00727995534342134 3375 -9271.93131546182 0 0 60 (C2) n - 1
REM
REM in /home/nfs/bkarasulu/CARBON/AIRSS/Generating-Clusters/ReaxFF-fromJPCA2015/Units_Real/Try2-Higher-symm/Only-C60
REM
REM
REM
REM
REM
REM ./C.cell (863b2abdce7293c0672fb3ba77bf323a)
REM AIRSS Version 0.9.1 bugfix July 2018 build 013d7b7c2542+ Fri, 06 Jul 2018 19:26:36 +0100
REM compiler GCC version 9.2.1 20190827 (Red Hat 9.2.1-1)
REM options -cpp -mtune=generic -march=x86-64 -g -O0 -fpre-include=/usr/include/finclude/math-vector-fortran.h
REM seed -1640023938 -1233517297 240467997 -627420510 -722305149 -1015412750 1822647503 1803084357 -411657526 -2105338115 673280644 -159446535 914543104 905896529 -2023948267 -1234978513 1230665072 1287031879 102023319 745743937 884905828 -1771937922 1178382733 -505565301 -1340226981 673020902 989931178 -1822717883 -1800691538 536122954 -596758198 1906352649 -608959032
REM
CELL 1.54180   15.00000   15.00000   15.00000   90.00000   90.00000   90.00000
LATT -1
SFAC C  
C      1  0.5671660000000  0.2435700000000  0.4077870000000 1.0
C      1  0.5529410000000  0.3444530000000  0.2914990000000 1.0
C      1  0.5575550000000  0.5112290000000  0.2365730000000 1.0
C      1  0.5574570000000  0.6585840000000  0.2897630000000 1.0
C      1  0.5524820000000  0.7519270000000  0.4384230000000 1.0
C      1  0.5671520000000  0.7564150000000  0.5922170000000 1.0
C      1  0.5530110000000  0.6555640000000  0.7085510000000 1.0
C      1  0.5576050000000  0.4887760000000  0.7634440000000 1.0
C      1  0.5574720000000  0.3414040000000  0.7102310000000 1.0
C      1  0.5525110000000  0.2480530000000  0.5615870000000 1.0
C      1  0.4615370000000  0.2488810000000  0.4096140000000 1.0
C      1  0.4661050000000  0.3278290000000  0.3277890000000 1.0
C      1  0.4639270000000  0.5399960000000  0.2441360000000 1.0
C      1  0.4638890000000  0.6314710000000  0.2771430000000 1.0
C      1  0.4656110000000  0.7417140000000  0.4768850000000 1.0
C      1  0.4615320000000  0.7511080000000  0.5903510000000 1.0
C      1  0.4661800000000  0.6721530000000  0.6721850000000 1.0
C      1  0.4639780000000  0.4600000000000  0.7558690000000 1.0
C      1  0.4639220000000  0.3685320000000  0.7228580000000 1.0
C      1  0.4656450000000  0.2582720000000  0.5231210000000 1.0
C      1  0.3218840000000  0.5065240000000  0.3362320000000 1.0
C      1  0.3218280000000  0.5985980000000  0.3694260000000 1.0
C      1  0.3211760000000  0.6477620000000  0.4542040000000 1.0
C      1  0.3091820000000  0.6488820000000  0.5532450000000 1.0
C      1  0.3224030000000  0.5849830000000  0.6287570000000 1.0
C      1  0.3219250000000  0.4934850000000  0.6637540000000 1.0
C      1  0.3218600000000  0.4014040000000  0.6305800000000 1.0
C      1  0.3212680000000  0.3523040000000  0.5457710000000 1.0
C      1  0.3092470000000  0.3511240000000  0.4467400000000 1.0
C      1  0.3222980000000  0.4150070000000  0.3711880000000 1.0
C      1  0.6539550000000  0.3727420000000  0.5853990000000 1.0
C      1  0.6691480000000  0.3422010000000  0.4942240000000 1.0
C      1  0.6691990000000  0.3744520000000  0.4036240000000 1.0
C      1  0.6540670000000  0.4559420000000  0.3525700000000 1.0
C      1  0.6656320000000  0.5529220000000  0.3522650000000 1.0
C      1  0.6539140000000  0.6272430000000  0.4145980000000 1.0
C      1  0.6691110000000  0.6578120000000  0.5058040000000 1.0
C      1  0.6691800000000  0.6255640000000  0.5963790000000 1.0
C      1  0.6540940000000  0.5440940000000  0.6474460000000 1.0
C      1  0.6656590000000  0.4470790000000  0.6477100000000 1.0
C      1  0.6137870000000  0.4190300000000  0.7257570000000 1.0
C      1  0.5940810000000  0.3079550000000  0.6274490000000 1.0
C      1  0.6182060000000  0.2562270000000  0.4873300000000 1.0
C      1  0.6183850000000  0.3036060000000  0.3542510000000 1.0
C      1  0.5943570000000  0.4326070000000  0.2787720000000 1.0
C      1  0.6137780000000  0.5809740000000  0.2742430000000 1.0
C      1  0.5940320000000  0.6920320000000  0.3725530000000 1.0
C      1  0.6181680000000  0.7437680000000  0.5126680000000 1.0
C      1  0.6184210000000  0.6964130000000  0.6457720000000 1.0
C      1  0.5944060000000  0.5673880000000  0.7212800000000 1.0
C      1  0.3938670000000  0.2916400000000  0.5774950000000 1.0
C      1  0.3741550000000  0.2856650000000  0.4226850000000 1.0
C      1  0.3944180000000  0.3883680000000  0.3074780000000 1.0
C      1  0.3906680000000  0.4815300000000  0.2694080000000 1.0
C      1  0.3906520000000  0.6603480000000  0.3339710000000 1.0
C      1  0.3938220000000  0.7083940000000  0.4225000000000 1.0
C      1  0.3741750000000  0.7142770000000  0.5773440000000 1.0
C      1  0.3945300000000  0.6116040000000  0.6924860000000 1.0
C      1  0.3907060000000  0.5184690000000  0.7305790000000 1.0
C      1  0.3906820000000  0.3396500000000  0.6660410000000 1.0
END
