TITL C-1525613-7943-6392 0.0959931759354911 3375 -8005.09205397335 0 0 60 (C2) n - 1
REM
REM in /home/nfs/bkarasulu/CARBON/AIRSS/Generating-Clusters/ReaxFF-fromJPCA2015/Units_Real/Try2-Higher-symm/Only-C60
REM
REM
REM
REM
REM
REM ./C.cell (863b2abdce7293c0672fb3ba77bf323a)
REM AIRSS Version 0.9.1 bugfix July 2018 build 013d7b7c2542+ Fri, 06 Jul 2018 19:26:36 +0100
REM compiler GCC version 9.2.1 20190827 (Red Hat 9.2.1-1)
REM options -cpp -mtune=generic -march=x86-64 -g -O0 -fpre-include=/usr/include/finclude/math-vector-fortran.h
REM seed 1506992363 580324826 -1920509720 1584135525 -545641465 1388130640 -861105382 -1430158022 -1639831252 882723321 -786294057 2131653827 -970282381 1049185937 826973050 678207280 -1414463927 2059864368 1601029049 294726780 101598870 1088779224 133989419 1453475735 -296711693 -1918084857 -677458929 1410994008 -934600866 -2013954168 -295685547 -2124669214 -378504803
REM
CELL 1.54180   15.00000   15.00000   15.00000   90.00000   90.00000   90.00000
LATT -1
SFAC C  
C      1  0.3544910000000  0.6894670000000  0.4472640000000 1.0
C      1  0.3556250000000  0.5139790000000  0.3066940000000 1.0
C      1  0.3456450000000  0.3160930000000  0.4334380000000 1.0
C      1  0.3516830000000  0.3788080000000  0.6583490000000 1.0
C      1  0.3455370000000  0.6112300000000  0.6663620000000 1.0
C      1  0.6454710000000  0.6893850000000  0.5528050000000 1.0
C      1  0.6443080000000  0.5138930000000  0.6933400000000 1.0
C      1  0.6543320000000  0.3160740000000  0.5666360000000 1.0
C      1  0.6482780000000  0.3785210000000  0.3416520000000 1.0
C      1  0.6544630000000  0.6112950000000  0.3335760000000 1.0
C      1  0.5188350000000  0.4538010000000  0.2507720000000 1.0
C      1  0.5181800000000  0.2536500000000  0.4656390000000 1.0
C      1  0.5193900000000  0.3870950000000  0.7346790000000 1.0
C      1  0.5225430000000  0.6686130000000  0.6583380000000 1.0
C      1  0.5276880000000  0.7063240000000  0.3882070000000 1.0
C      1  0.4810280000000  0.4537730000000  0.7493600000000 1.0
C      1  0.4818320000000  0.2537440000000  0.5344070000000 1.0
C      1  0.4805680000000  0.3870220000000  0.2652480000000 1.0
C      1  0.4773960000000  0.6685500000000  0.3417790000000 1.0
C      1  0.4722440000000  0.7063280000000  0.6118540000000 1.0
C      1  0.3269430000000  0.6008540000000  0.4179540000000 1.0
C      1  0.3417160000000  0.4600260000000  0.3846240000000 1.0
C      1  0.3278260000000  0.3785040000000  0.5059620000000 1.0
C      1  0.3426630000000  0.4665750000000  0.6182850000000 1.0
C      1  0.3248710000000  0.6088790000000  0.5721950000000 1.0
C      1  0.6730470000000  0.6008100000000  0.5821550000000 1.0
C      1  0.6582920000000  0.4600320000000  0.6152970000000 1.0
C      1  0.6721650000000  0.3783740000000  0.4941890000000 1.0
C      1  0.6580140000000  0.4664350000000  0.3814840000000 1.0
C      1  0.6752720000000  0.6089540000000  0.4277170000000 1.0
C      1  0.4175390000000  0.4214400000000  0.5048160000000 1.0
C      1  0.4347000000000  0.4778750000000  0.5796000000000 1.0
C      1  0.4077850000000  0.5628080000000  0.5427920000000 1.0
C      1  0.4081070000000  0.5576260000000  0.4529040000000 1.0
C      1  0.4361810000000  0.4695560000000  0.4246880000000 1.0
C      1  0.5823960000000  0.4213670000000  0.4953000000000 1.0
C      1  0.5651080000000  0.4779520000000  0.4204450000000 1.0
C      1  0.5923140000000  0.5629870000000  0.4572040000000 1.0
C      1  0.5919010000000  0.5576660000000  0.5471240000000 1.0
C      1  0.5638890000000  0.4696590000000  0.5753660000000 1.0
C      1  0.3461560000000  0.3662040000000  0.3513350000000 1.0
C      1  0.3451300000000  0.3173900000000  0.5824690000000 1.0
C      1  0.3451420000000  0.5219790000000  0.6973020000000 1.0
C      1  0.3555680000000  0.7006910000000  0.5443560000000 1.0
C      1  0.3550960000000  0.6082710000000  0.3222630000000 1.0
C      1  0.6538420000000  0.3663050000000  0.6486860000000 1.0
C      1  0.6548830000000  0.3173820000000  0.4174380000000 1.0
C      1  0.6548840000000  0.5221610000000  0.3024620000000 1.0
C      1  0.6444240000000  0.7006210000000  0.4556600000000 1.0
C      1  0.6447950000000  0.6082070000000  0.6777930000000 1.0
C      1  0.6036710000000  0.6989490000000  0.6401120000000 1.0
C      1  0.6034840000000  0.7067270000000  0.3674980000000 1.0
C      1  0.6083460000000  0.4298840000000  0.2601480000000 1.0
C      1  0.6095530000000  0.2569750000000  0.4859650000000 1.0
C      1  0.6089450000000  0.4098730000000  0.7300690000000 1.0
C      1  0.3962510000000  0.6989920000000  0.3599180000000 1.0
C      1  0.3964510000000  0.7067260000000  0.6325340000000 1.0
C      1  0.3917110000000  0.4298850000000  0.7394110000000 1.0
C      1  0.3903840000000  0.2569870000000  0.5141360000000 1.0
C      1  0.3910170000000  0.4097670000000  0.2699470000000 1.0
END
