TITL C-1525613-7943-3040 -0.146991319830491 3375 -8881.67798011499 0 0 60 (S10) n - 1
REM
REM in /home/nfs/bkarasulu/CARBON/AIRSS/Generating-Clusters/ReaxFF-fromJPCA2015/Units_Real/Try2-Higher-symm/Only-C60
REM
REM
REM
REM
REM
REM ./C.cell (863b2abdce7293c0672fb3ba77bf323a)
REM AIRSS Version 0.9.1 bugfix July 2018 build 013d7b7c2542+ Fri, 06 Jul 2018 19:26:36 +0100
REM compiler GCC version 9.2.1 20190827 (Red Hat 9.2.1-1)
REM options -cpp -mtune=generic -march=x86-64 -g -O0 -fpre-include=/usr/include/finclude/math-vector-fortran.h
REM seed -1712784042 1774668601 1871531270 -1313343136 1085083799 -987420549 1209641022 -1707382224 1288828781 1082968825 1774639442 -1951754298 1205522398 -580311399 1342049037 122818113 1752985001 338201001 -1737196299 924592878 -448254575 -873652153 -849526106 1909417803 865268042 2054299064 -390090820 -1932607874 1927891636 953002871 375150471 1206622497 580273108
REM
CELL 1.54180   15.00000   15.00000   15.00000   90.00000   90.00000   90.00000
LATT -1
SFAC C  
C      1  0.6746440000000  0.5272530000000  0.6531370000000 1.0
C      1  0.3247790000000  0.4322440000000  0.6409090000000 1.0
C      1  0.6747360000000  0.3627770000000  0.5734580000000 1.0
C      1  0.3253860000000  0.3459880000000  0.4786740000000 1.0
C      1  0.6746670000000  0.3880130000000  0.3921780000000 1.0
C      1  0.3253560000000  0.4727470000000  0.3468630000000 1.0
C      1  0.6752210000000  0.5677560000000  0.3590910000000 1.0
C      1  0.3252640000000  0.6372230000000  0.4265420000000 1.0
C      1  0.6746140000000  0.6540120000000  0.5213260000000 1.0
C      1  0.3253330000000  0.6119870000000  0.6078220000000 1.0
C      1  0.3894630000000  0.6998390000000  0.4276640000000 1.0
C      1  0.6106230000000  0.7043690000000  0.5589930000000 1.0
C      1  0.3893690000000  0.6306460000000  0.6678130000000 1.0
C      1  0.6105430000000  0.5070390000000  0.7125540000000 1.0
C      1  0.3891070000000  0.3806310000000  0.6763470000000 1.0
C      1  0.6105370000000  0.3001610000000  0.5723360000000 1.0
C      1  0.3893770000000  0.2956310000000  0.4410070000000 1.0
C      1  0.6106310000000  0.3693540000000  0.3321870000000 1.0
C      1  0.3894570000000  0.4929610000000  0.2874460000000 1.0
C      1  0.6108930000000  0.6193690000000  0.3236530000000 1.0
C      1  0.4542770000000  0.3558130000000  0.3779360000000 1.0
C      1  0.5458480000000  0.4552490000000  0.3166810000000 1.0
C      1  0.4544140000000  0.5712240000000  0.3256940000000 1.0
C      1  0.5458790000000  0.6602860000000  0.4007480000000 1.0
C      1  0.4543530000000  0.6876960000000  0.5140020000000 1.0
C      1  0.5457230000000  0.6441870000000  0.6220640000000 1.0
C      1  0.4541520000000  0.5447510000000  0.6833190000000 1.0
C      1  0.5455860000000  0.4287760000000  0.6743060000000 1.0
C      1  0.4541210000000  0.3397140000000  0.5992520000000 1.0
C      1  0.5456470000000  0.3123040000000  0.4859980000000 1.0
C      1  0.2652930000000  0.4672950000000  0.5804950000000 1.0
C      1  0.7345280000000  0.4264690000000  0.5457280000000 1.0
C      1  0.2656180000000  0.4137740000000  0.4939160000000 1.0
C      1  0.7344910000000  0.4340350000000  0.4441760000000 1.0
C      1  0.2654670000000  0.4792280000000  0.4159710000000 1.0
C      1  0.7347070000000  0.5327050000000  0.4195050000000 1.0
C      1  0.2654720000000  0.5735310000000  0.4542720000000 1.0
C      1  0.7343820000000  0.5862260000000  0.5060840000000 1.0
C      1  0.2655090000000  0.5659650000000  0.5558240000000 1.0
C      1  0.7345330000000  0.5207720000000  0.5840290000000 1.0
C      1  0.5517280000000  0.5509270000000  0.2934560000000 1.0
C      1  0.4486670000000  0.6624010000000  0.3629070000000 1.0
C      1  0.5514480000000  0.7120970000000  0.4846000000000 1.0
C      1  0.4485670000000  0.6807830000000  0.6123580000000 1.0
C      1  0.5513740000000  0.5802700000000  0.6970490000000 1.0
C      1  0.4482720000000  0.4490730000000  0.7065440000000 1.0
C      1  0.5513330000000  0.3375990000000  0.6370930000000 1.0
C      1  0.4485520000000  0.2879030000000  0.5154000000000 1.0
C      1  0.5514330000000  0.3192170000000  0.3876420000000 1.0
C      1  0.4486260000000  0.4197300000000  0.3029510000000 1.0
C      1  0.5676570000000  0.5680020000000  0.4577940000000 1.0
C      1  0.4327590000000  0.5793190000000  0.5060170000000 1.0
C      1  0.5676160000000  0.5613780000000  0.5514670000000 1.0
C      1  0.4320080000000  0.5189190000000  0.5778370000000 1.0
C      1  0.5674590000000  0.4701590000000  0.5739040000000 1.0
C      1  0.4323430000000  0.4319980000000  0.5422060000000 1.0
C      1  0.5672410000000  0.4206810000000  0.4939830000000 1.0
C      1  0.4323840000000  0.4386220000000  0.4485330000000 1.0
C      1  0.5679920000000  0.4810810000000  0.4221630000000 1.0
C      1  0.4325410000000  0.5298410000000  0.4260960000000 1.0
END
