TITL C-1525613-7943-6307 0.0159860581918187 3375 -8273.12573166277 0 0 60 (C1) n - 1
REM
REM in /home/nfs/bkarasulu/CARBON/AIRSS/Generating-Clusters/ReaxFF-fromJPCA2015/Units_Real/Try2-Higher-symm/Only-C60
REM
REM
REM
REM
REM
REM ./C.cell (863b2abdce7293c0672fb3ba77bf323a)
REM AIRSS Version 0.9.1 bugfix July 2018 build 013d7b7c2542+ Fri, 06 Jul 2018 19:26:36 +0100
REM compiler GCC version 9.2.1 20190827 (Red Hat 9.2.1-1)
REM options -cpp -mtune=generic -march=x86-64 -g -O0 -fpre-include=/usr/include/finclude/math-vector-fortran.h
REM seed 889655576 55034279 -30071303 -1168462719 -1634744476 1235072888 324849533 -439837509 1759134164 -583361990 1208461092 -1096950780 -878162674 -187806047 1662476639 1203078820 -1701868368 -1790392169 208220474 1919907351 -682521276 2140729765 498668346 -143709554 -133529364 -102368270 -378059304 1006083218 -1051168687 -1330917199 366084434 141144600 1973077346
REM
CELL 1.54180   15.00000   15.00000   15.00000   90.00000   90.00000   90.00000
LATT -1
SFAC C  
C      1  0.3445500000000  0.7132630000000  0.5138170000000 1.0
C      1  0.3700390000000  0.7291250000000  0.4215730000000 1.0
C      1  0.4414470000000  0.7194200000000  0.3578610000000 1.0
C      1  0.5373750000000  0.7153290000000  0.3476990000000 1.0
C      1  0.6194820000000  0.7208600000000  0.3977570000000 1.0
C      1  0.6553870000000  0.7157310000000  0.4869320000000 1.0
C      1  0.6296630000000  0.7297160000000  0.5793130000000 1.0
C      1  0.5583730000000  0.7207300000000  0.6432130000000 1.0
C      1  0.4623410000000  0.7136750000000  0.6526450000000 1.0
C      1  0.3802510000000  0.7226380000000  0.6029290000000 1.0
C      1  0.2890590000000  0.5179320000000  0.5126660000000 1.0
C      1  0.2859310000000  0.5641470000000  0.3704750000000 1.0
C      1  0.4022080000000  0.5407650000000  0.2861200000000 1.0
C      1  0.5437210000000  0.5242310000000  0.2801110000000 1.0
C      1  0.6822000000000  0.5388900000000  0.3491840000000 1.0
C      1  0.7145430000000  0.5206570000000  0.4878440000000 1.0
C      1  0.7134420000000  0.5630730000000  0.6291400000000 1.0
C      1  0.5982510000000  0.5409270000000  0.7141300000000 1.0
C      1  0.4574870000000  0.5245760000000  0.7213870000000 1.0
C      1  0.3152400000000  0.5407960000000  0.6513770000000 1.0
C      1  0.6711550000000  0.4946390000000  0.6768480000000 1.0
C      1  0.5370120000000  0.4682770000000  0.7188650000000 1.0
C      1  0.3738760000000  0.4924100000000  0.7017540000000 1.0
C      1  0.3002550000000  0.4652790000000  0.5934280000000 1.0
C      1  0.2738100000000  0.4891060000000  0.4253380000000 1.0
C      1  0.3289090000000  0.4949620000000  0.3240580000000 1.0
C      1  0.4640920000000  0.4682890000000  0.2803700000000 1.0
C      1  0.6228230000000  0.4822910000000  0.3055650000000 1.0
C      1  0.7066840000000  0.4654590000000  0.4073280000000 1.0
C      1  0.7277730000000  0.4892980000000  0.5737860000000 1.0
C      1  0.6243740000000  0.3412330000000  0.5914380000000 1.0
C      1  0.5383790000000  0.3887140000000  0.6513520000000 1.0
C      1  0.4461070000000  0.3460080000000  0.6444120000000 1.0
C      1  0.3559640000000  0.3730910000000  0.5914190000000 1.0
C      1  0.3457330000000  0.3295500000000  0.5009370000000 1.0
C      1  0.3766970000000  0.3395280000000  0.4114880000000 1.0
C      1  0.4624590000000  0.3894810000000  0.3479660000000 1.0
C      1  0.5560070000000  0.3497650000000  0.3529750000000 1.0
C      1  0.6451180000000  0.3809730000000  0.4011700000000 1.0
C      1  0.6517940000000  0.3313110000000  0.4969780000000 1.0
C      1  0.7213470000000  0.2977440000000  0.3750500000000 1.0
C      1  0.7136110000000  0.2787140000000  0.4632150000000 1.0
C      1  0.6476160000000  0.2768720000000  0.6608470000000 1.0
C      1  0.5636790000000  0.3107160000000  0.7125590000000 1.0
C      1  0.4685690000000  0.2713360000000  0.7042420000000 1.0
C      1  0.2831380000000  0.3012730000000  0.6248190000000 1.0
C      1  0.2669640000000  0.2696750000000  0.5334870000000 1.0
C      1  0.3527670000000  0.2769230000000  0.3399440000000 1.0
C      1  0.4363760000000  0.3106960000000  0.2888280000000 1.0
C      1  0.5313640000000  0.2719080000000  0.2974610000000 1.0
C      1  0.4631830000000  0.6127950000000  0.6552130000000 1.0
C      1  0.3752530000000  0.6200460000000  0.6051120000000 1.0
C      1  0.3464510000000  0.6106240000000  0.5106280000000 1.0
C      1  0.3607940000000  0.6278810000000  0.4125890000000 1.0
C      1  0.4395430000000  0.6175780000000  0.3518690000000 1.0
C      1  0.5379350000000  0.6127530000000  0.3434080000000 1.0
C      1  0.6250480000000  0.6181050000000  0.3948350000000 1.0
C      1  0.6563980000000  0.6121740000000  0.4881910000000 1.0
C      1  0.6390500000000  0.6276800000000  0.5859630000000 1.0
C      1  0.5609020000000  0.6183620000000  0.6480940000000 1.0
END
