TITL C-1525613-7943-4407 -0.199955839689105 3375 -8972.17665005296 0 0 60 (C5) n - 1
REM
REM in /home/nfs/bkarasulu/CARBON/AIRSS/Generating-Clusters/ReaxFF-fromJPCA2015/Units_Real/Try2-Higher-symm/Only-C60
REM
REM
REM
REM
REM
REM ./C.cell (863b2abdce7293c0672fb3ba77bf323a)
REM AIRSS Version 0.9.1 bugfix July 2018 build 013d7b7c2542+ Fri, 06 Jul 2018 19:26:36 +0100
REM compiler GCC version 9.2.1 20190827 (Red Hat 9.2.1-1)
REM options -cpp -mtune=generic -march=x86-64 -g -O0 -fpre-include=/usr/include/finclude/math-vector-fortran.h
REM seed 898239501 -1972548985 -974951017 1672652735 -147445473 -1745076358 -2059051019 201576580 -1790501841 1747045711 1197432286 715402077 -958696661 171879324 582366895 -1284643939 -2042567067 1611198193 -537886449 1985480786 1476705369 -1647002708 1937538478 -2020983539 -1417601012 -1837606558 -85209540 -715991090 1991584761 -972615036 1507955914 -1239346679 308408732
REM
CELL 1.54180   15.00000   15.00000   15.00000   90.00000   90.00000   90.00000
LATT -1
SFAC C  
C      1  0.2961580000000  0.5464990000000  0.3999120000000 1.0
C      1  0.3927960000000  0.3205020000000  0.3998920000000 1.0
C      1  0.6375840000000  0.3425890000000  0.3998640000000 1.0
C      1  0.6922660000000  0.5821910000000  0.3998960000000 1.0
C      1  0.4812270000000  0.7082200000000  0.3998880000000 1.0
C      1  0.2961580000000  0.5464990000000  0.6000880000000 1.0
C      1  0.3927960000000  0.3205020000000  0.6001080000000 1.0
C      1  0.6375840000000  0.3425890000000  0.6001360000000 1.0
C      1  0.6922660000000  0.5821910000000  0.6001040000000 1.0
C      1  0.4812270000000  0.7082200000000  0.6001120000000 1.0
C      1  0.7229390000000  0.5023120000000  0.5479400000000 1.0
C      1  0.5666910000000  0.7127480000000  0.5479730000000 1.0
C      1  0.3182480000000  0.6291380000000  0.5480120000000 1.0
C      1  0.3210160000000  0.3670380000000  0.5480170000000 1.0
C      1  0.5711040000000  0.2886880000000  0.5479610000000 1.0
C      1  0.7229390000000  0.5023120000000  0.4520600000000 1.0
C      1  0.5666910000000  0.7127480000000  0.4520270000000 1.0
C      1  0.3182480000000  0.6291380000000  0.4519880000000 1.0
C      1  0.3210160000000  0.3670380000000  0.4519830000000 1.0
C      1  0.5711040000000  0.2886880000000  0.4520390000000 1.0
C      1  0.4685150000000  0.2800370000000  0.5479640000000 1.0
C      1  0.6994800000000  0.4020980000000  0.5479410000000 1.0
C      1  0.6547620000000  0.6594580000000  0.5479450000000 1.0
C      1  0.3962030000000  0.6964880000000  0.5479850000000 1.0
C      1  0.2810530000000  0.4620140000000  0.5480140000000 1.0
C      1  0.4685150000000  0.2800370000000  0.4520360000000 1.0
C      1  0.6994800000000  0.4020980000000  0.4520590000000 1.0
C      1  0.6547620000000  0.6594580000000  0.4520550000000 1.0
C      1  0.3962030000000  0.6964880000000  0.4520150000000 1.0
C      1  0.2810530000000  0.4620140000000  0.4519860000000 1.0
C      1  0.5763160000000  0.6207190000000  0.3292170000000 1.0
C      1  0.4087830000000  0.6099270000000  0.3292440000000 1.0
C      1  0.3673010000000  0.4471840000000  0.3292480000000 1.0
C      1  0.5092140000000  0.3574670000000  0.3292260000000 1.0
C      1  0.6384060000000  0.4646790000000  0.3292040000000 1.0
C      1  0.5763160000000  0.6207190000000  0.6707830000000 1.0
C      1  0.4087830000000  0.6099270000000  0.6707560000000 1.0
C      1  0.3673010000000  0.4471840000000  0.6707520000000 1.0
C      1  0.5092140000000  0.3574670000000  0.6707740000000 1.0
C      1  0.6384060000000  0.4646790000000  0.6707960000000 1.0
C      1  0.4890890000000  0.6640030000000  0.3133780000000 1.0
C      1  0.3406430000000  0.5402930000000  0.3133980000000 1.0
C      1  0.4124190000000  0.3609200000000  0.3134070000000 1.0
C      1  0.6052130000000  0.3737240000000  0.3134000000000 1.0
C      1  0.6525880000000  0.5610730000000  0.3133690000000 1.0
C      1  0.4890890000000  0.6640030000000  0.6866220000000 1.0
C      1  0.3406430000000  0.5402930000000  0.6866020000000 1.0
C      1  0.4124190000000  0.3609200000000  0.6865930000000 1.0
C      1  0.6052130000000  0.3737240000000  0.6866000000000 1.0
C      1  0.6525880000000  0.5610730000000  0.6866310000000 1.0
C      1  0.5779080000000  0.4801920000000  0.4063620000000 1.0
C      1  0.5429190000000  0.5679910000000  0.4063510000000 1.0
C      1  0.4486050000000  0.5618160000000  0.4063870000000 1.0
C      1  0.4253170000000  0.4702180000000  0.4063670000000 1.0
C      1  0.5052350000000  0.4197720000000  0.4063570000000 1.0
C      1  0.5779080000000  0.4801920000000  0.5936380000000 1.0
C      1  0.5429190000000  0.5679910000000  0.5936490000000 1.0
C      1  0.4486050000000  0.5618160000000  0.5936130000000 1.0
C      1  0.4253170000000  0.4702180000000  0.5936330000000 1.0
C      1  0.5052350000000  0.4197720000000  0.5936430000000 1.0
END
