TITL C-1525613-7943-2507 0.0825942364522733 3375 -8949.00115954924 0 0 60 (C10) n - 1
REM
REM in /home/nfs/bkarasulu/CARBON/AIRSS/Generating-Clusters/ReaxFF-fromJPCA2015/Units_Real/Try2-Higher-symm/Only-C60
REM
REM
REM
REM
REM
REM ./C.cell (863b2abdce7293c0672fb3ba77bf323a)
REM AIRSS Version 0.9.1 bugfix July 2018 build 013d7b7c2542+ Fri, 06 Jul 2018 19:26:36 +0100
REM compiler GCC version 9.2.1 20190827 (Red Hat 9.2.1-1)
REM options -cpp -mtune=generic -march=x86-64 -g -O0 -fpre-include=/usr/include/finclude/math-vector-fortran.h
REM seed -2124597507 1002199730 -1972079399 751231151 -1284617737 1017997102 -1074952910 -1638283112 572309389 -1067456623 1773762520 584367322 -1212158740 -522780282 -421390927 1967577451 843288640 -761468194 2022101441 457483814 1101129116 -1594176009 -1957342637 -196507203 -986745136 -2138851428 1555266090 1794710999 598417505 -2069870935 2124143527 576666360 -1570353502
REM
CELL 1.54180   15.00000   15.00000   15.00000   90.00000   90.00000   90.00000
LATT -1
SFAC C  
C      1  0.3226630000000  0.6623300000000  0.5447930000000 1.0
C      1  0.3225190000000  0.6050120000000  0.6317310000000 1.0
C      1  0.3225900000000  0.5075710000000  0.6682090000000 1.0
C      1  0.3226360000000  0.4070440000000  0.6406010000000 1.0
C      1  0.3223660000000  0.3422380000000  0.5592600000000 1.0
C      1  0.3226630000000  0.3376700000000  0.4552070000000 1.0
C      1  0.3225190000000  0.3949880000000  0.3682690000000 1.0
C      1  0.3225900000000  0.4924290000000  0.3317910000000 1.0
C      1  0.3226360000000  0.5929560000000  0.3593990000000 1.0
C      1  0.3223660000000  0.6577620000000  0.4407400000000 1.0
C      1  0.6231520000000  0.4209480000000  0.7369920000000 1.0
C      1  0.6231740000000  0.2967420000000  0.6452610000000 1.0
C      1  0.6231260000000  0.2501850000000  0.4980400000000 1.0
C      1  0.6231930000000  0.2990540000000  0.3515710000000 1.0
C      1  0.6231520000000  0.4246820000000  0.2617950000000 1.0
C      1  0.6231520000000  0.5790520000000  0.2630080000000 1.0
C      1  0.6231740000000  0.7032580000000  0.3547390000000 1.0
C      1  0.6231260000000  0.7498150000000  0.5019600000000 1.0
C      1  0.6231930000000  0.7009460000000  0.6484290000000 1.0
C      1  0.6231520000000  0.5753180000000  0.7382050000000 1.0
C      1  0.3906320000000  0.4967440000000  0.7291450000000 1.0
C      1  0.3906090000000  0.3624770000000  0.6837290000000 1.0
C      1  0.3905130000000  0.2810110000000  0.5677940000000 1.0
C      1  0.3906480000000  0.2830260000000  0.4259500000000 1.0
C      1  0.3904510000000  0.3677630000000  0.3124260000000 1.0
C      1  0.3906320000000  0.5032560000000  0.2708550000000 1.0
C      1  0.3906090000000  0.6375230000000  0.3162710000000 1.0
C      1  0.3905130000000  0.7189890000000  0.4322060000000 1.0
C      1  0.3906480000000  0.7169740000000  0.5740500000000 1.0
C      1  0.3904510000000  0.6322370000000  0.6875740000000 1.0
C      1  0.5277980000000  0.2311510000000  0.4976480000000 1.0
C      1  0.5278850000000  0.2838610000000  0.3400170000000 1.0
C      1  0.5278440000000  0.4191070000000  0.2435670000000 1.0
C      1  0.5278490000000  0.5853580000000  0.2450290000000 1.0
C      1  0.5278720000000  0.7189570000000  0.3438520000000 1.0
C      1  0.5277980000000  0.7688490000000  0.5023520000000 1.0
C      1  0.5278850000000  0.7161390000000  0.6599830000000 1.0
C      1  0.5278440000000  0.5808930000000  0.7564330000000 1.0
C      1  0.5278490000000  0.4146420000000  0.7549710000000 1.0
C      1  0.5278720000000  0.2810430000000  0.6561480000000 1.0
C      1  0.4788390000000  0.2449390000000  0.5804550000000 1.0
C      1  0.4789020000000  0.2462680000000  0.4150180000000 1.0
C      1  0.4788290000000  0.3445860000000  0.2821310000000 1.0
C      1  0.4789250000000  0.5023240000000  0.2325700000000 1.0
C      1  0.4788880000000  0.6592970000000  0.2848270000000 1.0
C      1  0.4788390000000  0.7550610000000  0.4195450000000 1.0
C      1  0.4789020000000  0.7537320000000  0.5849820000000 1.0
C      1  0.4788290000000  0.6554140000000  0.7178690000000 1.0
C      1  0.4789250000000  0.4976760000000  0.7674300000000 1.0
C      1  0.4788880000000  0.3407030000000  0.7151730000000 1.0
C      1  0.6569740000000  0.3744640000000  0.3243870000000 1.0
C      1  0.6570020000000  0.5016640000000  0.2841040000000 1.0
C      1  0.6569660000000  0.6282390000000  0.3263350000000 1.0
C      1  0.6569890000000  0.7058590000000  0.4348740000000 1.0
C      1  0.6570140000000  0.7048230000000  0.5682890000000 1.0
C      1  0.6569740000000  0.6255360000000  0.6756130000000 1.0
C      1  0.6570020000000  0.4983360000000  0.7158960000000 1.0
C      1  0.6569660000000  0.3717610000000  0.6736650000000 1.0
C      1  0.6569890000000  0.2941410000000  0.5651260000000 1.0
C      1  0.6570140000000  0.2951770000000  0.4317110000000 1.0
END
