TITL C-1525613-7943-2965 0.112787630140242 3375 -8487.25587976685 0 0 60 (D5) n - 1
REM
REM in /home/nfs/bkarasulu/CARBON/AIRSS/Generating-Clusters/ReaxFF-fromJPCA2015/Units_Real/Try2-Higher-symm/Only-C60
REM
REM
REM
REM
REM
REM ./C.cell (863b2abdce7293c0672fb3ba77bf323a)
REM AIRSS Version 0.9.1 bugfix July 2018 build 013d7b7c2542+ Fri, 06 Jul 2018 19:26:36 +0100
REM compiler GCC version 9.2.1 20190827 (Red Hat 9.2.1-1)
REM options -cpp -mtune=generic -march=x86-64 -g -O0 -fpre-include=/usr/include/finclude/math-vector-fortran.h
REM seed 638676238 -156517190 1926874622 -1213444206 -1893163047 2001964398 539911860 1697577022 -942720540 -1020563954 566804773 -57260689 2012271533 1115217900 -1085532231 1621008374 1806639051 645794621 1628733657 1675803308 -470502667 -251281553 803465112 1428233625 -895203944 569997607 1673873636 1158600160 1163676439 564128050 -1257203752 -378258041 -133062263
REM
CELL 1.54180   15.00000   15.00000   15.00000   90.00000   90.00000   90.00000
LATT -1
SFAC C  
C      1  0.4267470000000  0.5398080000000  0.7427380000000 1.0
C      1  0.4395180000000  0.4427210000000  0.7427360000000 1.0
C      1  0.5357350000000  0.4247870000000  0.7426980000000 1.0
C      1  0.5825910000000  0.5106760000000  0.7427480000000 1.0
C      1  0.5152650000000  0.5818480000000  0.7429020000000 1.0
C      1  0.5732530000000  0.5398080000000  0.2572620000000 1.0
C      1  0.5604820000000  0.4427210000000  0.2572640000000 1.0
C      1  0.4642650000000  0.4247870000000  0.2573020000000 1.0
C      1  0.4174090000000  0.5106760000000  0.2572520000000 1.0
C      1  0.4847350000000  0.5818480000000  0.2570980000000 1.0
C      1  0.5523570000000  0.7207910000000  0.4397740000000 1.0
C      1  0.3063860000000  0.6178540000000  0.4395900000000 1.0
C      1  0.3281380000000  0.3523520000000  0.4395280000000 1.0
C      1  0.5872700000000  0.2909270000000  0.4393770000000 1.0
C      1  0.7257590000000  0.5185240000000  0.4393730000000 1.0
C      1  0.4476430000000  0.7207910000000  0.5602260000000 1.0
C      1  0.6936140000000  0.6178540000000  0.5604100000000 1.0
C      1  0.6718620000000  0.3523520000000  0.5604720000000 1.0
C      1  0.4127300000000  0.2909270000000  0.5606230000000 1.0
C      1  0.2742410000000  0.5185240000000  0.5606270000000 1.0
C      1  0.5720020000000  0.6728760000000  0.5208530000000 1.0
C      1  0.3581560000000  0.6218220000000  0.5203760000000 1.0
C      1  0.3403380000000  0.4026770000000  0.5204940000000 1.0
C      1  0.5433080000000  0.3179430000000  0.5204260000000 1.0
C      1  0.6864610000000  0.4849280000000  0.5204860000000 1.0
C      1  0.4279980000000  0.6728760000000  0.4791470000000 1.0
C      1  0.6418440000000  0.6218220000000  0.4796240000000 1.0
C      1  0.6596620000000  0.4026770000000  0.4795060000000 1.0
C      1  0.4566920000000  0.3179430000000  0.4795740000000 1.0
C      1  0.3135390000000  0.4849280000000  0.4795140000000 1.0
C      1  0.6017200000000  0.4026070000000  0.3357060000000 1.0
C      1  0.6240540000000  0.5666890000000  0.3356160000000 1.0
C      1  0.4749190000000  0.6385410000000  0.3355740000000 1.0
C      1  0.3604210000000  0.5189110000000  0.3357300000000 1.0
C      1  0.4387900000000  0.3731490000000  0.3357090000000 1.0
C      1  0.3982800000000  0.4026070000000  0.6642940000000 1.0
C      1  0.3759460000000  0.5666890000000  0.6643840000000 1.0
C      1  0.5250810000000  0.6385410000000  0.6644260000000 1.0
C      1  0.6395790000000  0.5189110000000  0.6642700000000 1.0
C      1  0.5612100000000  0.3731490000000  0.6642910000000 1.0
C      1  0.4073360000000  0.5020840000000  0.4200740000000 1.0
C      1  0.4692860000000  0.4125860000000  0.4201930000000 1.0
C      1  0.5735850000000  0.4438910000000  0.4201980000000 1.0
C      1  0.5760410000000  0.5526720000000  0.4202170000000 1.0
C      1  0.4733430000000  0.5885600000000  0.4199220000000 1.0
C      1  0.5926640000000  0.5020840000000  0.5799260000000 1.0
C      1  0.5307140000000  0.4125860000000  0.5798070000000 1.0
C      1  0.4264150000000  0.4438910000000  0.5798020000000 1.0
C      1  0.4239590000000  0.5526720000000  0.5797830000000 1.0
C      1  0.5266570000000  0.5885600000000  0.5800780000000 1.0
C      1  0.2741540000000  0.5516910000000  0.6522450000000 1.0
C      1  0.3811990000000  0.3012100000000  0.6522650000000 1.0
C      1  0.6523940000000  0.3255720000000  0.6521220000000 1.0
C      1  0.7130890000000  0.5908980000000  0.6522620000000 1.0
C      1  0.4789180000000  0.7304070000000  0.6520150000000 1.0
C      1  0.7258460000000  0.5516910000000  0.3477550000000 1.0
C      1  0.6188010000000  0.3012100000000  0.3477350000000 1.0
C      1  0.3476060000000  0.3255720000000  0.3478780000000 1.0
C      1  0.2869110000000  0.5908980000000  0.3477380000000 1.0
C      1  0.5210820000000  0.7304070000000  0.3479850000000 1.0
END
