TITL C-1525613-7943-4775 -0.000630426690590024 3375 -8885.57092731569 0 0 60 (C1) n - 1
REM
REM in /home/nfs/bkarasulu/CARBON/AIRSS/Generating-Clusters/ReaxFF-fromJPCA2015/Units_Real/Try2-Higher-symm/Only-C60
REM
REM
REM
REM
REM
REM ./C.cell (863b2abdce7293c0672fb3ba77bf323a)
REM AIRSS Version 0.9.1 bugfix July 2018 build 013d7b7c2542+ Fri, 06 Jul 2018 19:26:36 +0100
REM compiler GCC version 9.2.1 20190827 (Red Hat 9.2.1-1)
REM options -cpp -mtune=generic -march=x86-64 -g -O0 -fpre-include=/usr/include/finclude/math-vector-fortran.h
REM seed -2146178307 -1805260438 268952494 848050640 1557400928 -653600357 -1393403161 -1543412421 -203808228 1190500129 -1494152141 -1562304685 86563568 1058668905 -455280390 -633087843 1583953979 -575210644 1993578479 -604449081 1359981380 73797881 588284710 -1151428666 694095653 -911397161 -496973893 -49625223 1854825937 2068863309 -2127719288 1563205263 -497610462
REM
CELL 1.54180   15.00000   15.00000   15.00000   90.00000   90.00000   90.00000
LATT -1
SFAC C  
C      1  0.3592530000000  0.6018910000000  0.6062720000000 1.0
C      1  0.3450670000000  0.4043220000000  0.6120100000000 1.0
C      1  0.5551870000000  0.3274520000000  0.6093470000000 1.0
C      1  0.6772520000000  0.4991290000000  0.6179870000000 1.0
C      1  0.5760010000000  0.6672450000000  0.6110370000000 1.0
C      1  0.6425980000000  0.6029610000000  0.3849790000000 1.0
C      1  0.6544450000000  0.4084140000000  0.3920310000000 1.0
C      1  0.4447780000000  0.3330370000000  0.3931870000000 1.0
C      1  0.3209670000000  0.5022150000000  0.3899840000000 1.0
C      1  0.4360570000000  0.6729910000000  0.3929280000000 1.0
C      1  0.2947980000000  0.3699590000000  0.3860240000000 1.0
C      1  0.5710870000000  0.2755890000000  0.3949480000000 1.0
C      1  0.7353410000000  0.4685060000000  0.3918350000000 1.0
C      1  0.5832080000000  0.7250580000000  0.3853170000000 1.0
C      1  0.3015400000000  0.6572060000000  0.4009490000000 1.0
C      1  0.7051500000000  0.3675120000000  0.6160520000000 1.0
C      1  0.4288730000000  0.2703220000000  0.6051320000000 1.0
C      1  0.2646660000000  0.4652560000000  0.6125200000000 1.0
C      1  0.4288990000000  0.7222900000000  0.6001100000000 1.0
C      1  0.6772380000000  0.6634380000000  0.6122200000000 1.0
C      1  0.2131000000000  0.5705810000000  0.5451020000000 1.0
C      1  0.3121670000000  0.2535750000000  0.5388860000000 1.0
C      1  0.6926620000000  0.2589240000000  0.5471250000000 1.0
C      1  0.7724750000000  0.5983250000000  0.5423090000000 1.0
C      1  0.5101360000000  0.8126270000000  0.5409480000000 1.0
C      1  0.7781970000000  0.5773800000000  0.4589880000000 1.0
C      1  0.6884380000000  0.2558240000000  0.4596200000000 1.0
C      1  0.3084350000000  0.2593860000000  0.4513750000000 1.0
C      1  0.2074410000000  0.5923210000000  0.4608800000000 1.0
C      1  0.5085930000000  0.8121840000000  0.4534820000000 1.0
C      1  0.2652280000000  0.5805480000000  0.3870970000000 1.0
C      1  0.3520810000000  0.3064660000000  0.3817800000000 1.0
C      1  0.6590800000000  0.3011140000000  0.3828790000000 1.0
C      1  0.7282670000000  0.5601280000000  0.3824430000000 1.0
C      1  0.4956920000000  0.7553690000000  0.3798630000000 1.0
C      1  0.7235470000000  0.5840640000000  0.6197890000000 1.0
C      1  0.6489010000000  0.3030300000000  0.6184810000000 1.0
C      1  0.3410560000000  0.2966690000000  0.6171300000000 1.0
C      1  0.2714530000000  0.5583670000000  0.6169350000000 1.0
C      1  0.5134120000000  0.7565860000000  0.6154910000000 1.0
C      1  0.4399660000000  0.5473380000000  0.6159100000000 1.0
C      1  0.4352090000000  0.4524970000000  0.6157050000000 1.0
C      1  0.5231940000000  0.4195890000000  0.6186910000000 1.0
C      1  0.5810190000000  0.4974510000000  0.6213490000000 1.0
C      1  0.5312700000000  0.5754990000000  0.6168700000000 1.0
C      1  0.5619630000000  0.5508170000000  0.3808860000000 1.0
C      1  0.5643490000000  0.4572910000000  0.3851450000000 1.0
C      1  0.4754280000000  0.4259710000000  0.3848650000000 1.0
C      1  0.4180250000000  0.5035290000000  0.3828830000000 1.0
C      1  0.4707580000000  0.5816200000000  0.3820800000000 1.0
C      1  0.5031090000000  0.2661610000000  0.5523050000000 1.0
C      1  0.7187400000000  0.4338390000000  0.5641190000000 1.0
C      1  0.6371220000000  0.6901250000000  0.5351850000000 1.0
C      1  0.3644560000000  0.6823630000000  0.5482350000000 1.0
C      1  0.2806410000000  0.4210520000000  0.5346360000000 1.0
C      1  0.4970310000000  0.2694510000000  0.4475990000000 1.0
C      1  0.2806810000000  0.4332180000000  0.4411720000000 1.0
C      1  0.3643970000000  0.6874750000000  0.4469860000000 1.0
C      1  0.6427120000000  0.6812960000000  0.4397960000000 1.0
C      1  0.7171660000000  0.4251610000000  0.4701140000000 1.0
END
