TITL C-1525613-7943-3290 0.0819614950376632 3375 -8826.18959156598 0 0 60 (Cs) n - 1
REM
REM in /home/nfs/bkarasulu/CARBON/AIRSS/Generating-Clusters/ReaxFF-fromJPCA2015/Units_Real/Try2-Higher-symm/Only-C60
REM
REM
REM
REM
REM
REM ./C.cell (863b2abdce7293c0672fb3ba77bf323a)
REM AIRSS Version 0.9.1 bugfix July 2018 build 013d7b7c2542+ Fri, 06 Jul 2018 19:26:36 +0100
REM compiler GCC version 9.2.1 20190827 (Red Hat 9.2.1-1)
REM options -cpp -mtune=generic -march=x86-64 -g -O0 -fpre-include=/usr/include/finclude/math-vector-fortran.h
REM seed -1513289524 -1855969138 952503697 -226114864 312951930 1055391913 -369799915 644535533 -1157609350 -1457758830 1923664292 -1064575847 -1578328076 -1625933624 1403914679 -563355373 -1000455349 1414618441 1963334642 -1913254796 1373939753 -1969170689 -224469073 1632841441 820482421 -1786984161 249180703 -37097830 1982196537 -1727195696 883024144 -955280330 -1947409259
REM
CELL 1.54180   15.00000   15.00000   15.00000   90.00000   90.00000   90.00000
LATT -1
SFAC C  
C      1  0.2375410000000  0.5492710000000  0.5829780000000 1.0
C      1  0.5966490000000  0.5504550000000  0.7519870000000 1.0
C      1  0.7606800000000  0.5494780000000  0.5742230000000 1.0
C      1  0.6569830000000  0.5510100000000  0.2947940000000 1.0
C      1  0.2686380000000  0.5491050000000  0.3436150000000 1.0
C      1  0.2376850000000  0.4506550000000  0.5830390000000 1.0
C      1  0.5969410000000  0.4495890000000  0.7523790000000 1.0
C      1  0.7605820000000  0.4495050000000  0.5744800000000 1.0
C      1  0.6570260000000  0.4500850000000  0.2955450000000 1.0
C      1  0.2688590000000  0.4507390000000  0.3435700000000 1.0
C      1  0.3355730000000  0.4086620000000  0.2770280000000 1.0
C      1  0.2547990000000  0.3778520000000  0.5142000000000 1.0
C      1  0.5102130000000  0.4079000000000  0.7724990000000 1.0
C      1  0.7110180000000  0.3753030000000  0.6230750000000 1.0
C      1  0.6687450000000  0.3676730000000  0.3524020000000 1.0
C      1  0.3350970000000  0.5913690000000  0.2769960000000 1.0
C      1  0.2549430000000  0.6221470000000  0.5143540000000 1.0
C      1  0.5098030000000  0.5918750000000  0.7722060000000 1.0
C      1  0.7110510000000  0.6240060000000  0.6223720000000 1.0
C      1  0.6678130000000  0.6333410000000  0.3518220000000 1.0
C      1  0.5633790000000  0.5490510000000  0.2673130000000 1.0
C      1  0.2800400000000  0.6113900000000  0.4167560000000 1.0
C      1  0.3093910000000  0.5488860000000  0.6503250000000 1.0
C      1  0.6309760000000  0.6156730000000  0.6885580000000 1.0
C      1  0.7417100000000  0.5481190000000  0.4777220000000 1.0
C      1  0.5635670000000  0.4516120000000  0.2677160000000 1.0
C      1  0.2803370000000  0.3885030000000  0.4166790000000 1.0
C      1  0.3094640000000  0.4514670000000  0.6505550000000 1.0
C      1  0.6306750000000  0.3840700000000  0.6890030000000 1.0
C      1  0.7418680000000  0.4505820000000  0.4778870000000 1.0
C      1  0.7102490000000  0.3172530000000  0.5482380000000 1.0
C      1  0.6008990000000  0.3100540000000  0.3216080000000 1.0
C      1  0.4118030000000  0.3589610000000  0.3125200000000 1.0
C      1  0.3062120000000  0.3194540000000  0.5718690000000 1.0
C      1  0.4579500000000  0.3464150000000  0.7073390000000 1.0
C      1  0.7102900000000  0.6818280000000  0.5472670000000 1.0
C      1  0.5996980000000  0.6911910000000  0.3220120000000 1.0
C      1  0.4112910000000  0.6412310000000  0.3124100000000 1.0
C      1  0.3066350000000  0.6809600000000  0.5714250000000 1.0
C      1  0.4580250000000  0.6539120000000  0.7070460000000 1.0
C      1  0.3753210000000  0.3757290000000  0.6274590000000 1.0
C      1  0.5512370000000  0.3432420000000  0.6545020000000 1.0
C      1  0.6755870000000  0.3759260000000  0.4601660000000 1.0
C      1  0.5152320000000  0.3802600000000  0.3235190000000 1.0
C      1  0.3701520000000  0.3552620000000  0.4004710000000 1.0
C      1  0.3753680000000  0.6246170000000  0.6272220000000 1.0
C      1  0.5515020000000  0.6565650000000  0.6543330000000 1.0
C      1  0.6758640000000  0.6232890000000  0.4595140000000 1.0
C      1  0.5147010000000  0.6201310000000  0.3230930000000 1.0
C      1  0.3697830000000  0.6447370000000  0.4004500000000 1.0
C      1  0.4334700000000  0.3932030000000  0.4613400000000 1.0
C      1  0.4402030000000  0.3940100000000  0.5536240000000 1.0
C      1  0.5318230000000  0.3791020000000  0.5660630000000 1.0
C      1  0.5801100000000  0.3919260000000  0.4847460000000 1.0
C      1  0.5145720000000  0.4006240000000  0.4205320000000 1.0
C      1  0.4333400000000  0.6070350000000  0.4612620000000 1.0
C      1  0.4402870000000  0.6061120000000  0.5534790000000 1.0
C      1  0.5319510000000  0.6206020000000  0.5658990000000 1.0
C      1  0.5800910000000  0.6075800000000  0.4843780000000 1.0
C      1  0.5143090000000  0.5994170000000  0.4201350000000 1.0
END
