TITL C-1525613-7943-278 -0.0412543751650937 3375 -8448.68266041319 0 0 60 (C1) n - 1
REM
REM in /home/nfs/bkarasulu/CARBON/AIRSS/Generating-Clusters/ReaxFF-fromJPCA2015/Units_Real/Try2-Higher-symm/Only-C60
REM
REM
REM
REM
REM
REM ./C.cell (863b2abdce7293c0672fb3ba77bf323a)
REM AIRSS Version 0.9.1 bugfix July 2018 build 013d7b7c2542+ Fri, 06 Jul 2018 19:26:36 +0100
REM compiler GCC version 9.2.1 20190827 (Red Hat 9.2.1-1)
REM options -cpp -mtune=generic -march=x86-64 -g -O0 -fpre-include=/usr/include/finclude/math-vector-fortran.h
REM seed -561040087 1724897648 -1866772076 -1156761094 262079785 1936691306 2004689924 -2122164399 -1471049797 1535415033 -1598597108 -394069998 -1574288411 -224102211 1683579068 71069834 192893032 335436473 1199981521 -1113868236 2119439624 9946407 680022500 -693614461 1154954959 888259023 -612312499 -1322780989 616152046 -485708244 -384025683 -581441918 1690386312
REM
CELL 1.54180   15.00000   15.00000   15.00000   90.00000   90.00000   90.00000
LATT -1
SFAC C  
C      1  0.7329620000000  0.4648940000000  0.4239500000000 1.0
C      1  0.7330130000000  0.5614370000000  0.4430520000000 1.0
C      1  0.7331620000000  0.5731080000000  0.5407170000000 1.0
C      1  0.7332100000000  0.4837840000000  0.5820300000000 1.0
C      1  0.7332590000000  0.4169030000000  0.5098410000000 1.0
C      1  0.2670730000000  0.5351820000000  0.4241490000000 1.0
C      1  0.2670770000000  0.4386770000000  0.4430690000000 1.0
C      1  0.2671130000000  0.4268930000000  0.5406490000000 1.0
C      1  0.2671500000000  0.5161220000000  0.5820480000000 1.0
C      1  0.2669150000000  0.5830970000000  0.5099780000000 1.0
C      1  0.3997920000000  0.3307120000000  0.3571880000000 1.0
C      1  0.3999380000000  0.5835320000000  0.2950380000000 1.0
C      1  0.3997160000000  0.7207400000000  0.5162150000000 1.0
C      1  0.3997160000000  0.5530690000000  0.7149600000000 1.0
C      1  0.3996140000000  0.3116770000000  0.6168220000000 1.0
C      1  0.6002340000000  0.6691750000000  0.3573250000000 1.0
C      1  0.5999520000000  0.4164380000000  0.2951550000000 1.0
C      1  0.6003450000000  0.2794170000000  0.5162190000000 1.0
C      1  0.6001910000000  0.4474290000000  0.7147210000000 1.0
C      1  0.6002900000000  0.6882350000000  0.6165520000000 1.0
C      1  0.4832090000000  0.7396630000000  0.4694100000000 1.0
C      1  0.4832600000000  0.6031910000000  0.7186180000000 1.0
C      1  0.4830990000000  0.3238520000000  0.6657420000000 1.0
C      1  0.4832870000000  0.2879790000000  0.3836880000000 1.0
C      1  0.4834830000000  0.5452000000000  0.2625390000000 1.0
C      1  0.5166440000000  0.2603540000000  0.4695390000000 1.0
C      1  0.5165850000000  0.3969770000000  0.7183440000000 1.0
C      1  0.5167650000000  0.6760750000000  0.6655310000000 1.0
C      1  0.5165330000000  0.7119130000000  0.3836540000000 1.0
C      1  0.5164170000000  0.4548420000000  0.2626490000000 1.0
C      1  0.5816080000000  0.5839230000000  0.5195550000000 1.0
C      1  0.5817460000000  0.5073210000000  0.5860270000000 1.0
C      1  0.5819150000000  0.4203530000000  0.5338330000000 1.0
C      1  0.5816250000000  0.4433670000000  0.4351200000000 1.0
C      1  0.5816610000000  0.5443990000000  0.4262620000000 1.0
C      1  0.4184960000000  0.4160540000000  0.5193070000000 1.0
C      1  0.4184390000000  0.4925470000000  0.5857120000000 1.0
C      1  0.4181870000000  0.5795080000000  0.5336760000000 1.0
C      1  0.4184780000000  0.5566090000000  0.4350390000000 1.0
C      1  0.4185010000000  0.4556630000000  0.4260900000000 1.0
C      1  0.3430370000000  0.4008780000000  0.3933190000000 1.0
C      1  0.3431250000000  0.5707640000000  0.3728960000000 1.0
C      1  0.3428060000000  0.6429030000000  0.5281160000000 1.0
C      1  0.3430160000000  0.5174370000000  0.6444880000000 1.0
C      1  0.3429990000000  0.3678650000000  0.5612450000000 1.0
C      1  0.6569510000000  0.5992480000000  0.3935480000000 1.0
C      1  0.6569150000000  0.4292330000000  0.3728120000000 1.0
C      1  0.6570860000000  0.3571140000000  0.5277510000000 1.0
C      1  0.6569310000000  0.4822630000000  0.6442660000000 1.0
C      1  0.6570620000000  0.6319590000000  0.5612720000000 1.0
C      1  0.4586140000000  0.3072540000000  0.5358420000000 1.0
C      1  0.4586210000000  0.4063840000000  0.3279230000000 1.0
C      1  0.4587060000000  0.6346120000000  0.3579840000000 1.0
C      1  0.4585360000000  0.6769910000000  0.5843620000000 1.0
C      1  0.4586040000000  0.4746300000000  0.6941050000000 1.0
C      1  0.5414950000000  0.6929460000000  0.5357030000000 1.0
C      1  0.5413390000000  0.5936680000000  0.3279320000000 1.0
C      1  0.5412650000000  0.3652630000000  0.3580080000000 1.0
C      1  0.5412840000000  0.3229480000000  0.5842670000000 1.0
C      1  0.5409480000000  0.5253290000000  0.6941430000000 1.0
END
