TITL C-1525613-7943-6893 0.159838735333761 3375 -8227.68533374834 0 0 60 (Ci) n - 1
REM
REM in /home/nfs/bkarasulu/CARBON/AIRSS/Generating-Clusters/ReaxFF-fromJPCA2015/Units_Real/Try2-Higher-symm/Only-C60
REM
REM
REM
REM
REM
REM ./C.cell (863b2abdce7293c0672fb3ba77bf323a)
REM AIRSS Version 0.9.1 bugfix July 2018 build 013d7b7c2542+ Fri, 06 Jul 2018 19:26:36 +0100
REM compiler GCC version 9.2.1 20190827 (Red Hat 9.2.1-1)
REM options -cpp -mtune=generic -march=x86-64 -g -O0 -fpre-include=/usr/include/finclude/math-vector-fortran.h
REM seed 1058252404 1463129386 -1510530157 -420282419 -1492413251 619735922 1559602862 896030922 -955044648 868591241 -1485111806 -390122330 -390951979 662180889 891736741 -910667133 -877080538 -1980289485 -1620203498 -881593695 176733792 1619858068 251461621 -1872121262 -1052491775 1349066195 -1438416021 1636316594 1963520275 -304869003 -172232705 2050024279 -1689662932
REM
CELL 1.54180   15.00000   15.00000   15.00000   90.00000   90.00000   90.00000
LATT -1
SFAC C  
C      1  0.4932140000000  0.2950850000000  0.4705350000000 1.0
C      1  0.6328750000000  0.1974780000000  0.5434030000000 1.0
C      1  0.7251740000000  0.3534550000000  0.5421060000000 1.0
C      1  0.7121970000000  0.5069480000000  0.4701490000000 1.0
C      1  0.6626540000000  0.6559290000000  0.5097420000000 1.0
C      1  0.5067870000000  0.7049090000000  0.5294610000000 1.0
C      1  0.3671250000000  0.8025230000000  0.4565970000000 1.0
C      1  0.2748260000000  0.6465440000000  0.4578940000000 1.0
C      1  0.2878000000000  0.4930530000000  0.5298530000000 1.0
C      1  0.3373460000000  0.3440710000000  0.4902590000000 1.0
C      1  0.5852740000000  0.4793020000000  0.7903660000000 1.0
C      1  0.5718400000000  0.5436080000000  0.2066850000000 1.0
C      1  0.5392600000000  0.5666870000000  0.7882620000000 1.0
C      1  0.4837700000000  0.5891350000000  0.2045210000000 1.0
C      1  0.4428540000000  0.5518840000000  0.7813520000000 1.0
C      1  0.4147260000000  0.5206980000000  0.2096340000000 1.0
C      1  0.4281600000000  0.4563920000000  0.7933150000000 1.0
C      1  0.4607400000000  0.4333130000000  0.2117390000000 1.0
C      1  0.5162300000000  0.4108650000000  0.7954800000000 1.0
C      1  0.5571460000000  0.4481160000000  0.2186480000000 1.0
C      1  0.6153810000000  0.5773210000000  0.2919140000000 1.0
C      1  0.5693840000000  0.6115960000000  0.7019710000000 1.0
C      1  0.4711850000000  0.6492710000000  0.2860910000000 1.0
C      1  0.4049690000000  0.5811310000000  0.6882490000000 1.0
C      1  0.3569470000000  0.5370010000000  0.2933290000000 1.0
C      1  0.3846190000000  0.4226790000000  0.7080860000000 1.0
C      1  0.4306160000000  0.3884040000000  0.2980300000000 1.0
C      1  0.5288150000000  0.3507280000000  0.7139090000000 1.0
C      1  0.5950310000000  0.4188690000000  0.3117500000000 1.0
C      1  0.6430530000000  0.4629990000000  0.7066710000000 1.0
C      1  0.5458950000000  0.3055060000000  0.5523010000000 1.0
C      1  0.6480720000000  0.2793720000000  0.5511360000000 1.0
C      1  0.6830130000000  0.4387750000000  0.5396110000000 1.0
C      1  0.6575460000000  0.5826320000000  0.4425990000000 1.0
C      1  0.5798360000000  0.6481270000000  0.5671020000000 1.0
C      1  0.4541150000000  0.6944950000000  0.4477130000000 1.0
C      1  0.3519270000000  0.7206280000000  0.4488640000000 1.0
C      1  0.3169880000000  0.5612290000000  0.4603870000000 1.0
C      1  0.3424570000000  0.4173630000000  0.5573990000000 1.0
C      1  0.4201510000000  0.3518820000000  0.4328920000000 1.0
C      1  0.6028050000000  0.4589190000000  0.6040050000000 1.0
C      1  0.5677490000000  0.5599740000000  0.3929520000000 1.0
C      1  0.5501550000000  0.5536900000000  0.6012880000000 1.0
C      1  0.4697990000000  0.6127890000000  0.3918070000000 1.0
C      1  0.4555940000000  0.5342130000000  0.6097370000000 1.0
C      1  0.3971960000000  0.5410800000000  0.3959950000000 1.0
C      1  0.4322520000000  0.4400260000000  0.6070480000000 1.0
C      1  0.4498450000000  0.4463090000000  0.3987110000000 1.0
C      1  0.5302010000000  0.3872100000000  0.6081930000000 1.0
C      1  0.5444050000000  0.4657870000000  0.3902630000000 1.0
C      1  0.7157130000000  0.4801670000000  0.7444100000000 1.0
C      1  0.6821480000000  0.6112390000000  0.2561590000000 1.0
C      1  0.5947620000000  0.6823450000000  0.7381240000000 1.0
C      1  0.4610120000000  0.7195500000000  0.2425370000000 1.0
C      1  0.3911450000000  0.6629800000000  0.7163560000000 1.0
C      1  0.2842870000000  0.5198330000000  0.2555900000000 1.0
C      1  0.3178520000000  0.3887610000000  0.7438410000000 1.0
C      1  0.4052380000000  0.3176550000000  0.2618760000000 1.0
C      1  0.5389880000000  0.2804490000000  0.7574630000000 1.0
C      1  0.6088550000000  0.3370200000000  0.2836440000000 1.0
END
