TITL C-1525613-7943-2447 -0.000245216882263731 3375 -9507.53521966509 0 0 60 (D5d) n - 1
REM
REM in /home/nfs/bkarasulu/CARBON/AIRSS/Generating-Clusters/ReaxFF-fromJPCA2015/Units_Real/Try2-Higher-symm/Only-C60
REM
REM
REM
REM
REM
REM ./C.cell (863b2abdce7293c0672fb3ba77bf323a)
REM AIRSS Version 0.9.1 bugfix July 2018 build 013d7b7c2542+ Fri, 06 Jul 2018 19:26:36 +0100
REM compiler GCC version 9.2.1 20190827 (Red Hat 9.2.1-1)
REM options -cpp -mtune=generic -march=x86-64 -g -O0 -fpre-include=/usr/include/finclude/math-vector-fortran.h
REM seed 1317073307 1813377028 -1467555135 -1846089353 -170937871 -495592694 -2136435914 622724274 -412514841 -501973003 -110205233 1551369372 -88638154 402491816 -1188224906 878737283 82827256 110184899 -1129724182 1549704303 -1482787168 -391631483 191284633 1020202176 -1739868864 1131853449 447709531 -724198515 1446461579 -655217314 -464055252 -1076010267 -1779264489
REM
CELL 1.54180   15.00000   15.00000   15.00000   90.00000   90.00000   90.00000
LATT -1
SFAC C  
C      1  0.3744420000000  0.5922680000000  0.2894540000000 1.0
C      1  0.3744420000000  0.3282620000000  0.3471860000000 1.0
C      1  0.3744500000000  0.3015890000000  0.6161100000000 1.0
C      1  0.3744520000000  0.5491140000000  0.7245730000000 1.0
C      1  0.3744470000000  0.7287680000000  0.5226920000000 1.0
C      1  0.3744420000000  0.4077320000000  0.2894540000000 1.0
C      1  0.3744420000000  0.6717380000000  0.3471860000000 1.0
C      1  0.3744500000000  0.6984110000000  0.6161100000000 1.0
C      1  0.3744520000000  0.4508860000000  0.7245730000000 1.0
C      1  0.3744470000000  0.2712320000000  0.5226920000000 1.0
C      1  0.6926610000000  0.5485750000000  0.6514510000000 1.0
C      1  0.6926620000000  0.6590650000000  0.5006020000000 1.0
C      1  0.6926560000000  0.5497280000000  0.3489130000000 1.0
C      1  0.6926570000000  0.3716730000000  0.4060140000000 1.0
C      1  0.6926640000000  0.3709590000000  0.5929960000000 1.0
C      1  0.6926610000000  0.4514250000000  0.6514510000000 1.0
C      1  0.6926620000000  0.3409350000000  0.5006020000000 1.0
C      1  0.6926560000000  0.4502720000000  0.3489130000000 1.0
C      1  0.6926570000000  0.6283270000000  0.4060140000000 1.0
C      1  0.6926640000000  0.6290410000000  0.5929960000000 1.0
C      1  0.3073350000000  0.4502710000000  0.6510840000000 1.0
C      1  0.3073330000000  0.6283290000000  0.5939860000000 1.0
C      1  0.3073250000000  0.6290420000000  0.4070040000000 1.0
C      1  0.3073290000000  0.4514250000000  0.3485510000000 1.0
C      1  0.3073270000000  0.3409320000000  0.4993980000000 1.0
C      1  0.3073350000000  0.5497290000000  0.6510840000000 1.0
C      1  0.3073330000000  0.3716710000000  0.5939850000000 1.0
C      1  0.3073250000000  0.3709580000000  0.4070040000000 1.0
C      1  0.3073290000000  0.5485750000000  0.3485510000000 1.0
C      1  0.3073270000000  0.6590680000000  0.4993980000000 1.0
C      1  0.4589920000000  0.5486750000000  0.2654270000000 1.0
C      1  0.4589930000000  0.2919400000000  0.3812200000000 1.0
C      1  0.4590020000000  0.3227380000000  0.6611670000000 1.0
C      1  0.4590020000000  0.5985030000000  0.7183860000000 1.0
C      1  0.4589960000000  0.7381450000000  0.4738050000000 1.0
C      1  0.4589920000000  0.4513250000000  0.2654270000000 1.0
C      1  0.4589930000000  0.7080600000000  0.3812200000000 1.0
C      1  0.4590020000000  0.6772620000000  0.6611670000000 1.0
C      1  0.4590020000000  0.4014970000000  0.7183860000000 1.0
C      1  0.4589960000000  0.2618550000000  0.4738050000000 1.0
C      1  0.5410110000000  0.2618460000000  0.5261970000000 1.0
C      1  0.5410150000000  0.4513240000000  0.7345860000000 1.0
C      1  0.5410140000000  0.7080680000000  0.6187830000000 1.0
C      1  0.5410050000000  0.6772700000000  0.3388250000000 1.0
C      1  0.5410050000000  0.4014910000000  0.2816060000000 1.0
C      1  0.5410110000000  0.7381540000000  0.5261970000000 1.0
C      1  0.5410150000000  0.5486760000000  0.7345860000000 1.0
C      1  0.5410140000000  0.2919320000000  0.6187830000000 1.0
C      1  0.5410050000000  0.3227300000000  0.3388250000000 1.0
C      1  0.5410050000000  0.5985090000000  0.2816060000000 1.0
C      1  0.6255610000000  0.5922750000000  0.7105570000000 1.0
C      1  0.6255570000000  0.7287780000000  0.4773060000000 1.0
C      1  0.6255510000000  0.5491140000000  0.2754140000000 1.0
C      1  0.6255530000000  0.3015790000000  0.3838860000000 1.0
C      1  0.6255610000000  0.3282550000000  0.6528230000000 1.0
C      1  0.6255610000000  0.4077250000000  0.7105570000000 1.0
C      1  0.6255570000000  0.2712220000000  0.4773050000000 1.0
C      1  0.6255510000000  0.4508860000000  0.2754140000000 1.0
C      1  0.6255530000000  0.6984210000000  0.3838860000000 1.0
C      1  0.6255610000000  0.6717450000000  0.6528230000000 1.0
END
