TITL C-1525613-7943-6346 -0.00254756518941678 3375 -9534.13571071495 0 0 60 (D5d) n - 1
REM
REM in /home/nfs/bkarasulu/CARBON/AIRSS/Generating-Clusters/ReaxFF-fromJPCA2015/Units_Real/Try2-Higher-symm/Only-C60
REM
REM
REM
REM
REM
REM ./C.cell (863b2abdce7293c0672fb3ba77bf323a)
REM AIRSS Version 0.9.1 bugfix July 2018 build 013d7b7c2542+ Fri, 06 Jul 2018 19:26:36 +0100
REM compiler GCC version 9.2.1 20190827 (Red Hat 9.2.1-1)
REM options -cpp -mtune=generic -march=x86-64 -g -O0 -fpre-include=/usr/include/finclude/math-vector-fortran.h
REM seed -287428950 -1139045757 -2073172993 741386375 -1134614651 -2042323454 -1521251286 1986029175 -281141906 -1336214800 -1105586311 661095743 2019389368 -2056142837 1811488877 919112724 -1545327867 116496801 2135406730 1726974423 1799439961 -2057389810 1868367027 -579045370 1800816831 -1940901992 744953859 -377771763 1868328391 348638871 -732800173 2043386136 -745152076
REM
CELL 1.54180   15.00000   15.00000   15.00000   90.00000   90.00000   90.00000
LATT -1
SFAC C  
C      1  0.4590160000000  0.5955550000000  0.7130800000000 1.0
C      1  0.4590240000000  0.7322040000000  0.4749740000000 1.0
C      1  0.4590480000000  0.5479560000000  0.2714820000000 1.0
C      1  0.4590140000000  0.2974410000000  0.3837660000000 1.0
C      1  0.4590000000000  0.3268670000000  0.6566850000000 1.0
C      1  0.4590090000000  0.4044610000000  0.7130780000000 1.0
C      1  0.4590270000000  0.2677960000000  0.4749870000000 1.0
C      1  0.4590270000000  0.4520370000000  0.2714860000000 1.0
C      1  0.4589850000000  0.7025430000000  0.3837570000000 1.0
C      1  0.4590100000000  0.6731460000000  0.6566940000000 1.0
C      1  0.5409750000000  0.7025550000000  0.6162190000000 1.0
C      1  0.5409620000000  0.6731430000000  0.3432890000000 1.0
C      1  0.5409900000000  0.4044620000000  0.2869490000000 1.0
C      1  0.5409950000000  0.2677900000000  0.5250070000000 1.0
C      1  0.5409690000000  0.4520410000000  0.7285390000000 1.0
C      1  0.5409730000000  0.2974410000000  0.6162170000000 1.0
C      1  0.5409810000000  0.3268540000000  0.3433100000000 1.0
C      1  0.5410110000000  0.5955330000000  0.2869300000000 1.0
C      1  0.5409990000000  0.7321890000000  0.5249950000000 1.0
C      1  0.5409700000000  0.5479620000000  0.7285410000000 1.0
C      1  0.6217610000000  0.2776190000000  0.4765260000000 1.0
C      1  0.6217410000000  0.4089740000000  0.7041850000000 1.0
C      1  0.6217390000000  0.6660920000000  0.6496730000000 1.0
C      1  0.6217440000000  0.6937000000000  0.3883120000000 1.0
C      1  0.6217690000000  0.4536150000000  0.2813160000000 1.0
C      1  0.6217750000000  0.7223820000000  0.4765470000000 1.0
C      1  0.6217310000000  0.5910270000000  0.7041860000000 1.0
C      1  0.6217390000000  0.3339060000000  0.6496770000000 1.0
C      1  0.6217560000000  0.3063070000000  0.3882920000000 1.0
C      1  0.6217750000000  0.5463810000000  0.2813100000000 1.0
C      1  0.3096930000000  0.5494790000000  0.6500840000000 1.0
C      1  0.3096950000000  0.6580510000000  0.4993320000000 1.0
C      1  0.3097200000000  0.5482000000000  0.3495040000000 1.0
C      1  0.3096670000000  0.3717320000000  0.4076380000000 1.0
C      1  0.3096580000000  0.3725210000000  0.5934240000000 1.0
C      1  0.3096920000000  0.4505210000000  0.6500820000000 1.0
C      1  0.3097040000000  0.3419480000000  0.4993250000000 1.0
C      1  0.3096910000000  0.4517940000000  0.3494960000000 1.0
C      1  0.3096400000000  0.6282790000000  0.4076390000000 1.0
C      1  0.3096890000000  0.6274760000000  0.5934210000000 1.0
C      1  0.3782500000000  0.6936800000000  0.6117080000000 1.0
C      1  0.3782130000000  0.6661250000000  0.3503150000000 1.0
C      1  0.3782530000000  0.4089670000000  0.2958020000000 1.0
C      1  0.3782600000000  0.2776450000000  0.5234810000000 1.0
C      1  0.3782460000000  0.4536190000000  0.7187050000000 1.0
C      1  0.3782190000000  0.3063120000000  0.6117250000000 1.0
C      1  0.3782410000000  0.3338990000000  0.3503110000000 1.0
C      1  0.3782630000000  0.5910480000000  0.2958230000000 1.0
C      1  0.3782560000000  0.7223710000000  0.5234690000000 1.0
C      1  0.3782480000000  0.5463780000000  0.7187050000000 1.0
C      1  0.6903100000000  0.6282600000000  0.5923490000000 1.0
C      1  0.6902930000000  0.6274750000000  0.4065770000000 1.0
C      1  0.6903360000000  0.4505230000000  0.3499240000000 1.0
C      1  0.6903340000000  0.3419250000000  0.5006610000000 1.0
C      1  0.6903020000000  0.4517950000000  0.6504890000000 1.0
C      1  0.6903060000000  0.3717360000000  0.5923360000000 1.0
C      1  0.6903230000000  0.3725100000000  0.4065710000000 1.0
C      1  0.6903390000000  0.5494740000000  0.3499260000000 1.0
C      1  0.6903520000000  0.6580760000000  0.5006710000000 1.0
C      1  0.6902940000000  0.5482030000000  0.6504940000000 1.0
END
