TITL C-1525613-7943-1414 -8.89038274388649e-05 3375 -8758.26003781506 0 0 60 (D5h) n - 1
REM
REM in /home/nfs/bkarasulu/CARBON/AIRSS/Generating-Clusters/ReaxFF-fromJPCA2015/Units_Real/Try2-Higher-symm/Only-C60
REM
REM
REM
REM
REM
REM ./C.cell (863b2abdce7293c0672fb3ba77bf323a)
REM AIRSS Version 0.9.1 bugfix July 2018 build 013d7b7c2542+ Fri, 06 Jul 2018 19:26:36 +0100
REM compiler GCC version 9.2.1 20190827 (Red Hat 9.2.1-1)
REM options -cpp -mtune=generic -march=x86-64 -g -O0 -fpre-include=/usr/include/finclude/math-vector-fortran.h
REM seed 186353813 -967163850 -1061909001 -589698955 -1889642996 -440352925 -1903246402 1128820453 -1366956254 -1561981372 -1374038080 -338081300 1932026840 724197531 2042393247 2076403414 -1521703370 1524373154 -343822988 -1740839132 389938016 -1572818872 -1372807627 704191632 -664517379 -827498992 -961400185 -1217689100 -1570457340 -630875530 2076614816 311182869 311496919
REM
CELL 1.54180   15.00000   15.00000   15.00000   90.00000   90.00000   90.00000
LATT -1
SFAC C  
C      1  0.6534340000000  0.5001790000000  0.3371710000000 1.0
C      1  0.6538150000000  0.6551010000000  0.4500410000000 1.0
C      1  0.6533310000000  0.5953290000000  0.6317110000000 1.0
C      1  0.6538240000000  0.4038620000000  0.6318320000000 1.0
C      1  0.6534570000000  0.3454930000000  0.4493130000000 1.0
C      1  0.6534340000000  0.5001790000000  0.6628290000000 1.0
C      1  0.6538150000000  0.6551010000000  0.5499590000000 1.0
C      1  0.6533310000000  0.5953290000000  0.3682890000000 1.0
C      1  0.6538240000000  0.4038620000000  0.3681680000000 1.0
C      1  0.6534570000000  0.3454930000000  0.5506870000000 1.0
C      1  0.3465660000000  0.5001710000000  0.3371710000000 1.0
C      1  0.3461760000000  0.6550920000000  0.4500410000000 1.0
C      1  0.3466640000000  0.5953200000000  0.6317110000000 1.0
C      1  0.3461810000000  0.4038530000000  0.6318320000000 1.0
C      1  0.3465520000000  0.3454840000000  0.4493130000000 1.0
C      1  0.3465660000000  0.5001710000000  0.6628290000000 1.0
C      1  0.3461760000000  0.6550920000000  0.5499590000000 1.0
C      1  0.3466640000000  0.5953200000000  0.3682890000000 1.0
C      1  0.3461810000000  0.4038530000000  0.3681680000000 1.0
C      1  0.3465520000000  0.3454840000000  0.5506870000000 1.0
C      1  0.5938320000000  0.3818990000000  0.2927890000000 1.0
C      1  0.5934740000000  0.6600220000000  0.3242140000000 1.0
C      1  0.5936970000000  0.7170130000000  0.5979420000000 1.0
C      1  0.5936200000000  0.4737860000000  0.7366680000000 1.0
C      1  0.5933890000000  0.2673760000000  0.5482300000000 1.0
C      1  0.5938320000000  0.3818990000000  0.7072110000000 1.0
C      1  0.5934740000000  0.6600220000000  0.6757860000000 1.0
C      1  0.5936970000000  0.7170130000000  0.4020580000000 1.0
C      1  0.5936200000000  0.4737860000000  0.2633320000000 1.0
C      1  0.5933890000000  0.2673760000000  0.4517700000000 1.0
C      1  0.5000020000000  0.4184730000000  0.3880460000000 1.0
C      1  0.4999980000000  0.5819000000000  0.3852600000000 1.0
C      1  0.4999960000000  0.6316480000000  0.5431970000000 1.0
C      1  0.5000000000000  0.5012750000000  0.6403870000000 1.0
C      1  0.5000040000000  0.3666570000000  0.5432720000000 1.0
C      1  0.5000020000000  0.4184730000000  0.6119540000000 1.0
C      1  0.4999980000000  0.5819000000000  0.6147400000000 1.0
C      1  0.4999960000000  0.6316480000000  0.4568030000000 1.0
C      1  0.5000000000000  0.5012750000000  0.3596130000000 1.0
C      1  0.5000040000000  0.3666570000000  0.4567280000000 1.0
C      1  0.4062910000000  0.7170080000000  0.4020580000000 1.0
C      1  0.4065170000000  0.6600170000000  0.6757860000000 1.0
C      1  0.4061740000000  0.3818940000000  0.7072110000000 1.0
C      1  0.4066250000000  0.2673710000000  0.4517700000000 1.0
C      1  0.4063810000000  0.4737810000000  0.2633320000000 1.0
C      1  0.4062910000000  0.7170080000000  0.5979420000000 1.0
C      1  0.4065170000000  0.6600170000000  0.3242140000000 1.0
C      1  0.4061740000000  0.3818940000000  0.2927890000000 1.0
C      1  0.4066240000000  0.2673710000000  0.5482300000000 1.0
C      1  0.4063810000000  0.4737810000000  0.7366680000000 1.0
C      1  0.4999990000000  0.5196620000000  0.2599590000000 1.0
C      1  0.4999930000000  0.7335070000000  0.4445740000000 1.0
C      1  0.4999960000000  0.6252220000000  0.7061780000000 1.0
C      1  0.5000040000000  0.3437040000000  0.6825330000000 1.0
C      1  0.5000060000000  0.2778990000000  0.4069770000000 1.0
C      1  0.4999990000000  0.5196620000000  0.7400410000000 1.0
C      1  0.4999930000000  0.7335070000000  0.5554260000000 1.0
C      1  0.4999960000000  0.6252220000000  0.2938220000000 1.0
C      1  0.5000040000000  0.3437040000000  0.3174670000000 1.0
C      1  0.5000060000000  0.2778990000000  0.5930230000000 1.0
END
