TITL C-1525613-7943-7710 0.006945686333218 3375 -9129.79580264442 0 0 60 (C2v) n - 1
REM
REM in /home/nfs/bkarasulu/CARBON/AIRSS/Generating-Clusters/ReaxFF-fromJPCA2015/Units_Real/Try2-Higher-symm/Only-C60
REM
REM
REM
REM
REM
REM ./C.cell (863b2abdce7293c0672fb3ba77bf323a)
REM AIRSS Version 0.9.1 bugfix July 2018 build 013d7b7c2542+ Fri, 06 Jul 2018 19:26:36 +0100
REM compiler GCC version 9.2.1 20190827 (Red Hat 9.2.1-1)
REM options -cpp -mtune=generic -march=x86-64 -g -O0 -fpre-include=/usr/include/finclude/math-vector-fortran.h
REM seed 801148521 -1052237781 1582363891 1403595453 166646398 -460898657 1701730435 -2117154383 -1521419225 1055262592 -1355214604 1608592716 110376262 -113033840 464477681 -1284882596 -1592682647 1235430100 -1821273682 1022963035 322242484 1799404033 -714465505 1117993215 1947053832 879523982 778666445 -641421095 2113967030 -1893700767 939882686 4033147 699237921
REM
CELL 1.54180   15.00000   15.00000   15.00000   90.00000   90.00000   90.00000
LATT -1
SFAC C  
C      1  0.3606930000000  0.6510090000000  0.5311080000000 1.0
C      1  0.3475350000000  0.6103290000000  0.6185210000000 1.0
C      1  0.3474420000000  0.5221730000000  0.6603860000000 1.0
C      1  0.3606110000000  0.4287050000000  0.6366910000000 1.0
C      1  0.3398690000000  0.3625890000000  0.5652600000000 1.0
C      1  0.3606930000000  0.3489910000000  0.4688910000000 1.0
C      1  0.3475350000000  0.3896700000000  0.3814780000000 1.0
C      1  0.3474420000000  0.4778270000000  0.3396130000000 1.0
C      1  0.3606110000000  0.5712950000000  0.3633080000000 1.0
C      1  0.3398690000000  0.6374120000000  0.4347420000000 1.0
C      1  0.6438200000000  0.5289800000000  0.3457870000000 1.0
C      1  0.6451860000000  0.6140710000000  0.3923590000000 1.0
C      1  0.6452320000000  0.6555340000000  0.4796030000000 1.0
C      1  0.6439030000000  0.6378860000000  0.5749880000000 1.0
C      1  0.6448650000000  0.5674150000000  0.6419040000000 1.0
C      1  0.6438200000000  0.4710190000000  0.6542130000000 1.0
C      1  0.6451860000000  0.3859290000000  0.6076400000000 1.0
C      1  0.6452320000000  0.3444660000000  0.5203970000000 1.0
C      1  0.6439040000000  0.3621140000000  0.4250120000000 1.0
C      1  0.6448650000000  0.4325860000000  0.3580950000000 1.0
C      1  0.5604640000000  0.2250310000000  0.4493190000000 1.0
C      1  0.5594630000000  0.3084740000000  0.2971460000000 1.0
C      1  0.5593670000000  0.4637480000000  0.2234290000000 1.0
C      1  0.5603450000000  0.6344270000000  0.2549100000000 1.0
C      1  0.5609340000000  0.7514590000000  0.3805810000000 1.0
C      1  0.5604660000000  0.7749680000000  0.5506800000000 1.0
C      1  0.5594650000000  0.6915260000000  0.7028540000000 1.0
C      1  0.5593650000000  0.5362520000000  0.7765710000000 1.0
C      1  0.5603430000000  0.3655730000000  0.7450910000000 1.0
C      1  0.5609320000000  0.2485410000000  0.6194190000000 1.0
C      1  0.3822950000000  0.5946630000000  0.2670800000000 1.0
C      1  0.3938730000000  0.7040660000000  0.4030600000000 1.0
C      1  0.3824100000000  0.7403660000000  0.5737830000000 1.0
C      1  0.3787370000000  0.6942590000000  0.6652630000000 1.0
C      1  0.3786360000000  0.5053850000000  0.7549730000000 1.0
C      1  0.3822970000000  0.4053360000000  0.7329210000000 1.0
C      1  0.3938740000000  0.2959340000000  0.5969420000000 1.0
C      1  0.3824130000000  0.2596320000000  0.4262160000000 1.0
C      1  0.3787400000000  0.3057410000000  0.3347380000000 1.0
C      1  0.3786340000000  0.4946170000000  0.2450280000000 1.0
C      1  0.6001500000000  0.2591450000000  0.5326140000000 1.0
C      1  0.5987310000000  0.2870010000000  0.3843300000000 1.0
C      1  0.6001110000000  0.3958690000000  0.2807940000000 1.0
C      1  0.5986000000000  0.5449000000000  0.2618870000000 1.0
C      1  0.6000770000000  0.6774370000000  0.3339550000000 1.0
C      1  0.6001500000000  0.7408550000000  0.4673860000000 1.0
C      1  0.5987310000000  0.7129990000000  0.6156680000000 1.0
C      1  0.6001110000000  0.6041300000000  0.7192060000000 1.0
C      1  0.5986000000000  0.4551010000000  0.7381130000000 1.0
C      1  0.6000770000000  0.3225620000000  0.6660440000000 1.0
C      1  0.4623610000000  0.6427100000000  0.2386400000000 1.0
C      1  0.4593370000000  0.7670340000000  0.3731940000000 1.0
C      1  0.4624760000000  0.7927720000000  0.5545330000000 1.0
C      1  0.4612840000000  0.7023790000000  0.7161000000000 1.0
C      1  0.4611880000000  0.5396790000000  0.7933540000000 1.0
C      1  0.4623610000000  0.3572910000000  0.7613600000000 1.0
C      1  0.4593380000000  0.2329670000000  0.6268060000000 1.0
C      1  0.4624760000000  0.2072290000000  0.4454660000000 1.0
C      1  0.4612840000000  0.2976220000000  0.2839020000000 1.0
C      1  0.4611870000000  0.4603210000000  0.2066450000000 1.0
END
