TITL C-1525613-7943-1988 0.379809548233882 3375 -8375.32089480518 0 0 60 (S10) n - 1
REM
REM in /home/nfs/bkarasulu/CARBON/AIRSS/Generating-Clusters/ReaxFF-fromJPCA2015/Units_Real/Try2-Higher-symm/Only-C60
REM
REM
REM
REM
REM
REM ./C.cell (863b2abdce7293c0672fb3ba77bf323a)
REM AIRSS Version 0.9.1 bugfix July 2018 build 013d7b7c2542+ Fri, 06 Jul 2018 19:26:36 +0100
REM compiler GCC version 9.2.1 20190827 (Red Hat 9.2.1-1)
REM options -cpp -mtune=generic -march=x86-64 -g -O0 -fpre-include=/usr/include/finclude/math-vector-fortran.h
REM seed 1130551440 2073340549 1040044778 1538111787 1054835431 -865004386 951849132 1818758975 221642756 -576967904 82936390 126703640 819374696 -179297927 -2050036264 22255580 2042486010 1552698999 -1556452844 -607180885 -1823934417 1454790083 -979639117 1918065211 -1695560916 -1121812554 1133185445 101988694 -325441535 494558852 -2017187536 916205929 -1171111516
REM
CELL 1.54180   15.00000   15.00000   15.00000   90.00000   90.00000   90.00000
LATT -1
SFAC C  
C      1  0.5699190000000  0.6307430000000  0.3331170000000 1.0
C      1  0.6529170000000  0.3694440000000  0.4068630000000 1.0
C      1  0.6786040000000  0.6306290000000  0.5131520000000 1.0
C      1  0.6376210000000  0.3687010000000  0.6163920000000 1.0
C      1  0.5416660000000  0.6312170000000  0.6754070000000 1.0
C      1  0.4311760000000  0.3684500000000  0.6666850000000 1.0
C      1  0.3471070000000  0.6308280000000  0.5938750000000 1.0
C      1  0.3209740000000  0.3689110000000  0.4860060000000 1.0
C      1  0.3622630000000  0.6312010000000  0.3831220000000 1.0
C      1  0.4587680000000  0.3688480000000  0.3250770000000 1.0
C      1  0.2744750000000  0.4467500000000  0.4438920000000 1.0
C      1  0.3502700000000  0.5534450000000  0.3222810000000 1.0
C      1  0.4828980000000  0.4474360000000  0.2677900000000 1.0
C      1  0.6220890000000  0.5525890000000  0.3025480000000 1.0
C      1  0.7149390000000  0.4473760000000  0.4123360000000 1.0
C      1  0.7256310000000  0.5532790000000  0.5559320000000 1.0
C      1  0.6496740000000  0.4464910000000  0.6773410000000 1.0
C      1  0.5169760000000  0.5525580000000  0.7322060000000 1.0
C      1  0.3774300000000  0.4470390000000  0.6970440000000 1.0
C      1  0.2848910000000  0.5527260000000  0.5875400000000 1.0
C      1  0.6267480000000  0.6008840000000  0.6430940000000 1.0
C      1  0.5187990000000  0.3993100000000  0.6894170000000 1.0
C      1  0.4044070000000  0.6004300000000  0.6650050000000 1.0
C      1  0.3249670000000  0.3995900000000  0.5769280000000 1.0
C      1  0.3129210000000  0.6013700000000  0.4591800000000 1.0
C      1  0.3730210000000  0.3997240000000  0.3568940000000 1.0
C      1  0.4812790000000  0.6007690000000  0.3107210000000 1.0
C      1  0.5951950000000  0.3996970000000  0.3354020000000 1.0
C      1  0.6754810000000  0.5979550000000  0.4239020000000 1.0
C      1  0.6872950000000  0.3988560000000  0.5404150000000 1.0
C      1  0.4887090000000  0.5253020000000  0.3811470000000 1.0
C      1  0.5601110000000  0.4750120000000  0.3960870000000 1.0
C      1  0.6083580000000  0.5273920000000  0.4503500000000 1.0
C      1  0.6143880000000  0.4727930000000  0.5235580000000 1.0
C      1  0.5780710000000  0.5271810000000  0.5875760000000 1.0
C      1  0.5112580000000  0.4745720000000  0.6189970000000 1.0
C      1  0.4401830000000  0.5250810000000  0.6040480000000 1.0
C      1  0.3924560000000  0.4735700000000  0.5494440000000 1.0
C      1  0.3857640000000  0.5273390000000  0.4762690000000 1.0
C      1  0.4216930000000  0.4727050000000  0.4121040000000 1.0
C      1  0.2543810000000  0.5305000000000  0.4960900000000 1.0
C      1  0.3035860000000  0.4696920000000  0.3522420000000 1.0
C      1  0.4272860000000  0.5307180000000  0.2649600000000 1.0
C      1  0.5795630000000  0.4699490000000  0.2665970000000 1.0
C      1  0.7012160000000  0.5312150000000  0.3576570000000 1.0
C      1  0.7458230000000  0.4696120000000  0.5035990000000 1.0
C      1  0.6963360000000  0.5302590000000  0.6474150000000 1.0
C      1  0.5729080000000  0.4691350000000  0.7349390000000 1.0
C      1  0.4206410000000  0.5302970000000  0.7335180000000 1.0
C      1  0.2984010000000  0.4695670000000  0.6417300000000 1.0
C      1  0.5621240000000  0.3347930000000  0.5575810000000 1.0
C      1  0.5166150000000  0.6651900000000  0.5821580000000 1.0
C      1  0.4652360000000  0.3356630000000  0.5770660000000 1.0
C      1  0.4267000000000  0.6648690000000  0.5406950000000 1.0
C      1  0.4165170000000  0.3355500000000  0.4902050000000 1.0
C      1  0.4374350000000  0.6650020000000  0.4427270000000 1.0
C      1  0.4836050000000  0.3349380000000  0.4185480000000 1.0
C      1  0.5348380000000  0.6643230000000  0.4231120000000 1.0
C      1  0.5727590000000  0.3351290000000  0.4598610000000 1.0
C      1  0.5826370000000  0.6654090000000  0.5101540000000 1.0
END
