TITL C-1525613-7943-1723 -0.0920134328450067 3375 -9240.2355642448 0 0 60 (Cs) n - 1
REM
REM in /home/nfs/bkarasulu/CARBON/AIRSS/Generating-Clusters/ReaxFF-fromJPCA2015/Units_Real/Try2-Higher-symm/Only-C60
REM
REM
REM
REM
REM
REM ./C.cell (863b2abdce7293c0672fb3ba77bf323a)
REM AIRSS Version 0.9.1 bugfix July 2018 build 013d7b7c2542+ Fri, 06 Jul 2018 19:26:36 +0100
REM compiler GCC version 9.2.1 20190827 (Red Hat 9.2.1-1)
REM options -cpp -mtune=generic -march=x86-64 -g -O0 -fpre-include=/usr/include/finclude/math-vector-fortran.h
REM seed -1752687418 -1718234093 -570802958 204263429 243054801 -81813246 -944813453 972783986 625304971 1827112148 -1787321446 801141832 -570090490 264289819 -1461077040 1982172841 1864831617 -2108587283 1616980548 -1260527564 -1210990281 1424516334 -1165710287 1115728019 628620215 -686860793 804537209 -826954304 -376245077 2014867546 232939411 -1354897933 1689789323
REM
CELL 1.54180   15.00000   15.00000   15.00000   90.00000   90.00000   90.00000
LATT -1
SFAC C  
C      1  0.3980690000000  0.2906450000000  0.5325410000000 1.0
C      1  0.3967180000000  0.4165260000000  0.7155770000000 1.0
C      1  0.3935660000000  0.6934160000000  0.6136850000000 1.0
C      1  0.3961490000000  0.6629750000000  0.3503800000000 1.0
C      1  0.3998140000000  0.4435830000000  0.2874300000000 1.0
C      1  0.6016630000000  0.2906070000000  0.5325030000000 1.0
C      1  0.6030790000000  0.4165630000000  0.7154600000000 1.0
C      1  0.6064040000000  0.6931420000000  0.6137460000000 1.0
C      1  0.6040200000000  0.6628810000000  0.3504500000000 1.0
C      1  0.6002920000000  0.4433840000000  0.2874530000000 1.0
C      1  0.6556040000000  0.5848690000000  0.3827040000000 1.0
C      1  0.6505570000000  0.4893390000000  0.3584260000000 1.0
C      1  0.6687960000000  0.3554220000000  0.5625200000000 1.0
C      1  0.6643360000000  0.4199500000000  0.6379520000000 1.0
C      1  0.6698750000000  0.6363430000000  0.5807700000000 1.0
C      1  0.3445090000000  0.5849650000000  0.3829170000000 1.0
C      1  0.3494480000000  0.4892580000000  0.3584940000000 1.0
C      1  0.3310060000000  0.3555530000000  0.5624630000000 1.0
C      1  0.3354250000000  0.4200220000000  0.6381320000000 1.0
C      1  0.3302680000000  0.6363520000000  0.5807740000000 1.0
C      1  0.4499360000000  0.5894290000000  0.1965120000000 1.0
C      1  0.4495220000000  0.2849020000000  0.3571250000000 1.0
C      1  0.4497800000000  0.2464280000000  0.6947110000000 1.0
C      1  0.4493840000000  0.5860850000000  0.7565750000000 1.0
C      1  0.4496530000000  0.7943480000000  0.4748200000000 1.0
C      1  0.5504060000000  0.5894230000000  0.1965490000000 1.0
C      1  0.5501520000000  0.2848230000000  0.3571600000000 1.0
C      1  0.5500530000000  0.2463990000000  0.6946470000000 1.0
C      1  0.5504480000000  0.5860180000000  0.7565580000000 1.0
C      1  0.5508470000000  0.7941630000000  0.4749820000000 1.0
C      1  0.5488100000000  0.7647690000000  0.5686850000000 1.0
C      1  0.5502490000000  0.6567220000000  0.2693040000000 1.0
C      1  0.5499360000000  0.3592180000000  0.2923310000000 1.0
C      1  0.5495630000000  0.2376840000000  0.5958630000000 1.0
C      1  0.5500120000000  0.4874550000000  0.7569810000000 1.0
C      1  0.4513350000000  0.7648710000000  0.5685200000000 1.0
C      1  0.4500070000000  0.6568550000000  0.2692060000000 1.0
C      1  0.4499180000000  0.3593300000000  0.2923220000000 1.0
C      1  0.4501970000000  0.2377710000000  0.5959150000000 1.0
C      1  0.4497850000000  0.4874960000000  0.7569940000000 1.0
C      1  0.5495340000000  0.7226260000000  0.4054280000000 1.0
C      1  0.5500870000000  0.4930920000000  0.2197720000000 1.0
C      1  0.5490410000000  0.3119250000000  0.4527950000000 1.0
C      1  0.5499470000000  0.3369500000000  0.7349720000000 1.0
C      1  0.5477830000000  0.6348860000000  0.6700060000000 1.0
C      1  0.4508760000000  0.7229230000000  0.4050590000000 1.0
C      1  0.4502760000000  0.4931300000000  0.2198180000000 1.0
C      1  0.4505990000000  0.3119240000000  0.4527730000000 1.0
C      1  0.4499400000000  0.3369300000000  0.7351060000000 1.0
C      1  0.4520110000000  0.6352350000000  0.6701810000000 1.0
C      1  0.7269290000000  0.5722180000000  0.5511410000000 1.0
C      1  0.7258030000000  0.5631910000000  0.4499440000000 1.0
C      1  0.7209320000000  0.4686510000000  0.4277330000000 1.0
C      1  0.7290250000000  0.4179160000000  0.5129660000000 1.0
C      1  0.7289180000000  0.4780100000000  0.5901060000000 1.0
C      1  0.2730780000000  0.5723180000000  0.5512560000000 1.0
C      1  0.2743320000000  0.5631920000000  0.4500100000000 1.0
C      1  0.2790930000000  0.4685840000000  0.4275800000000 1.0
C      1  0.2710790000000  0.4181180000000  0.5129720000000 1.0
C      1  0.2711250000000  0.4781990000000  0.5902470000000 1.0
END
