TITL C-1525613-7943-3239 0.0801689857203904 3375 -8375.75755506427 0 0 60 (D5d) n - 1
REM
REM in /home/nfs/bkarasulu/CARBON/AIRSS/Generating-Clusters/ReaxFF-fromJPCA2015/Units_Real/Try2-Higher-symm/Only-C60
REM
REM
REM
REM
REM
REM ./C.cell (863b2abdce7293c0672fb3ba77bf323a)
REM AIRSS Version 0.9.1 bugfix July 2018 build 013d7b7c2542+ Fri, 06 Jul 2018 19:26:36 +0100
REM compiler GCC version 9.2.1 20190827 (Red Hat 9.2.1-1)
REM options -cpp -mtune=generic -march=x86-64 -g -O0 -fpre-include=/usr/include/finclude/math-vector-fortran.h
REM seed -502650503 484026343 -955977448 -1738094766 543605058 1070007353 -1436835038 -427437001 -2066514339 1149090084 -884386172 -791912410 -1421111060 -497797250 1663881044 -1041930817 -1032202021 1367891694 -1925361013 -2108545793 1474248069 -1883787734 773417189 1425981030 2110773249 1175189623 -1750518949 -1737314329 -1766299421 -2082888821 818945205 -2028545022 1770125347
REM
CELL 1.54180   15.00000   15.00000   15.00000   90.00000   90.00000   90.00000
LATT -1
SFAC C  
C      1  0.6415780000000  0.4197900000000  0.4506330000000 1.0
C      1  0.3585840000000  0.4063090000000  0.5072150000000 1.0
C      1  0.6415250000000  0.4282710000000  0.5609180000000 1.0
C      1  0.3584240000000  0.4779060000000  0.5915080000000 1.0
C      1  0.6414640000000  0.5357120000000  0.5869800000000 1.0
C      1  0.3584030000000  0.5802090000000  0.5493680000000 1.0
C      1  0.6415260000000  0.5936720000000  0.4927910000000 1.0
C      1  0.3584970000000  0.5717280000000  0.4390890000000 1.0
C      1  0.6416370000000  0.5220440000000  0.4085400000000 1.0
C      1  0.3586230000000  0.4642680000000  0.4130310000000 1.0
C      1  0.7828630000000  0.4740860000000  0.6078510000000 1.0
C      1  0.2169730000000  0.5426720000000  0.6024120000000 1.0
C      1  0.7828450000000  0.5945890000000  0.5579650000000 1.0
C      1  0.2170200000000  0.6107740000000  0.4911860000000 1.0
C      1  0.7829730000000  0.5842470000000  0.4279590000000 1.0
C      1  0.2170710000000  0.5259860000000  0.3920830000000 1.0
C      1  0.7830300000000  0.4573980000000  0.3976290000000 1.0
C      1  0.2170760000000  0.4054790000000  0.4420080000000 1.0
C      1  0.7829180000000  0.3892860000000  0.5087870000000 1.0
C      1  0.2170120000000  0.4158870000000  0.5720070000000 1.0
C      1  0.4604210000000  0.4891660000000  0.7489210000000 1.0
C      1  0.5393950000000  0.6375740000000  0.7076230000000 1.0
C      1  0.4604610000000  0.7333920000000  0.5870900000000 1.0
C      1  0.5395190000000  0.7400420000000  0.4333110000000 1.0
C      1  0.4605890000000  0.6549740000000  0.3050900000000 1.0
C      1  0.5396010000000  0.5107720000000  0.2511000000000 1.0
C      1  0.4605940000000  0.3623940000000  0.2924120000000 1.0
C      1  0.5395830000000  0.2665780000000  0.4129000000000 1.0
C      1  0.4605170000000  0.2599610000000  0.5666750000000 1.0
C      1  0.5393900000000  0.3449810000000  0.6949710000000 1.0
C      1  0.2620110000000  0.3757100000000  0.5098210000000 1.0
C      1  0.7379390000000  0.4050870000000  0.5810550000000 1.0
C      1  0.2619080000000  0.4710720000000  0.6212840000000 1.0
C      1  0.7378740000000  0.5476930000000  0.6152470000000 1.0
C      1  0.2619700000000  0.6065500000000  0.5651040000000 1.0
C      1  0.7379210000000  0.6242960000000  0.4901530000000 1.0
C      1  0.2620280000000  0.5949460000000  0.4188790000000 1.0
C      1  0.7380930000000  0.5289630000000  0.3787250000000 1.0
C      1  0.2621040000000  0.4523220000000  0.3846420000000 1.0
C      1  0.7380440000000  0.3935140000000  0.4348750000000 1.0
C      1  0.5396510000000  0.5463780000000  0.7446370000000 1.0
C      1  0.4601630000000  0.6813810000000  0.6706570000000 1.0
C      1  0.5397740000000  0.7468660000000  0.5314810000000 1.0
C      1  0.4602320000000  0.7184130000000  0.3802890000000 1.0
C      1  0.5398580000000  0.6062280000000  0.2749490000000 1.0
C      1  0.4603950000000  0.4535910000000  0.2553540000000 1.0
C      1  0.5398370000000  0.3185770000000  0.3294270000000 1.0
C      1  0.4602260000000  0.2530490000000  0.4684640000000 1.0
C      1  0.5397750000000  0.2816300000000  0.6196610000000 1.0
C      1  0.4601380000000  0.3937280000000  0.7251270000000 1.0
C      1  0.4030840000000  0.4309210000000  0.3306670000000 1.0
C      1  0.5972760000000  0.3442360000000  0.4035320000000 1.0
C      1  0.4030100000000  0.3176310000000  0.5134670000000 1.0
C      1  0.5970440000000  0.3602590000000  0.6181200000000 1.0
C      1  0.4027820000000  0.4563980000000  0.6778690000000 1.0
C      1  0.5968670000000  0.5691160000000  0.6693250000000 1.0
C      1  0.4027750000000  0.6556440000000  0.5964450000000 1.0
C      1  0.5968980000000  0.6822790000000  0.4865110000000 1.0
C      1  0.4029750000000  0.6398320000000  0.3819390000000 1.0
C      1  0.5972390000000  0.5435410000000  0.3222390000000 1.0
END
