TITL C-1525613-7943-43 -0.0063328096844673 3375 -8640.88234267903 0 0 60 (C5) n - 1
REM
REM in /home/nfs/bkarasulu/CARBON/AIRSS/Generating-Clusters/ReaxFF-fromJPCA2015/Units_Real/Try2-Higher-symm/Only-C60
REM
REM
REM
REM
REM
REM ./C.cell (863b2abdce7293c0672fb3ba77bf323a)
REM AIRSS Version 0.9.1 bugfix July 2018 build 013d7b7c2542+ Fri, 06 Jul 2018 19:26:36 +0100
REM compiler GCC version 9.2.1 20190827 (Red Hat 9.2.1-1)
REM options -cpp -mtune=generic -march=x86-64 -g -O0 -fpre-include=/usr/include/finclude/math-vector-fortran.h
REM seed -1462358167 -1718227472 -8620014 144969157 278156342 2077027128 -1304936634 1966682040 648913608 -2114739556 -548460016 -15296090 -1806368900 2100759337 999696232 826503886 102828043 385730166 1395247716 -320008934 764297234 -1803036207 -153696327 16724349 322851395 -559263814 -1017418648 1759286386 -981410689 87516458 -540809801 -2033652494 -914844987
REM
CELL 1.54180   15.00000   15.00000   15.00000   90.00000   90.00000   90.00000
LATT -1
SFAC C  
C      1  0.3446900000000  0.4403690000000  0.6993420000000 1.0
C      1  0.5087940000000  0.3337770000000  0.6993450000000 1.0
C      1  0.6608680000000  0.4569410000000  0.6993480000000 1.0
C      1  0.5907150000000  0.6396040000000  0.6993360000000 1.0
C      1  0.3953370000000  0.6293390000000  0.6993470000000 1.0
C      1  0.3446900000000  0.4403690000000  0.3006580000000 1.0
C      1  0.5087940000000  0.3337770000000  0.3006550000000 1.0
C      1  0.6608680000000  0.4569410000000  0.3006520000000 1.0
C      1  0.5907150000000  0.6396040000000  0.3006640000000 1.0
C      1  0.3953370000000  0.6293390000000  0.3006530000000 1.0
C      1  0.5045090000000  0.4165150000000  0.7558690000000 1.0
C      1  0.5808550000000  0.4784130000000  0.7558800000000 1.0
C      1  0.5455840000000  0.5701480000000  0.7558920000000 1.0
C      1  0.4474410000000  0.5649460000000  0.7558970000000 1.0
C      1  0.4220510000000  0.4699980000000  0.7558790000000 1.0
C      1  0.5045090000000  0.4165150000000  0.2441310000000 1.0
C      1  0.5808550000000  0.4784130000000  0.2441210000000 1.0
C      1  0.5455840000000  0.5701480000000  0.2441080000000 1.0
C      1  0.4474410000000  0.5649460000000  0.2441030000000 1.0
C      1  0.4220510000000  0.4699980000000  0.2441210000000 1.0
C      1  0.4157030000000  0.4675370000000  0.5512860000000 1.0
C      1  0.5048730000000  0.4096900000000  0.5512950000000 1.0
C      1  0.5874320000000  0.4766640000000  0.5512930000000 1.0
C      1  0.5492590000000  0.5758360000000  0.5512810000000 1.0
C      1  0.4431650000000  0.5701900000000  0.5512820000000 1.0
C      1  0.4157030000000  0.4675370000000  0.4487140000000 1.0
C      1  0.5048730000000  0.4096900000000  0.4487050000000 1.0
C      1  0.5874320000000  0.4766640000000  0.4487070000000 1.0
C      1  0.5492590000000  0.5758360000000  0.4487190000000 1.0
C      1  0.4431650000000  0.5701900000000  0.4487180000000 1.0
C      1  0.2515270000000  0.4104010000000  0.4487550000000 1.0
C      1  0.5085110000000  0.2358980000000  0.4487570000000 1.0
C      1  0.7539280000000  0.4266760000000  0.4487560000000 1.0
C      1  0.6480060000000  0.7189310000000  0.4487570000000 1.0
C      1  0.3376850000000  0.7083790000000  0.4487550000000 1.0
C      1  0.2515270000000  0.4104010000000  0.5512450000000 1.0
C      1  0.5085110000000  0.2358980000000  0.5512430000000 1.0
C      1  0.7539280000000  0.4266760000000  0.5512440000000 1.0
C      1  0.6480060000000  0.7189310000000  0.5512430000000 1.0
C      1  0.3376850000000  0.7083790000000  0.5512450000000 1.0
C      1  0.3339610000000  0.4357600000000  0.6026930000000 1.0
C      1  0.5098690000000  0.3221340000000  0.6026950000000 1.0
C      1  0.6722570000000  0.4543900000000  0.6026950000000 1.0
C      1  0.5966470000000  0.6496430000000  0.6026860000000 1.0
C      1  0.3876340000000  0.6380750000000  0.6026940000000 1.0
C      1  0.3339600000000  0.4357600000000  0.3973070000000 1.0
C      1  0.5098690000000  0.3221340000000  0.3973050000000 1.0
C      1  0.6722570000000  0.4543900000000  0.3973050000000 1.0
C      1  0.5966470000000  0.6496430000000  0.3973140000000 1.0
C      1  0.3876340000000  0.6380750000000  0.3973060000000 1.0
C      1  0.5784070000000  0.1707700000000  0.4559730000000 1.0
C      1  0.8372870000000  0.4733490000000  0.4559770000000 1.0
C      1  0.6289730000000  0.8125550000000  0.4559800000000 1.0
C      1  0.2427770000000  0.7193040000000  0.4559790000000 1.0
C      1  0.2112560000000  0.3237690000000  0.4559750000000 1.0
C      1  0.5784070000000  0.1707700000000  0.5440270000000 1.0
C      1  0.8372870000000  0.4733490000000  0.5440240000000 1.0
C      1  0.6289730000000  0.8125550000000  0.5440200000000 1.0
C      1  0.2427770000000  0.7193040000000  0.5440210000000 1.0
C      1  0.2112560000000  0.3237690000000  0.5440250000000 1.0
END
