TITL C-1525613-7943-596 0.652090294882241 3375 -8340.42233786759 0 0 60 (S10) n - 1
REM
REM in /home/nfs/bkarasulu/CARBON/AIRSS/Generating-Clusters/ReaxFF-fromJPCA2015/Units_Real/Try2-Higher-symm/Only-C60
REM
REM
REM
REM
REM
REM ./C.cell (863b2abdce7293c0672fb3ba77bf323a)
REM AIRSS Version 0.9.1 bugfix July 2018 build 013d7b7c2542+ Fri, 06 Jul 2018 19:26:36 +0100
REM compiler GCC version 9.2.1 20190827 (Red Hat 9.2.1-1)
REM options -cpp -mtune=generic -march=x86-64 -g -O0 -fpre-include=/usr/include/finclude/math-vector-fortran.h
REM seed 2145001849 1309793657 255766151 900058112 -375952937 1818503226 1295422177 242571557 -1965089886 684974496 973186087 276741727 -848781305 1977449568 -1773215209 -197704559 240637239 -1406865361 -1970165179 -1328177900 -1340794327 174524108 -65933643 -651122293 -1064916859 -459341412 -63923714 1296810085 642774618 1605396689 137685282 -1347956128 -55242833
REM
CELL 1.54180   15.00000   15.00000   15.00000   90.00000   90.00000   90.00000
LATT -1
SFAC C  
C      1  0.5957210000000  0.6287570000000  0.6353000000000 1.0
C      1  0.5022680000000  0.6593740000000  0.3639410000000 1.0
C      1  0.4087150000000  0.6296050000000  0.6357110000000 1.0
C      1  0.3508990000000  0.5502720000000  0.3642220000000 1.0
C      1  0.3497240000000  0.4532610000000  0.6362210000000 1.0
C      1  0.4042810000000  0.3712930000000  0.3646610000000 1.0
C      1  0.4977190000000  0.3406030000000  0.6360530000000 1.0
C      1  0.5912880000000  0.3704440000000  0.3642410000000 1.0
C      1  0.6488210000000  0.4497800000000  0.6360530000000 1.0
C      1  0.6505960000000  0.5468770000000  0.3640130000000 1.0
C      1  0.2882420000000  0.4202250000000  0.5617300000000 1.0
C      1  0.3752430000000  0.3106230000000  0.4375530000000 1.0
C      1  0.5080080000000  0.2736530000000  0.5638840000000 1.0
C      1  0.6400890000000  0.3232690000000  0.4374160000000 1.0
C      1  0.7178520000000  0.4392350000000  0.5619930000000 1.0
C      1  0.7116850000000  0.5799110000000  0.4381390000000 1.0
C      1  0.6247340000000  0.6893510000000  0.5624530000000 1.0
C      1  0.4919800000000  0.7263250000000  0.4361370000000 1.0
C      1  0.3599390000000  0.6767080000000  0.5625810000000 1.0
C      1  0.2822130000000  0.5608340000000  0.4380050000000 1.0
C      1  0.6329860000000  0.4562990000000  0.3300830000000 1.0
C      1  0.6325080000000  0.5434580000000  0.6693180000000 1.0
C      1  0.5826430000000  0.6129250000000  0.3298280000000 1.0
C      1  0.5006030000000  0.6394890000000  0.6695570000000 1.0
C      1  0.4180180000000  0.6133280000000  0.3301950000000 1.0
C      1  0.3669860000000  0.5436560000000  0.6699130000000 1.0
C      1  0.3675130000000  0.4565200000000  0.3306910000000 1.0
C      1  0.4173100000000  0.3871020000000  0.6701580000000 1.0
C      1  0.4993870000000  0.3605090000000  0.3304450000000 1.0
C      1  0.5819910000000  0.3866420000000  0.6698100000000 1.0
C      1  0.6280930000000  0.5207900000000  0.5176910000000 1.0
C      1  0.5900100000000  0.5903800000000  0.4822040000000 1.0
C      1  0.5169840000000  0.6223840000000  0.5166130000000 1.0
C      1  0.4394420000000  0.6121580000000  0.4827250000000 1.0
C      1  0.3848550000000  0.5558910000000  0.5164840000000 1.0
C      1  0.3720190000000  0.4786760000000  0.4827790000000 1.0
C      1  0.4098410000000  0.4094370000000  0.5177980000000 1.0
C      1  0.4829870000000  0.3776640000000  0.4834010000000 1.0
C      1  0.5605940000000  0.3878480000000  0.5172400000000 1.0
C      1  0.6151720000000  0.4440910000000  0.4835680000000 1.0
C      1  0.4613750000000  0.2812500000000  0.4770060000000 1.0
C      1  0.5934690000000  0.2944690000000  0.5209630000000 1.0
C      1  0.6971540000000  0.3919640000000  0.4770760000000 1.0
C      1  0.7247360000000  0.5291700000000  0.5217600000000 1.0
C      1  0.6635530000000  0.6556630000000  0.4792960000000 1.0
C      1  0.5386440000000  0.7187220000000  0.5230020000000 1.0
C      1  0.4065290000000  0.7055280000000  0.4790540000000 1.0
C      1  0.3026620000000  0.6079700000000  0.5226690000000 1.0
C      1  0.2751620000000  0.4713720000000  0.4777670000000 1.0
C      1  0.3367330000000  0.3442270000000  0.5205580000000 1.0
C      1  0.4161090000000  0.5139030000000  0.7479800000000 1.0
C      1  0.4239370000000  0.4617040000000  0.2520550000000 1.0
C      1  0.4610740000000  0.4247490000000  0.7481390000000 1.0
C      1  0.5128190000000  0.4157630000000  0.2521260000000 1.0
C      1  0.5598820000000  0.4395700000000  0.7478720000000 1.0
C      1  0.5839320000000  0.4860720000000  0.2520380000000 1.0
C      1  0.5760410000000  0.5382850000000  0.7479640000000 1.0
C      1  0.5389540000000  0.5752910000000  0.2518740000000 1.0
C      1  0.4871750000000  0.5842220000000  0.7478690000000 1.0
C      1  0.4401020000000  0.5604590000000  0.2521280000000 1.0
END
