TITL C-1525613-7943-1664 -0.0238019326227109 3375 -8649.22862891581 0 0 60 (Ci) n - 1
REM
REM in /home/nfs/bkarasulu/CARBON/AIRSS/Generating-Clusters/ReaxFF-fromJPCA2015/Units_Real/Try2-Higher-symm/Only-C60
REM
REM
REM
REM
REM
REM ./C.cell (863b2abdce7293c0672fb3ba77bf323a)
REM AIRSS Version 0.9.1 bugfix July 2018 build 013d7b7c2542+ Fri, 06 Jul 2018 19:26:36 +0100
REM compiler GCC version 9.2.1 20190827 (Red Hat 9.2.1-1)
REM options -cpp -mtune=generic -march=x86-64 -g -O0 -fpre-include=/usr/include/finclude/math-vector-fortran.h
REM seed 1023070267 -384935433 -328588793 -1056607480 -1502003140 -375117512 -1591658199 44787581 -1260615463 626376241 -977715936 2095012995 802661808 -1547502561 -1701628541 -593876589 -1378414291 -414557328 1710884934 -2077393195 -1782654079 -895439959 -1950664942 560525824 -2138913646 1290311242 -819922310 384089640 -563760856 1369237034 1289820353 -611942389 2012784846
REM
CELL 1.54180   15.00000   15.00000   15.00000   90.00000   90.00000   90.00000
LATT -1
SFAC C  
C      1  0.3520870000000  0.3130840000000  0.5519630000000 1.0
C      1  0.4904640000000  0.2627110000000  0.4487840000000 1.0
C      1  0.6325330000000  0.3007270000000  0.5508780000000 1.0
C      1  0.7242350000000  0.4164480000000  0.4479990000000 1.0
C      1  0.7294900000000  0.5637350000000  0.5507990000000 1.0
C      1  0.6480100000000  0.6868960000000  0.4480620000000 1.0
C      1  0.5098270000000  0.7378680000000  0.5516110000000 1.0
C      1  0.3676950000000  0.6993600000000  0.4492780000000 1.0
C      1  0.2758400000000  0.5836030000000  0.5520540000000 1.0
C      1  0.2704350000000  0.4363120000000  0.4491930000000 1.0
C      1  0.5774950000000  0.5350690000000  0.7094500000000 1.0
C      1  0.5423910000000  0.5752640000000  0.2895690000000 1.0
C      1  0.4895390000000  0.5844350000000  0.7100280000000 1.0
C      1  0.4423230000000  0.5638120000000  0.2909370000000 1.0
C      1  0.4152630000000  0.5163310000000  0.7101690000000 1.0
C      1  0.4225120000000  0.4649730000000  0.2906460000000 1.0
C      1  0.4576010000000  0.4247880000000  0.7104630000000 1.0
C      1  0.5104940000000  0.4156320000000  0.2899270000000 1.0
C      1  0.5576580000000  0.4362240000000  0.7091390000000 1.0
C      1  0.5847590000000  0.4837250000000  0.2898600000000 1.0
C      1  0.2755030000000  0.5024660000000  0.6011400000000 1.0
C      1  0.3184500000000  0.3710650000000  0.3999030000000 1.0
C      1  0.4291180000000  0.2875350000000  0.6010090000000 1.0
C      1  0.5673130000000  0.2870750000000  0.3989150000000 1.0
C      1  0.6796970000000  0.3666230000000  0.6000790000000 1.0
C      1  0.7245050000000  0.4975350000000  0.3988920000000 1.0
C      1  0.6813490000000  0.6289180000000  0.6000670000000 1.0
C      1  0.5708580000000  0.7123920000000  0.3991740000000 1.0
C      1  0.4328490000000  0.7129800000000  0.6011140000000 1.0
C      1  0.3204070000000  0.6335130000000  0.4000750000000 1.0
C      1  0.6524050000000  0.3313220000000  0.4578950000000 1.0
C      1  0.7216340000000  0.4528770000000  0.5409500000000 1.0
C      1  0.7066250000000  0.5918270000000  0.4578020000000 1.0
C      1  0.6119640000000  0.6948640000000  0.5408420000000 1.0
C      1  0.4759400000000  0.7249200000000  0.4585720000000 1.0
C      1  0.3477970000000  0.6686300000000  0.5422280000000 1.0
C      1  0.2781890000000  0.5472810000000  0.4590190000000 1.0
C      1  0.2934320000000  0.4082830000000  0.5421650000000 1.0
C      1  0.3877310000000  0.3049720000000  0.4591000000000 1.0
C      1  0.5242380000000  0.2747280000000  0.5418660000000 1.0
C      1  0.6262430000000  0.4750430000000  0.5190330000000 1.0
C      1  0.6158550000000  0.5530920000000  0.4758120000000 1.0
C      1  0.5615340000000  0.6107580000000  0.5183400000000 1.0
C      1  0.4833730000000  0.6265990000000  0.4770690000000 1.0
C      1  0.4120510000000  0.5946640000000  0.5208570000000 1.0
C      1  0.3735570000000  0.5249980000000  0.4808920000000 1.0
C      1  0.3841880000000  0.4469800000000  0.5239820000000 1.0
C      1  0.4381370000000  0.3891080000000  0.4812510000000 1.0
C      1  0.5163260000000  0.3727180000000  0.5219070000000 1.0
C      1  0.5878680000000  0.4051210000000  0.4790310000000 1.0
C      1  0.5744610000000  0.6432990000000  0.3423490000000 1.0
C      1  0.4757460000000  0.6580130000000  0.6568900000000 1.0
C      1  0.3876590000000  0.6152350000000  0.3440570000000 1.0
C      1  0.3406870000000  0.5266980000000  0.6573950000000 1.0
C      1  0.3571290000000  0.4289620000000  0.3440120000000 1.0
C      1  0.4255620000000  0.3567020000000  0.6577200000000 1.0
C      1  0.5244760000000  0.3420820000000  0.3430670000000 1.0
C      1  0.6123380000000  0.3848100000000  0.6560360000000 1.0
C      1  0.6593240000000  0.4733020000000  0.3426700000000 1.0
C      1  0.6428330000000  0.5710120000000  0.6560140000000 1.0
END
