TITL C-1525613-7943-6928 0.0693890058890268 3375 -8474.31430720986 0 0 60 (C1) n - 1
REM
REM in /home/nfs/bkarasulu/CARBON/AIRSS/Generating-Clusters/ReaxFF-fromJPCA2015/Units_Real/Try2-Higher-symm/Only-C60
REM
REM
REM
REM
REM
REM ./C.cell (863b2abdce7293c0672fb3ba77bf323a)
REM AIRSS Version 0.9.1 bugfix July 2018 build 013d7b7c2542+ Fri, 06 Jul 2018 19:26:36 +0100
REM compiler GCC version 9.2.1 20190827 (Red Hat 9.2.1-1)
REM options -cpp -mtune=generic -march=x86-64 -g -O0 -fpre-include=/usr/include/finclude/math-vector-fortran.h
REM seed 722390043 -1520900583 1850247932 1804692897 -1708925575 1673109922 524718192 175567654 1296641988 -2379382 -1759236845 1922524725 1522362942 976603708 -1839468812 2001313891 1679557118 657937753 -342608187 1846173607 2139058031 -1390393789 -14501412 1418139017 -1826953776 -1024152373 -1020871128 -1828878038 -160785043 -1551957230 -1330302774 -506228481 1764999788
REM
CELL 1.54180   15.00000   15.00000   15.00000   90.00000   90.00000   90.00000
LATT -1
SFAC C  
C      1  0.4143150000000  0.4810190000000  0.5558260000000 1.0
C      1  0.4989180000000  0.4199560000000  0.5484490000000 1.0
C      1  0.5838350000000  0.4700870000000  0.5503210000000 1.0
C      1  0.5504890000000  0.5678110000000  0.5520390000000 1.0
C      1  0.4485360000000  0.5756130000000  0.5473640000000 1.0
C      1  0.5854220000000  0.4772650000000  0.4463000000000 1.0
C      1  0.5023910000000  0.4182900000000  0.4528470000000 1.0
C      1  0.4162340000000  0.4681490000000  0.4493710000000 1.0
C      1  0.4502230000000  0.5613600000000  0.4530540000000 1.0
C      1  0.5451980000000  0.5703090000000  0.4527870000000 1.0
C      1  0.6491310000000  0.6628350000000  0.6036440000000 1.0
C      1  0.3936420000000  0.6905800000000  0.6011450000000 1.0
C      1  0.3231220000000  0.4723240000000  0.5995670000000 1.0
C      1  0.4716700000000  0.2824690000000  0.6026690000000 1.0
C      1  0.6981850000000  0.4117810000000  0.6004300000000 1.0
C      1  0.3536470000000  0.6602540000000  0.3974980000000 1.0
C      1  0.6064910000000  0.6911020000000  0.3971200000000 1.0
C      1  0.6808440000000  0.4712690000000  0.3985910000000 1.0
C      1  0.5279550000000  0.2835590000000  0.3972830000000 1.0
C      1  0.3009190000000  0.4112180000000  0.3981210000000 1.0
C      1  0.5642900000000  0.6679220000000  0.6433700000000 1.0
C      1  0.3591770000000  0.6132390000000  0.6416970000000 1.0
C      1  0.3535800000000  0.3919800000000  0.6389370000000 1.0
C      1  0.5441610000000  0.3251810000000  0.6421700000000 1.0
C      1  0.6779790000000  0.4933500000000  0.6436940000000 1.0
C      1  0.4377250000000  0.6640370000000  0.3581920000000 1.0
C      1  0.6390450000000  0.6127230000000  0.3597110000000 1.0
C      1  0.6457040000000  0.3924030000000  0.3609800000000 1.0
C      1  0.4554840000000  0.3267790000000  0.3584600000000 1.0
C      1  0.3217650000000  0.4933250000000  0.3558860000000 1.0
C      1  0.5233670000000  0.4182400000000  0.6871890000000 1.0
C      1  0.5810770000000  0.4948930000000  0.6887880000000 1.0
C      1  0.5247380000000  0.5739800000000  0.6882380000000 1.0
C      1  0.4327320000000  0.5451680000000  0.6844920000000 1.0
C      1  0.4297910000000  0.4478500000000  0.6842960000000 1.0
C      1  0.4762100000000  0.4201180000000  0.3132100000000 1.0
C      1  0.4188570000000  0.4972420000000  0.3105050000000 1.0
C      1  0.4756190000000  0.5747190000000  0.3131430000000 1.0
C      1  0.5675660000000  0.5469720000000  0.3151520000000 1.0
C      1  0.5693700000000  0.4489570000000  0.3152440000000 1.0
C      1  0.4077320000000  0.2658070000000  0.5354980000000 1.0
C      1  0.6838960000000  0.3399390000000  0.5403630000000 1.0
C      1  0.7117840000000  0.6362420000000  0.5392050000000 1.0
C      1  0.4429900000000  0.7394700000000  0.5389250000000 1.0
C      1  0.2651780000000  0.5188450000000  0.5350780000000 1.0
C      1  0.5916570000000  0.2657510000000  0.4644380000000 1.0
C      1  0.3154100000000  0.3400050000000  0.4593120000000 1.0
C      1  0.2894130000000  0.6353980000000  0.4620410000000 1.0
C      1  0.5580310000000  0.7402790000000  0.4604510000000 1.0
C      1  0.7344150000000  0.5206520000000  0.4640730000000 1.0
C      1  0.2795430000000  0.5431650000000  0.4355310000000 1.0
C      1  0.3957510000000  0.2962240000000  0.4321510000000 1.0
C      1  0.6562780000000  0.3296650000000  0.4347360000000 1.0
C      1  0.7077580000000  0.6077060000000  0.4318260000000 1.0
C      1  0.4698280000000  0.7247760000000  0.4288200000000 1.0
C      1  0.7189700000000  0.5442170000000  0.5636040000000 1.0
C      1  0.6036850000000  0.2956770000000  0.5678180000000 1.0
C      1  0.3432200000000  0.3299000000000  0.5648520000000 1.0
C      1  0.2932200000000  0.6053780000000  0.5656310000000 1.0
C      1  0.5318360000000  0.7245740000000  0.5678650000000 1.0
END
