TITL C-1525613-7943-2708 0.549428422847927 3375 -7933.91049770519 0 0 60 (C1) n - 1
REM
REM in /home/nfs/bkarasulu/CARBON/AIRSS/Generating-Clusters/ReaxFF-fromJPCA2015/Units_Real/Try2-Higher-symm/Only-C60
REM
REM
REM
REM
REM
REM ./C.cell (863b2abdce7293c0672fb3ba77bf323a)
REM AIRSS Version 0.9.1 bugfix July 2018 build 013d7b7c2542+ Fri, 06 Jul 2018 19:26:36 +0100
REM compiler GCC version 9.2.1 20190827 (Red Hat 9.2.1-1)
REM options -cpp -mtune=generic -march=x86-64 -g -O0 -fpre-include=/usr/include/finclude/math-vector-fortran.h
REM seed -220907811 -2055647681 1277630859 -736811861 1554046153 1712115983 784222201 -964957206 -1892708158 -1714840011 1263364547 1679377199 -1071354158 -884293009 1320332154 1784587412 -1281752595 -806877392 1072761401 -1393590650 -205812152 -472256936 2054541891 1623912079 -751422891 -1133868187 -88756156 100378838 -1156083572 650928937 -332799491 -1836832333 273567059
REM
CELL 1.54180   15.00000   15.00000   15.00000   90.00000   90.00000   90.00000
LATT -1
SFAC C  
C      1  0.4499510000000  0.5358370000000  0.3102190000000 1.0
C      1  0.4627050000000  0.6641350000000  0.3876130000000 1.0
C      1  0.4427730000000  0.6926350000000  0.4809090000000 1.0
C      1  0.4434990000000  0.6731840000000  0.5831000000000 1.0
C      1  0.4730540000000  0.5628700000000  0.7154160000000 1.0
C      1  0.4507050000000  0.4642050000000  0.6852550000000 1.0
C      1  0.4621140000000  0.3385240000000  0.6123070000000 1.0
C      1  0.4411890000000  0.3081940000000  0.5193900000000 1.0
C      1  0.4425960000000  0.3254830000000  0.4172050000000 1.0
C      1  0.4728390000000  0.4365420000000  0.2841620000000 1.0
C      1  0.5229140000000  0.6763800000000  0.6339240000000 1.0
C      1  0.5614450000000  0.5744210000000  0.7478280000000 1.0
C      1  0.5245810000000  0.4051570000000  0.7085230000000 1.0
C      1  0.5490040000000  0.2750290000000  0.6215130000000 1.0
C      1  0.5424960000000  0.2527820000000  0.5209190000000 1.0
C      1  0.5223810000000  0.3245610000000  0.3665880000000 1.0
C      1  0.5616920000000  0.4260810000000  0.2524280000000 1.0
C      1  0.5246130000000  0.5949650000000  0.2920200000000 1.0
C      1  0.5518190000000  0.7241270000000  0.3782320000000 1.0
C      1  0.5432920000000  0.7475200000000  0.4792490000000 1.0
C      1  0.7211490000000  0.3459420000000  0.4895230000000 1.0
C      1  0.7080600000000  0.3789770000000  0.3998700000000 1.0
C      1  0.7201550000000  0.4597040000000  0.3480770000000 1.0
C      1  0.7144890000000  0.5562720000000  0.3520630000000 1.0
C      1  0.7265630000000  0.6271400000000  0.4179020000000 1.0
C      1  0.7202810000000  0.6548100000000  0.5101470000000 1.0
C      1  0.7085620000000  0.6215630000000  0.5997650000000 1.0
C      1  0.7201940000000  0.5409270000000  0.6521080000000 1.0
C      1  0.7143060000000  0.4438780000000  0.6480910000000 1.0
C      1  0.7247180000000  0.3734810000000  0.5819310000000 1.0
C      1  0.6265060000000  0.3659940000000  0.5847440000000 1.0
C      1  0.6207110000000  0.3367600000000  0.4932210000000 1.0
C      1  0.6057600000000  0.3800790000000  0.4037890000000 1.0
C      1  0.6194730000000  0.4604840000000  0.3371690000000 1.0
C      1  0.6131980000000  0.5609300000000  0.3520290000000 1.0
C      1  0.6271560000000  0.6348630000000  0.4155500000000 1.0
C      1  0.6207210000000  0.6642580000000  0.5073570000000 1.0
C      1  0.6067100000000  0.6210200000000  0.5968610000000 1.0
C      1  0.6195640000000  0.5403830000000  0.6631320000000 1.0
C      1  0.6135840000000  0.4385360000000  0.6485340000000 1.0
C      1  0.3079360000000  0.2946490000000  0.6229690000000 1.0
C      1  0.2991090000000  0.2742050000000  0.4521980000000 1.0
C      1  0.3117670000000  0.3644880000000  0.3076580000000 1.0
C      1  0.3108940000000  0.4601310000000  0.2821330000000 1.0
C      1  0.3119490000000  0.6319830000000  0.3156110000000 1.0
C      1  0.3086680000000  0.7055820000000  0.3771110000000 1.0
C      1  0.2997980000000  0.7221920000000  0.5475120000000 1.0
C      1  0.3122480000000  0.6341100000000  0.6934070000000 1.0
C      1  0.3120570000000  0.5386300000000  0.7195080000000 1.0
C      1  0.3116420000000  0.3683160000000  0.6840960000000 1.0
C      1  0.3836980000000  0.5984500000000  0.7462250000000 1.0
C      1  0.3521010000000  0.4548580000000  0.6920760000000 1.0
C      1  0.3851220000000  0.3141250000000  0.6678290000000 1.0
C      1  0.3413880000000  0.2763810000000  0.5331220000000 1.0
C      1  0.3460050000000  0.3085480000000  0.3814740000000 1.0
C      1  0.3828380000000  0.4008450000000  0.2548000000000 1.0
C      1  0.3511970000000  0.5448830000000  0.3064960000000 1.0
C      1  0.3856440000000  0.6870100000000  0.3317680000000 1.0
C      1  0.3419420000000  0.7235930000000  0.4669370000000 1.0
C      1  0.3464780000000  0.6883880000000  0.6184080000000 1.0
END
