TITL C-1525613-7943-3715 -0.0110325570555293 3375 -8347.13885582913 0 0 60 (C1) n - 1
REM
REM in /home/nfs/bkarasulu/CARBON/AIRSS/Generating-Clusters/ReaxFF-fromJPCA2015/Units_Real/Try2-Higher-symm/Only-C60
REM
REM
REM
REM
REM
REM ./C.cell (863b2abdce7293c0672fb3ba77bf323a)
REM AIRSS Version 0.9.1 bugfix July 2018 build 013d7b7c2542+ Fri, 06 Jul 2018 19:26:36 +0100
REM compiler GCC version 9.2.1 20190827 (Red Hat 9.2.1-1)
REM options -cpp -mtune=generic -march=x86-64 -g -O0 -fpre-include=/usr/include/finclude/math-vector-fortran.h
REM seed 1297544185 -1098174332 -252458314 86831530 1227165963 -563020639 1538134833 -685866419 1429363681 -104625882 1035851509 1335754388 -692902784 1312174895 -2075992140 -266991312 -1374274323 -1436650685 382335679 1289051214 1294503164 2135732371 638382977 154057073 -1993031699 835459030 2113420697 -380290325 656829871 -17812791 426875151 -1145239648 -758116380
REM
CELL 1.54180   15.00000   15.00000   15.00000   90.00000   90.00000   90.00000
LATT -1
SFAC C  
C      1  0.3946550000000  0.6328890000000  0.5254050000000 1.0
C      1  0.3955100000000  0.4993220000000  0.6299660000000 1.0
C      1  0.4063810000000  0.3481150000000  0.5539900000000 1.0
C      1  0.3718370000000  0.3633630000000  0.4006000000000 1.0
C      1  0.3842720000000  0.6071620000000  0.3629410000000 1.0
C      1  0.6022240000000  0.6331170000000  0.5422050000000 1.0
C      1  0.6034790000000  0.5061320000000  0.6477660000000 1.0
C      1  0.6084040000000  0.3697410000000  0.5547610000000 1.0
C      1  0.6016720000000  0.4085630000000  0.3929190000000 1.0
C      1  0.6030630000000  0.5781260000000  0.3852930000000 1.0
C      1  0.6173370000000  0.6423990000000  0.3062980000000 1.0
C      1  0.6031490000000  0.7298710000000  0.5778620000000 1.0
C      1  0.6044100000000  0.5063950000000  0.7510920000000 1.0
C      1  0.6251670000000  0.2731080000000  0.5857690000000 1.0
C      1  0.6017670000000  0.3485350000000  0.3086250000000 1.0
C      1  0.4013860000000  0.6738060000000  0.2869390000000 1.0
C      1  0.3846720000000  0.7282470000000  0.5631690000000 1.0
C      1  0.3872810000000  0.5018030000000  0.7325830000000 1.0
C      1  0.4139260000000  0.2517850000000  0.5883400000000 1.0
C      1  0.3730660000000  0.3672810000000  0.3063590000000 1.0
C      1  0.5416840000000  0.4862520000000  0.2730780000000 1.0
C      1  0.5582860000000  0.7212280000000  0.4228580000000 1.0
C      1  0.5374490000000  0.6450010000000  0.6843300000000 1.0
C      1  0.5489910000000  0.3717700000000  0.7049100000000 1.0
C      1  0.5657520000000  0.2664910000000  0.4465970000000 1.0
C      1  0.4463330000000  0.4938760000000  0.2631650000000 1.0
C      1  0.4605230000000  0.7294150000000  0.4163220000000 1.0
C      1  0.4398740000000  0.6425350000000  0.6733560000000 1.0
C      1  0.4508310000000  0.3703270000000  0.7005600000000 1.0
C      1  0.4686290000000  0.2521830000000  0.4449390000000 1.0
C      1  0.3155530000000  0.6766540000000  0.2663600000000 1.0
C      1  0.2983500000000  0.7279780000000  0.5461450000000 1.0
C      1  0.3007870000000  0.5152050000000  0.7275530000000 1.0
C      1  0.3273210000000  0.2486540000000  0.6049770000000 1.0
C      1  0.3432510000000  0.4419990000000  0.3594880000000 1.0
C      1  0.6657250000000  0.6272960000000  0.2344110000000 1.0
C      1  0.6907870000000  0.7331340000000  0.5709220000000 1.0
C      1  0.6916480000000  0.5189070000000  0.7516960000000 1.0
C      1  0.7110630000000  0.2896310000000  0.5968160000000 1.0
C      1  0.6526860000000  0.2777800000000  0.2918410000000 1.0
C      1  0.4698740000000  0.7465350000000  0.3204230000000 1.0
C      1  0.4405460000000  0.7376620000000  0.6520640000000 1.0
C      1  0.4470860000000  0.4278850000000  0.7789520000000 1.0
C      1  0.4766990000000  0.1959410000000  0.5243460000000 1.0
C      1  0.4393490000000  0.3997250000000  0.2419610000000 1.0
C      1  0.5649160000000  0.7327710000000  0.3265060000000 1.0
C      1  0.5365480000000  0.7393440000000  0.6590850000000 1.0
C      1  0.5431770000000  0.4278760000000  0.7847480000000 1.0
C      1  0.5723930000000  0.2066080000000  0.5233120000000 1.0
C      1  0.5368110000000  0.3951710000000  0.2413310000000 1.0
C      1  0.5659840000000  0.6294810000000  0.4542220000000 1.0
C      1  0.5629150000000  0.5840570000000  0.6132400000000 1.0
C      1  0.5692280000000  0.4207090000000  0.6236340000000 1.0
C      1  0.5706030000000  0.3619910000000  0.4669900000000 1.0
C      1  0.5842850000000  0.4922970000000  0.3592610000000 1.0
C      1  0.4319510000000  0.6395150000000  0.4386230000000 1.0
C      1  0.4286190000000  0.5825090000000  0.5988880000000 1.0
C      1  0.4344600000000  0.4133720000000  0.6160220000000 1.0
C      1  0.4367900000000  0.3427610000000  0.4627430000000 1.0
C      1  0.3885850000000  0.5177120000000  0.3304430000000 1.0
END
