TITL C-1525613-7943-5284 0.130744271954032 3375 -9144.73998146019 0 0 60 (C2) n - 1
REM
REM in /home/nfs/bkarasulu/CARBON/AIRSS/Generating-Clusters/ReaxFF-fromJPCA2015/Units_Real/Try2-Higher-symm/Only-C60
REM
REM
REM
REM
REM
REM ./C.cell (863b2abdce7293c0672fb3ba77bf323a)
REM AIRSS Version 0.9.1 bugfix July 2018 build 013d7b7c2542+ Fri, 06 Jul 2018 19:26:36 +0100
REM compiler GCC version 9.2.1 20190827 (Red Hat 9.2.1-1)
REM options -cpp -mtune=generic -march=x86-64 -g -O0 -fpre-include=/usr/include/finclude/math-vector-fortran.h
REM seed -1146448259 1982520720 -914904905 -156218370 -668789948 -1859314729 847606393 -480014977 -185514884 -1649079284 5903145 -289932735 1101188421 -1195498505 659112629 806128625 -372123327 -1291562711 1182617495 998783691 1663640612 -2019291764 -626699900 -1225814308 1503258416 531747489 -744227354 -596294680 566884171 -1387540882 2089634328 -265715231 218255373
REM
CELL 1.54180   15.00000   15.00000   15.00000   90.00000   90.00000   90.00000
LATT -1
SFAC C  
C      1  0.6603600000000  0.3870750000000  0.3419820000000 1.0
C      1  0.5955520000000  0.4033210000000  0.2659150000000 1.0
C      1  0.4960450000000  0.3873210000000  0.2746210000000 1.0
C      1  0.2868700000000  0.3767870000000  0.3553090000000 1.0
C      1  0.2476130000000  0.3777840000000  0.4533010000000 1.0
C      1  0.3396560000000  0.3871420000000  0.6579710000000 1.0
C      1  0.4044610000000  0.4033970000000  0.7340410000000 1.0
C      1  0.5039680000000  0.3873970000000  0.7253130000000 1.0
C      1  0.7130940000000  0.3767940000000  0.6446790000000 1.0
C      1  0.7523670000000  0.3778310000000  0.5466900000000 1.0
C      1  0.7920060000000  0.4618020000000  0.5189020000000 1.0
C      1  0.7249710000000  0.4588230000000  0.3513470000000 1.0
C      1  0.6195490000000  0.4782460000000  0.2081750000000 1.0
C      1  0.4442150000000  0.4593310000000  0.2356140000000 1.0
C      1  0.2797830000000  0.4611080000000  0.3086440000000 1.0
C      1  0.2080260000000  0.4617840000000  0.4811070000000 1.0
C      1  0.2749700000000  0.4588400000000  0.6486500000000 1.0
C      1  0.3804510000000  0.4782660000000  0.7918590000000 1.0
C      1  0.5558460000000  0.4593530000000  0.7643850000000 1.0
C      1  0.7201650000000  0.4611290000000  0.6913380000000 1.0
C      1  0.6574370000000  0.6073150000000  0.3135050000000 1.0
C      1  0.5188520000000  0.6077900000000  0.2563320000000 1.0
C      1  0.3737110000000  0.6018780000000  0.2930900000000 1.0
C      1  0.2768300000000  0.5988260000000  0.4082300000000 1.0
C      1  0.2649370000000  0.6016940000000  0.5584760000000 1.0
C      1  0.3425710000000  0.6073180000000  0.6865130000000 1.0
C      1  0.4811550000000  0.6078000000000  0.7436830000000 1.0
C      1  0.6263080000000  0.6019340000000  0.7069430000000 1.0
C      1  0.7231840000000  0.5988470000000  0.5917850000000 1.0
C      1  0.7350530000000  0.6016750000000  0.4415410000000 1.0
C      1  0.4882090000000  0.6504750000000  0.6569440000000 1.0
C      1  0.5824660000000  0.6479630000000  0.6339210000000 1.0
C      1  0.6449530000000  0.6453090000000  0.5595360000000 1.0
C      1  0.6526460000000  0.6478090000000  0.4626610000000 1.0
C      1  0.6015860000000  0.6501150000000  0.3801100000000 1.0
C      1  0.5118000000000  0.6504840000000  0.3430620000000 1.0
C      1  0.4175450000000  0.6479330000000  0.3661020000000 1.0
C      1  0.3550570000000  0.6452910000000  0.4404840000000 1.0
C      1  0.3473530000000  0.6478110000000  0.5373560000000 1.0
C      1  0.3984240000000  0.6501020000000  0.6199000000000 1.0
C      1  0.6657630000000  0.3390580000000  0.5168780000000 1.0
C      1  0.6269210000000  0.3349600000000  0.4240120000000 1.0
C      1  0.5408810000000  0.3304940000000  0.3988510000000 1.0
C      1  0.4619620000000  0.3348900000000  0.3564350000000 1.0
C      1  0.3695770000000  0.3377820000000  0.3947350000000 1.0
C      1  0.3342030000000  0.3390110000000  0.4830920000000 1.0
C      1  0.3730740000000  0.3349920000000  0.5759700000000 1.0
C      1  0.4591050000000  0.3305000000000  0.6011250000000 1.0
C      1  0.5380170000000  0.3349240000000  0.6435430000000 1.0
C      1  0.6304200000000  0.3377730000000  0.6052470000000 1.0
C      1  0.2232390000000  0.5602550000000  0.4804970000000 1.0
C      1  0.2679980000000  0.5582080000000  0.6459110000000 1.0
C      1  0.3919040000000  0.5747770000000  0.7636920000000 1.0
C      1  0.5627110000000  0.5587790000000  0.7672220000000 1.0
C      1  0.7103090000000  0.5598810000000  0.6805350000000 1.0
C      1  0.7767680000000  0.5602830000000  0.5195250000000 1.0
C      1  0.7319920000000  0.5581820000000  0.3541040000000 1.0
C      1  0.6081050000000  0.5747370000000  0.2363270000000 1.0
C      1  0.4373120000000  0.5587520000000  0.2327930000000 1.0
C      1  0.2896940000000  0.5598610000000  0.3194880000000 1.0
END
