TITL C-1525613-7943-2777 0.00907193519672805 3375 -8630.56201696078 0 0 60 (C1) n - 1
REM
REM in /home/nfs/bkarasulu/CARBON/AIRSS/Generating-Clusters/ReaxFF-fromJPCA2015/Units_Real/Try2-Higher-symm/Only-C60
REM
REM
REM
REM
REM
REM ./C.cell (863b2abdce7293c0672fb3ba77bf323a)
REM AIRSS Version 0.9.1 bugfix July 2018 build 013d7b7c2542+ Fri, 06 Jul 2018 19:26:36 +0100
REM compiler GCC version 9.2.1 20190827 (Red Hat 9.2.1-1)
REM options -cpp -mtune=generic -march=x86-64 -g -O0 -fpre-include=/usr/include/finclude/math-vector-fortran.h
REM seed 2121994003 1786806472 -2069950000 -318181812 891586624 -1425211611 -2079119374 97948525 1841438783 -1062947750 -803938087 712152102 -1751919960 331458721 1440053761 1809183111 759213253 -472998036 489126260 1867965604 -75868074 -811636889 -493413495 -2087875511 -895325148 -2106849943 1486319376 -204728012 -1733099360 -1545057635 -1581443705 -94986416 1492656978
REM
CELL 1.54180   15.00000   15.00000   15.00000   90.00000   90.00000   90.00000
LATT -1
SFAC C  
C      1  0.4301460000000  0.2610100000000  0.6248790000000 1.0
C      1  0.7073330000000  0.3553670000000  0.6268220000000 1.0
C      1  0.6908490000000  0.6601120000000  0.6324250000000 1.0
C      1  0.4058000000000  0.7573640000000  0.6031190000000 1.0
C      1  0.2601570000000  0.4963450000000  0.6191120000000 1.0
C      1  0.5703240000000  0.2609590000000  0.3751490000000 1.0
C      1  0.2927970000000  0.3554210000000  0.3732300000000 1.0
C      1  0.3090520000000  0.6635710000000  0.3661450000000 1.0
C      1  0.5932490000000  0.7569750000000  0.3971070000000 1.0
C      1  0.7400370000000  0.4959400000000  0.3806350000000 1.0
C      1  0.6100820000000  0.6292330000000  0.6875440000000 1.0
C      1  0.4514630000000  0.6486710000000  0.6639210000000 1.0
C      1  0.3394780000000  0.4569520000000  0.6714890000000 1.0
C      1  0.4919300000000  0.3233660000000  0.6787740000000 1.0
C      1  0.6665100000000  0.4304030000000  0.6837420000000 1.0
C      1  0.3896990000000  0.6286010000000  0.3134140000000 1.0
C      1  0.5477700000000  0.6484990000000  0.3362480000000 1.0
C      1  0.6603320000000  0.4571710000000  0.3284450000000 1.0
C      1  0.5085640000000  0.3232850000000  0.3211970000000 1.0
C      1  0.3336640000000  0.4300420000000  0.3159370000000 1.0
C      1  0.3618720000000  0.4040920000000  0.5909490000000 1.0
C      1  0.5507940000000  0.3265630000000  0.6005260000000 1.0
C      1  0.6804070000000  0.4910370000000  0.6072990000000 1.0
C      1  0.5491810000000  0.6565620000000  0.6127590000000 1.0
C      1  0.3879390000000  0.6245760000000  0.5959330000000 1.0
C      1  0.6381930000000  0.4039450000000  0.4088350000000 1.0
C      1  0.4495880000000  0.3263270000000  0.3993620000000 1.0
C      1  0.3199490000000  0.4910760000000  0.3920930000000 1.0
C      1  0.4505980000000  0.6562750000000  0.3882370000000 1.0
C      1  0.6116090000000  0.6241300000000  0.4039260000000 1.0
C      1  0.4933930000000  0.4136620000000  0.7230770000000 1.0
C      1  0.5804120000000  0.4572420000000  0.7284210000000 1.0
C      1  0.5642130000000  0.5533970000000  0.7315770000000 1.0
C      1  0.4681750000000  0.5698690000000  0.7200720000000 1.0
C      1  0.4237530000000  0.4819560000000  0.7182500000000 1.0
C      1  0.5067450000000  0.4134390000000  0.2767180000000 1.0
C      1  0.4195750000000  0.4567380000000  0.2711180000000 1.0
C      1  0.4351380000000  0.5530780000000  0.2684400000000 1.0
C      1  0.5310660000000  0.5697300000000  0.2800140000000 1.0
C      1  0.5760070000000  0.4820600000000  0.2817620000000 1.0
C      1  0.4436300000000  0.5510330000000  0.5470120000000 1.0
C      1  0.4420030000000  0.4516870000000  0.5655060000000 1.0
C      1  0.5302320000000  0.4200940000000  0.5732470000000 1.0
C      1  0.5871420000000  0.4932760000000  0.5811840000000 1.0
C      1  0.5415070000000  0.5683740000000  0.5541020000000 1.0
C      1  0.5567740000000  0.5508480000000  0.4537800000000 1.0
C      1  0.5583160000000  0.4516760000000  0.4348280000000 1.0
C      1  0.4701950000000  0.4197680000000  0.4269660000000 1.0
C      1  0.4130060000000  0.4928470000000  0.4191150000000 1.0
C      1  0.4586940000000  0.5682390000000  0.4468490000000 1.0
C      1  0.3718260000000  0.7051730000000  0.4299070000000 1.0
C      1  0.2686930000000  0.4247460000000  0.4437370000000 1.0
C      1  0.4995330000000  0.2573710000000  0.4480310000000 1.0
C      1  0.7237250000000  0.4269290000000  0.4532480000000 1.0
C      1  0.6300370000000  0.7045630000000  0.4616710000000 1.0
C      1  0.6283990000000  0.7038500000000  0.5698940000000 1.0
C      1  0.7314320000000  0.4243440000000  0.5558040000000 1.0
C      1  0.5009110000000  0.2575010000000  0.5519210000000 1.0
C      1  0.2765150000000  0.4275150000000  0.5463490000000 1.0
C      1  0.3695860000000  0.7051250000000  0.5381490000000 1.0
END
