TITL C-1525613-7943-5452 0.364461135218683 3375 -8601.80417291504 0 0 60 (Ci) n - 1
REM
REM in /home/nfs/bkarasulu/CARBON/AIRSS/Generating-Clusters/ReaxFF-fromJPCA2015/Units_Real/Try2-Higher-symm/Only-C60
REM
REM
REM
REM
REM
REM ./C.cell (863b2abdce7293c0672fb3ba77bf323a)
REM AIRSS Version 0.9.1 bugfix July 2018 build 013d7b7c2542+ Fri, 06 Jul 2018 19:26:36 +0100
REM compiler GCC version 9.2.1 20190827 (Red Hat 9.2.1-1)
REM options -cpp -mtune=generic -march=x86-64 -g -O0 -fpre-include=/usr/include/finclude/math-vector-fortran.h
REM seed -172477130 -169294256 -1976034381 -414595964 -1507169987 -2067128564 2064602457 1963545790 909671010 -74010642 -302405985 -1563187098 -1853307773 -2145311166 1888108762 74184728 387798812 -1224335239 369566008 -1871672970 566451144 -1504546529 -959501342 -745451246 2103270715 1450808296 -46469905 604000916 -1898502852 -1296262892 1617244301 -1717818797 -1150426261
REM
CELL 1.54180   15.00000   15.00000   15.00000   90.00000   90.00000   90.00000
LATT -1
SFAC C  
C      1  0.3208760000000  0.4135870000000  0.3857180000000 1.0
C      1  0.6761000000000  0.4956400000000  0.3534680000000 1.0
C      1  0.3224150000000  0.5838320000000  0.3818530000000 1.0
C      1  0.6740170000000  0.6357800000000  0.4547840000000 1.0
C      1  0.3238740000000  0.6398580000000  0.5411290000000 1.0
C      1  0.6792440000000  0.5862520000000  0.6142230000000 1.0
C      1  0.3240560000000  0.5045730000000  0.6465990000000 1.0
C      1  0.6776180000000  0.4162500000000  0.6181160000000 1.0
C      1  0.3261550000000  0.3643690000000  0.5452040000000 1.0
C      1  0.6757110000000  0.3602420000000  0.4581900000000 1.0
C      1  0.5048050000000  0.2841080000000  0.5484120000000 1.0
C      1  0.4928750000000  0.2978090000000  0.3767640000000 1.0
C      1  0.4725140000000  0.3662140000000  0.3210290000000 1.0
C      1  0.4903970000000  0.5226210000000  0.2706970000000 1.0
C      1  0.5093850000000  0.6466210000000  0.3281100000000 1.0
C      1  0.4953940000000  0.7158190000000  0.4516350000000 1.0
C      1  0.5059850000000  0.7018260000000  0.6239720000000 1.0
C      1  0.5305370000000  0.6338770000000  0.6789600000000 1.0
C      1  0.5096290000000  0.4770690000000  0.7295770000000 1.0
C      1  0.4904530000000  0.3531340000000  0.6722350000000 1.0
C      1  0.5454530000000  0.7296680000000  0.5268580000000 1.0
C      1  0.4116580000000  0.7037710000000  0.6299890000000 1.0
C      1  0.5574890000000  0.5598560000000  0.7309410000000 1.0
C      1  0.4430040000000  0.4131640000000  0.7278940000000 1.0
C      1  0.5533410000000  0.3002730000000  0.6280280000000 1.0
C      1  0.4543530000000  0.2695370000000  0.4737620000000 1.0
C      1  0.5868810000000  0.2978880000000  0.3672580000000 1.0
C      1  0.4431670000000  0.4396210000000  0.2694970000000 1.0
C      1  0.5568260000000  0.5865300000000  0.2723430000000 1.0
C      1  0.4467990000000  0.7001810000000  0.3723200000000 1.0
C      1  0.3404090000000  0.4456410000000  0.7169400000000 1.0
C      1  0.6563690000000  0.3271960000000  0.6375860000000 1.0
C      1  0.3578600000000  0.2846030000000  0.4968120000000 1.0
C      1  0.6682840000000  0.3040750000000  0.3866060000000 1.0
C      1  0.3407200000000  0.4226210000000  0.2930000000000 1.0
C      1  0.6597320000000  0.5542830000000  0.2830600000000 1.0
C      1  0.3437550000000  0.6728920000000  0.3626240000000 1.0
C      1  0.6418000000000  0.7152480000000  0.5035980000000 1.0
C      1  0.3314430000000  0.6964320000000  0.6129230000000 1.0
C      1  0.6594830000000  0.5768460000000  0.7071370000000 1.0
C      1  0.4033760000000  0.4269540000000  0.5341960000000 1.0
C      1  0.5953980000000  0.4184470000000  0.4799170000000 1.0
C      1  0.4007380000000  0.4476930000000  0.4393510000000 1.0
C      1  0.5956510000000  0.4900690000000  0.4164960000000 1.0
C      1  0.4022770000000  0.5432320000000  0.4313860000000 1.0
C      1  0.5965810000000  0.5733840000000  0.4657020000000 1.0
C      1  0.4041200000000  0.5817020000000  0.5199430000000 1.0
C      1  0.5993700000000  0.5522090000000  0.5606810000000 1.0
C      1  0.4042340000000  0.5101460000000  0.5835860000000 1.0
C      1  0.5975960000000  0.4566610000000  0.5686870000000 1.0
C      1  0.7598180000000  0.5512480000000  0.5639780000000 1.0
C      1  0.2445530000000  0.5021620000000  0.5811850000000 1.0
C      1  0.7584170000000  0.4548080000000  0.5676070000000 1.0
C      1  0.2447830000000  0.4207910000000  0.5288690000000 1.0
C      1  0.7556220000000  0.4216310000000  0.4774460000000 1.0
C      1  0.2401650000000  0.4487090000000  0.4361730000000 1.0
C      1  0.7554880000000  0.4978030000000  0.4187960000000 1.0
C      1  0.2415720000000  0.5449960000000  0.4323570000000 1.0
C      1  0.7551350000000  0.5791830000000  0.4711880000000 1.0
C      1  0.2442410000000  0.5783610000000  0.5226040000000 1.0
END
