TITL C-1525613-7943-789 -0.149383928627818 3375 -9113.65312305249 0 0 60 (D5) n - 1
REM
REM in /home/nfs/bkarasulu/CARBON/AIRSS/Generating-Clusters/ReaxFF-fromJPCA2015/Units_Real/Try2-Higher-symm/Only-C60
REM
REM
REM
REM
REM
REM ./C.cell (863b2abdce7293c0672fb3ba77bf323a)
REM AIRSS Version 0.9.1 bugfix July 2018 build 013d7b7c2542+ Fri, 06 Jul 2018 19:26:36 +0100
REM compiler GCC version 9.2.1 20190827 (Red Hat 9.2.1-1)
REM options -cpp -mtune=generic -march=x86-64 -g -O0 -fpre-include=/usr/include/finclude/math-vector-fortran.h
REM seed 1294192137 1048755264 1255396504 1947697758 -1906770786 27165915 -1028141915 694862601 1180639429 -1188355189 -1400230910 875755270 -2090668565 -1887050567 48881450 -681621850 833767500 1085318094 1080309202 -1684202695 -891217260 1971968982 -495997320 -1919179852 -567599071 490276232 -1809701556 -550185047 1314604768 -1443379398 -765263014 -1735798149 1983756297
REM
CELL 1.54180   15.00000   15.00000   15.00000   90.00000   90.00000   90.00000
LATT -1
SFAC C  
C      1  0.4905490000000  0.2942370000000  0.5478330000000 1.0
C      1  0.6921690000000  0.4264860000000  0.5475720000000 1.0
C      1  0.6286680000000  0.6608690000000  0.5481890000000 1.0
C      1  0.3869900000000  0.6723720000000  0.5472540000000 1.0
C      1  0.3020300000000  0.4451810000000  0.5474310000000 1.0
C      1  0.5094510000000  0.2942370000000  0.4521670000000 1.0
C      1  0.3078310000000  0.4264860000000  0.4524280000000 1.0
C      1  0.3713320000000  0.6608690000000  0.4518110000000 1.0
C      1  0.6130100000000  0.6723720000000  0.4527460000000 1.0
C      1  0.6979700000000  0.4451810000000  0.4525690000000 1.0
C      1  0.3742270000000  0.5871400000000  0.2688580000000 1.0
C      1  0.3753820000000  0.4052330000000  0.2680710000000 1.0
C      1  0.5499680000000  0.3551860000000  0.2687380000000 1.0
C      1  0.6544580000000  0.5042750000000  0.2688730000000 1.0
C      1  0.5449100000000  0.6488150000000  0.2688880000000 1.0
C      1  0.6257730000000  0.5871400000000  0.7311420000000 1.0
C      1  0.6246180000000  0.4052330000000  0.7319290000000 1.0
C      1  0.4500320000000  0.3551860000000  0.7312620000000 1.0
C      1  0.3455420000000  0.5042750000000  0.7311270000000 1.0
C      1  0.4550900000000  0.6488150000000  0.7311120000000 1.0
C      1  0.7217670000000  0.5365530000000  0.4178850000000 1.0
C      1  0.5337190000000  0.7231680000000  0.4174460000000 1.0
C      1  0.2991270000000  0.6004750000000  0.4167560000000 1.0
C      1  0.3422860000000  0.3385460000000  0.4174440000000 1.0
C      1  0.6033890000000  0.3003420000000  0.4169200000000 1.0
C      1  0.2782330000000  0.5365530000000  0.5821150000000 1.0
C      1  0.4662810000000  0.7231680000000  0.5825540000000 1.0
C      1  0.7008730000000  0.6004750000000  0.5832440000000 1.0
C      1  0.6577140000000  0.3385460000000  0.5825560000000 1.0
C      1  0.3966110000000  0.3003420000000  0.5830800000000 1.0
C      1  0.6227340000000  0.4155070000000  0.3022650000000 1.0
C      1  0.6202570000000  0.5923680000000  0.3024830000000 1.0
C      1  0.4504370000000  0.6428570000000  0.3018050000000 1.0
C      1  0.3507700000000  0.4956220000000  0.3030590000000 1.0
C      1  0.4556120000000  0.3556070000000  0.3018320000000 1.0
C      1  0.3772660000000  0.4155070000000  0.6977350000000 1.0
C      1  0.3797430000000  0.5923680000000  0.6975170000000 1.0
C      1  0.5495630000000  0.6428570000000  0.6981950000000 1.0
C      1  0.6492300000000  0.4956220000000  0.6969410000000 1.0
C      1  0.5443880000000  0.3556070000000  0.6981680000000 1.0
C      1  0.5540270000000  0.6817860000000  0.6077950000000 1.0
C      1  0.3443320000000  0.6077500000000  0.6067840000000 1.0
C      1  0.3498060000000  0.3852830000000  0.6081280000000 1.0
C      1  0.5629360000000  0.3205340000000  0.6081720000000 1.0
C      1  0.6882220000000  0.5038540000000  0.6071120000000 1.0
C      1  0.4459730000000  0.6817860000000  0.3922050000000 1.0
C      1  0.6556680000000  0.6077500000000  0.3932160000000 1.0
C      1  0.6501940000000  0.3852830000000  0.3918720000000 1.0
C      1  0.4370640000000  0.3205340000000  0.3918280000000 1.0
C      1  0.3117780000000  0.5038540000000  0.3928880000000 1.0
C      1  0.6877390000000  0.6284880000000  0.6724440000000 1.0
C      1  0.4349630000000  0.7196120000000  0.6714950000000 1.0
C      1  0.2720040000000  0.5061000000000  0.6712640000000 1.0
C      1  0.4249920000000  0.2855050000000  0.6720350000000 1.0
C      1  0.6818890000000  0.3602510000000  0.6713530000000 1.0
C      1  0.3122610000000  0.6284880000000  0.3275560000000 1.0
C      1  0.5650370000000  0.7196120000000  0.3285050000000 1.0
C      1  0.7279960000000  0.5061000000000  0.3287360000000 1.0
C      1  0.5750080000000  0.2855050000000  0.3279650000000 1.0
C      1  0.3181110000000  0.3602510000000  0.3286470000000 1.0
END
