TITL C-1525613-7943-6501 -0.00273931946902471 3375 -9281.25566738768 0 0 60 (C5) n - 1
REM
REM in /home/nfs/bkarasulu/CARBON/AIRSS/Generating-Clusters/ReaxFF-fromJPCA2015/Units_Real/Try2-Higher-symm/Only-C60
REM
REM
REM
REM
REM
REM ./C.cell (863b2abdce7293c0672fb3ba77bf323a)
REM AIRSS Version 0.9.1 bugfix July 2018 build 013d7b7c2542+ Fri, 06 Jul 2018 19:26:36 +0100
REM compiler GCC version 9.2.1 20190827 (Red Hat 9.2.1-1)
REM options -cpp -mtune=generic -march=x86-64 -g -O0 -fpre-include=/usr/include/finclude/math-vector-fortran.h
REM seed -2087368868 1541921767 -60575004 -1931704497 -1077825907 -522418514 -977230382 788362400 306757648 1439655317 7641559 834351253 -1936606409 354730590 -1351845615 285225962 -913818868 -299862473 1019370428 1367000714 1115889946 1652494583 1448131305 800895547 -2027494854 -1514892193 943281020 196167376 2067844301 516255705 -1757125642 -1940473797 1540048753
REM
CELL 1.54180   15.00000   15.00000   15.00000   90.00000   90.00000   90.00000
LATT -1
SFAC C  
C      1  0.3521660000000  0.6188320000000  0.6665100000000 1.0
C      1  0.2956640000000  0.6196850000000  0.4107950000000 1.0
C      1  0.5219420000000  0.6191530000000  0.2782420000000 1.0
C      1  0.7180220000000  0.6202580000000  0.4519140000000 1.0
C      1  0.6129110000000  0.6192890000000  0.6918740000000 1.0
C      1  0.3507770000000  0.6182350000000  0.3357110000000 1.0
C      1  0.2976560000000  0.6182220000000  0.5909210000000 1.0
C      1  0.5243380000000  0.6181660000000  0.7206520000000 1.0
C      1  0.7175760000000  0.6189530000000  0.5450720000000 1.0
C      1  0.6104960000000  0.6186180000000  0.3073520000000 1.0
C      1  0.7374890000000  0.3667010000000  0.4528810000000 1.0
C      1  0.6181690000000  0.3657140000000  0.7112350000000 1.0
C      1  0.3353840000000  0.3658720000000  0.6774640000000 1.0
C      1  0.2796580000000  0.3661350000000  0.3987010000000 1.0
C      1  0.5285090000000  0.3664440000000  0.2603260000000 1.0
C      1  0.7344710000000  0.3701720000000  0.5510560000000 1.0
C      1  0.6216360000000  0.3685850000000  0.2923120000000 1.0
C      1  0.3396970000000  0.3692480000000  0.3209970000000 1.0
C      1  0.2790160000000  0.3683630000000  0.5967510000000 1.0
C      1  0.5239630000000  0.3693340000000  0.7390590000000 1.0
C      1  0.4046810000000  0.3164940000000  0.6267690000000 1.0
C      1  0.3499820000000  0.3177500000000  0.4491780000000 1.0
C      1  0.5019650000000  0.3177350000000  0.3423770000000 1.0
C      1  0.6507480000000  0.3184900000000  0.4535940000000 1.0
C      1  0.5905120000000  0.3170910000000  0.6294010000000 1.0
C      1  0.4102880000000  0.3234550000000  0.3728000000000 1.0
C      1  0.3495930000000  0.3212680000000  0.5459450000000 1.0
C      1  0.4968290000000  0.3243220000000  0.6553430000000 1.0
C      1  0.6465750000000  0.3250690000000  0.5506620000000 1.0
C      1  0.5941420000000  0.3218440000000  0.3750680000000 1.0
C      1  0.4076300000000  0.6876840000000  0.3721770000000 1.0
C      1  0.5932690000000  0.6882510000000  0.3722570000000 1.0
C      1  0.6501090000000  0.6883260000000  0.5489080000000 1.0
C      1  0.4997950000000  0.6877920000000  0.6578880000000 1.0
C      1  0.3497730000000  0.6878020000000  0.5484860000000 1.0
C      1  0.4078840000000  0.6883820000000  0.6286560000000 1.0
C      1  0.5940240000000  0.6887660000000  0.6273170000000 1.0
C      1  0.6505440000000  0.6895210000000  0.4498280000000 1.0
C      1  0.4990910000000  0.6886680000000  0.3416520000000 1.0
C      1  0.3490320000000  0.6890010000000  0.4520650000000 1.0
C      1  0.7458740000000  0.4657190000000  0.5464510000000 1.0
C      1  0.5319800000000  0.4649580000000  0.7480350000000 1.0
C      1  0.2745970000000  0.4654590000000  0.6059570000000 1.0
C      1  0.3285320000000  0.4649550000000  0.3181480000000 1.0
C      1  0.6202080000000  0.4658250000000  0.2818270000000 1.0
C      1  0.7479940000000  0.4652700000000  0.4517330000000 1.0
C      1  0.5308300000000  0.4644100000000  0.2517630000000 1.0
C      1  0.2709670000000  0.4647820000000  0.3934290000000 1.0
C      1  0.3292380000000  0.4640960000000  0.6828840000000 1.0
C      1  0.6225220000000  0.4643860000000  0.7202590000000 1.0
C      1  0.6623210000000  0.5398160000000  0.6744570000000 1.0
C      1  0.3841270000000  0.5389200000000  0.7080680000000 1.0
C      1  0.2655790000000  0.5402480000000  0.4538890000000 1.0
C      1  0.4716610000000  0.5391490000000  0.2634860000000 1.0
C      1  0.7168900000000  0.5407020000000  0.3994930000000 1.0
C      1  0.6589880000000  0.5401670000000  0.3237310000000 1.0
C      1  0.3811220000000  0.5389820000000  0.2948420000000 1.0
C      1  0.2679140000000  0.5397190000000  0.5492640000000 1.0
C      1  0.4757220000000  0.5389630000000  0.7360090000000 1.0
C      1  0.7169260000000  0.5397820000000  0.5960790000000 1.0
END
