TITL C-1525613-7943-7590 -0.083050910490463 3375 -8565.9560395827 0 0 60 (C5) n - 1
REM
REM in /home/nfs/bkarasulu/CARBON/AIRSS/Generating-Clusters/ReaxFF-fromJPCA2015/Units_Real/Try2-Higher-symm/Only-C60
REM
REM
REM
REM
REM
REM ./C.cell (863b2abdce7293c0672fb3ba77bf323a)
REM AIRSS Version 0.9.1 bugfix July 2018 build 013d7b7c2542+ Fri, 06 Jul 2018 19:26:36 +0100
REM compiler GCC version 9.2.1 20190827 (Red Hat 9.2.1-1)
REM options -cpp -mtune=generic -march=x86-64 -g -O0 -fpre-include=/usr/include/finclude/math-vector-fortran.h
REM seed 1487079759 -1937389520 2090357825 710283764 1595219176 1405810092 -1427214450 1215424935 -960925932 424102490 340628747 883717976 2056739433 584314446 712652109 -1058680223 -734778566 -1334197721 -1768115429 -811297585 -1029823983 -1648801937 1173261970 1053301726 1241723312 397233167 -65746010 -938235832 1613662189 927255379 -1480277724 -2099706958 170279352
REM
CELL 1.54180   15.00000   15.00000   15.00000   90.00000   90.00000   90.00000
LATT -1
SFAC C  
C      1  0.5519220000000  0.4848180000000  0.5825240000000 1.0
C      1  0.5541900000000  0.4176390000000  0.5090350000000 1.0
C      1  0.5528630000000  0.4665090000000  0.4231040000000 1.0
C      1  0.5518730000000  0.5627690000000  0.4444220000000 1.0
C      1  0.5502010000000  0.5740150000000  0.5416320000000 1.0
C      1  0.4480780000000  0.4848180000000  0.5825240000000 1.0
C      1  0.4458100000000  0.4176390000000  0.5090350000000 1.0
C      1  0.4471370000000  0.4665090000000  0.4231040000000 1.0
C      1  0.4481270000000  0.5627690000000  0.4444220000000 1.0
C      1  0.4497990000000  0.5740150000000  0.5416320000000 1.0
C      1  0.3125280000000  0.3877010000000  0.4129710000000 1.0
C      1  0.3121310000000  0.5481160000000  0.3657970000000 1.0
C      1  0.3121440000000  0.6418430000000  0.5042220000000 1.0
C      1  0.3121420000000  0.5394290000000  0.6361780000000 1.0
C      1  0.3125650000000  0.3819830000000  0.5800000000000 1.0
C      1  0.6874720000000  0.3877010000000  0.4129710000000 1.0
C      1  0.6878690000000  0.5481160000000  0.3657970000000 1.0
C      1  0.6878560000000  0.6418430000000  0.5042220000000 1.0
C      1  0.6878580000000  0.5394290000000  0.6361780000000 1.0
C      1  0.6874350000000  0.3819830000000  0.5800000000000 1.0
C      1  0.5541390000000  0.6441760000000  0.3605350000000 1.0
C      1  0.5542650000000  0.6775860000000  0.5944230000000 1.0
C      1  0.5535300000000  0.4648440000000  0.6991470000000 1.0
C      1  0.5532930000000  0.2998320000000  0.5289310000000 1.0
C      1  0.5533580000000  0.4110410000000  0.3179340000000 1.0
C      1  0.4458610000000  0.6441760000000  0.3605350000000 1.0
C      1  0.4457350000000  0.6775860000000  0.5944230000000 1.0
C      1  0.4464700000000  0.4648440000000  0.6991470000000 1.0
C      1  0.4467070000000  0.2998320000000  0.5289310000000 1.0
C      1  0.4466420000000  0.4110410000000  0.3179340000000 1.0
C      1  0.5488800000000  0.2935890000000  0.4286260000000 1.0
C      1  0.5488460000000  0.5046780000000  0.2813570000000 1.0
C      1  0.5489170000000  0.7099840000000  0.4365310000000 1.0
C      1  0.5488580000000  0.6244640000000  0.6796640000000 1.0
C      1  0.5489320000000  0.3674530000000  0.6738920000000 1.0
C      1  0.4511200000000  0.2935890000000  0.4286260000000 1.0
C      1  0.4511540000000  0.5046780000000  0.2813570000000 1.0
C      1  0.4510830000000  0.7099840000000  0.4365310000000 1.0
C      1  0.4511420000000  0.6244640000000  0.6796640000000 1.0
C      1  0.4510680000000  0.3674530000000  0.6738920000000 1.0
C      1  0.7123480000000  0.5893540000000  0.5691030000000 1.0
C      1  0.7120750000000  0.4614310000000  0.6065920000000 1.0
C      1  0.7122270000000  0.3866060000000  0.4965800000000 1.0
C      1  0.7123290000000  0.4682070000000  0.3912190000000 1.0
C      1  0.7124520000000  0.5936570000000  0.4358780000000 1.0
C      1  0.2876520000000  0.5893540000000  0.5691030000000 1.0
C      1  0.2879250000000  0.4614310000000  0.6065920000000 1.0
C      1  0.2877730000000  0.3866060000000  0.4965800000000 1.0
C      1  0.2876710000000  0.4682070000000  0.3912190000000 1.0
C      1  0.2875480000000  0.5936570000000  0.4358780000000 1.0
C      1  0.3937030000000  0.5484840000000  0.6901160000000 1.0
C      1  0.3935260000000  0.3327830000000  0.6058320000000 1.0
C      1  0.3942960000000  0.3490070000000  0.3750830000000 1.0
C      1  0.3933920000000  0.5723480000000  0.3167320000000 1.0
C      1  0.3937590000000  0.6956560000000  0.5119410000000 1.0
C      1  0.6062970000000  0.5484840000000  0.6901160000000 1.0
C      1  0.6064740000000  0.3327830000000  0.6058320000000 1.0
C      1  0.6057040000000  0.3490070000000  0.3750830000000 1.0
C      1  0.6066080000000  0.5723480000000  0.3167320000000 1.0
C      1  0.6062410000000  0.6956560000000  0.5119410000000 1.0
END
