TITL C-1525613-7943-863 -0.115988886613453 3375 -8482.43687542399 0 0 60 (C2) n - 1
REM
REM in /home/nfs/bkarasulu/CARBON/AIRSS/Generating-Clusters/ReaxFF-fromJPCA2015/Units_Real/Try2-Higher-symm/Only-C60
REM
REM
REM
REM
REM
REM ./C.cell (863b2abdce7293c0672fb3ba77bf323a)
REM AIRSS Version 0.9.1 bugfix July 2018 build 013d7b7c2542+ Fri, 06 Jul 2018 19:26:36 +0100
REM compiler GCC version 9.2.1 20190827 (Red Hat 9.2.1-1)
REM options -cpp -mtune=generic -march=x86-64 -g -O0 -fpre-include=/usr/include/finclude/math-vector-fortran.h
REM seed -1522012876 -577949012 -1451147147 1008959050 1881141825 -1437501393 -1731873854 -684499006 2010301250 -1544243454 -1601980776 -2008704016 -1694634488 -1502334933 -1372456851 -391039875 -533521558 -75858490 1452706021 -2134147487 2060181367 2069515086 1445506109 -435139241 -2091175993 -943319453 -1848286847 -605609598 -1708019262 1268605102 545929562 1004964771 1154175676
REM
CELL 1.54180   15.00000   15.00000   15.00000   90.00000   90.00000   90.00000
LATT -1
SFAC C  
C      1  0.5745740000000  0.3236670000000  0.6590520000000 1.0
C      1  0.5760680000000  0.4498480000000  0.7352540000000 1.0
C      1  0.5760950000000  0.5968790000000  0.7190630000000 1.0
C      1  0.5765000000000  0.7062160000000  0.6193930000000 1.0
C      1  0.5759730000000  0.7377130000000  0.4746840000000 1.0
C      1  0.5745810000000  0.6762850000000  0.3409030000000 1.0
C      1  0.5760710000000  0.5501630000000  0.2647510000000 1.0
C      1  0.5761230000000  0.4030490000000  0.2808550000000 1.0
C      1  0.5765270000000  0.2937700000000  0.3805660000000 1.0
C      1  0.5759180000000  0.2623220000000  0.5253650000000 1.0
C      1  0.6362250000000  0.6383720000000  0.5808790000000 1.0
C      1  0.6342080000000  0.6591160000000  0.4842540000000 1.0
C      1  0.6352730000000  0.6189550000000  0.3938450000000 1.0
C      1  0.6343100000000  0.5338050000000  0.3449810000000 1.0
C      1  0.6348540000000  0.4361750000000  0.3540930000000 1.0
C      1  0.6362570000000  0.3616000000000  0.4191290000000 1.0
C      1  0.6342080000000  0.3408070000000  0.5157500000000 1.0
C      1  0.6353260000000  0.3810150000000  0.6061520000000 1.0
C      1  0.6343640000000  0.4661570000000  0.6550600000000 1.0
C      1  0.6349270000000  0.5638130000000  0.6459660000000 1.0
C      1  0.4905280000000  0.5743210000000  0.4109330000000 1.0
C      1  0.4940540000000  0.5106950000000  0.3633480000000 1.0
C      1  0.4945540000000  0.4303780000000  0.3850980000000 1.0
C      1  0.4922630000000  0.3848270000000  0.4502020000000 1.0
C      1  0.4869750000000  0.3646360000000  0.5361550000000 1.0
C      1  0.4905640000000  0.4255900000000  0.5895140000000 1.0
C      1  0.4940430000000  0.4895130000000  0.6367030000000 1.0
C      1  0.4944740000000  0.5697190000000  0.6146930000000 1.0
C      1  0.4922520000000  0.6154100000000  0.5495560000000 1.0
C      1  0.4868320000000  0.6354470000000  0.4638020000000 1.0
C      1  0.5203750000000  0.3704230000000  0.7242480000000 1.0
C      1  0.5205300000000  0.5283390000000  0.7623660000000 1.0
C      1  0.5211700000000  0.6752730000000  0.6938990000000 1.0
C      1  0.5205630000000  0.7519120000000  0.5533670000000 1.0
C      1  0.5217860000000  0.7411490000000  0.3921600000000 1.0
C      1  0.5204060000000  0.6296030000000  0.2757210000000 1.0
C      1  0.5204310000000  0.4716990000000  0.2377250000000 1.0
C      1  0.5211200000000  0.3247230000000  0.3061290000000 1.0
C      1  0.5205970000000  0.2481200000000  0.4466510000000 1.0
C      1  0.5217950000000  0.2587780000000  0.6077980000000 1.0
C      1  0.4173990000000  0.7384480000000  0.5446420000000 1.0
C      1  0.4175240000000  0.7243700000000  0.3903100000000 1.0
C      1  0.4191960000000  0.6155450000000  0.2863140000000 1.0
C      1  0.4189280000000  0.4684240000000  0.2584060000000 1.0
C      1  0.4189600000000  0.3343250000000  0.3246230000000 1.0
C      1  0.4174400000000  0.2615360000000  0.4553350000000 1.0
C      1  0.4174180000000  0.2756260000000  0.6095470000000 1.0
C      1  0.4191180000000  0.3844070000000  0.7137240000000 1.0
C      1  0.4190290000000  0.5315310000000  0.7415530000000 1.0
C      1  0.4189970000000  0.6656070000000  0.6753580000000 1.0
C      1  0.3570660000000  0.3720880000000  0.3870710000000 1.0
C      1  0.3569180000000  0.3304820000000  0.4827790000000 1.0
C      1  0.3607160000000  0.3514750000000  0.5860400000000 1.0
C      1  0.3574100000000  0.4318600000000  0.6560000000000 1.0
C      1  0.3589900000000  0.5349410000000  0.6664700000000 1.0
C      1  0.3570020000000  0.6279090000000  0.6129250000000 1.0
C      1  0.3569530000000  0.6694410000000  0.5172480000000 1.0
C      1  0.3606710000000  0.6485300000000  0.4139380000000 1.0
C      1  0.3574790000000  0.5681240000000  0.3440670000000 1.0
C      1  0.3590920000000  0.4650450000000  0.3335880000000 1.0
END
