TITL C-1525613-7943-7444 -0.100202399403439 3375 -8359.79972406717 0 0 60 (C1) n - 1
REM
REM in /home/nfs/bkarasulu/CARBON/AIRSS/Generating-Clusters/ReaxFF-fromJPCA2015/Units_Real/Try2-Higher-symm/Only-C60
REM
REM
REM
REM
REM
REM ./C.cell (863b2abdce7293c0672fb3ba77bf323a)
REM AIRSS Version 0.9.1 bugfix July 2018 build 013d7b7c2542+ Fri, 06 Jul 2018 19:26:36 +0100
REM compiler GCC version 9.2.1 20190827 (Red Hat 9.2.1-1)
REM options -cpp -mtune=generic -march=x86-64 -g -O0 -fpre-include=/usr/include/finclude/math-vector-fortran.h
REM seed -591906556 1856296415 -41845625 -34673563 -1294387588 40107924 -1331298495 -1573879614 518237177 -653721943 -862925820 -1752248005 -358328977 -225311366 1063008305 -962610546 1885502700 560103070 -1813605005 -674754825 -1794824670 -431439471 -245120638 -1226360534 -673634119 1582428543 -49932131 1675075261 44597866 368806117 -2085031321 -25735627 -270226893
REM
CELL 1.54180   15.00000   15.00000   15.00000   90.00000   90.00000   90.00000
LATT -1
SFAC C  
C      1  0.5900870000000  0.3127710000000  0.6364500000000 1.0
C      1  0.6452760000000  0.6037880000000  0.6114580000000 1.0
C      1  0.4653690000000  0.6577070000000  0.6086890000000 1.0
C      1  0.3435090000000  0.5205790000000  0.6143740000000 1.0
C      1  0.4268220000000  0.3586530000000  0.6243390000000 1.0
C      1  0.5897880000000  0.3116720000000  0.3641810000000 1.0
C      1  0.6416910000000  0.6030400000000  0.3909720000000 1.0
C      1  0.4670380000000  0.6575990000000  0.3920200000000 1.0
C      1  0.3444500000000  0.5212020000000  0.3863740000000 1.0
C      1  0.4270370000000  0.3590250000000  0.3763940000000 1.0
C      1  0.5715280000000  0.5439270000000  0.4500220000000 1.0
C      1  0.4828540000000  0.5803000000000  0.4509740000000 1.0
C      1  0.4235880000000  0.5034220000000  0.4477130000000 1.0
C      1  0.4740310000000  0.4244810000000  0.4258990000000 1.0
C      1  0.5642320000000  0.4427980000000  0.4505720000000 1.0
C      1  0.5727950000000  0.5451860000000  0.5487940000000 1.0
C      1  0.4819370000000  0.5824700000000  0.5460310000000 1.0
C      1  0.4225360000000  0.5021790000000  0.5498260000000 1.0
C      1  0.4752310000000  0.4233890000000  0.5719310000000 1.0
C      1  0.5649280000000  0.4432490000000  0.5468170000000 1.0
C      1  0.7301390000000  0.5991370000000  0.4512350000000 1.0
C      1  0.4733180000000  0.7431930000000  0.4501380000000 1.0
C      1  0.2695300000000  0.5543660000000  0.4502490000000 1.0
C      1  0.3711490000000  0.3029410000000  0.4510510000000 1.0
C      1  0.6351690000000  0.2850290000000  0.4370570000000 1.0
C      1  0.7306700000000  0.5997560000000  0.5495160000000 1.0
C      1  0.4729780000000  0.7443530000000  0.5504640000000 1.0
C      1  0.2687020000000  0.5552900000000  0.5507660000000 1.0
C      1  0.3710300000000  0.3031740000000  0.5496410000000 1.0
C      1  0.6353170000000  0.2851450000000  0.5628620000000 1.0
C      1  0.3638320000000  0.4325760000000  0.3392980000000 1.0
C      1  0.5175160000000  0.3427970000000  0.3175590000000 1.0
C      1  0.6706710000000  0.5105920000000  0.3599640000000 1.0
C      1  0.5665580000000  0.6568640000000  0.3497210000000 1.0
C      1  0.3859280000000  0.6100190000000  0.3479520000000 1.0
C      1  0.3643300000000  0.4309960000000  0.6606120000000 1.0
C      1  0.5179250000000  0.3439440000000  0.6825080000000 1.0
C      1  0.6706850000000  0.5114940000000  0.6415560000000 1.0
C      1  0.5675850000000  0.6568380000000  0.6509550000000 1.0
C      1  0.3867440000000  0.6114780000000  0.6531000000000 1.0
C      1  0.5814180000000  0.2166840000000  0.5430260000000 1.0
C      1  0.7193440000000  0.5038090000000  0.5528990000000 1.0
C      1  0.5673850000000  0.7273850000000  0.5478730000000 1.0
C      1  0.3163860000000  0.6371830000000  0.5474390000000 1.0
C      1  0.3153000000000  0.3792910000000  0.5465350000000 1.0
C      1  0.5808750000000  0.2158680000000  0.4575710000000 1.0
C      1  0.7187460000000  0.5033630000000  0.4479710000000 1.0
C      1  0.5670730000000  0.7265270000000  0.4537280000000 1.0
C      1  0.3174850000000  0.6361440000000  0.4531600000000 1.0
C      1  0.3161410000000  0.3791940000000  0.4523510000000 1.0
C      1  0.4305270000000  0.4678960000000  0.2798900000000 1.0
C      1  0.5230980000000  0.4309660000000  0.2796100000000 1.0
C      1  0.5914280000000  0.5000830000000  0.3009020000000 1.0
C      1  0.5393980000000  0.5835260000000  0.2915210000000 1.0
C      1  0.4425600000000  0.5654050000000  0.2841510000000 1.0
C      1  0.4311730000000  0.4680720000000  0.7200520000000 1.0
C      1  0.5231020000000  0.4319830000000  0.7199990000000 1.0
C      1  0.5913390000000  0.5002160000000  0.6988790000000 1.0
C      1  0.5405000000000  0.5840310000000  0.7068430000000 1.0
C      1  0.4422180000000  0.5649570000000  0.7155630000000 1.0
END
