TITL C-1525613-7943-4457 0.0182949764467299 3375 -9374.19048022186 0 0 60 (C1) n - 1
REM
REM in /home/nfs/bkarasulu/CARBON/AIRSS/Generating-Clusters/ReaxFF-fromJPCA2015/Units_Real/Try2-Higher-symm/Only-C60
REM
REM
REM
REM
REM
REM ./C.cell (863b2abdce7293c0672fb3ba77bf323a)
REM AIRSS Version 0.9.1 bugfix July 2018 build 013d7b7c2542+ Fri, 06 Jul 2018 19:26:36 +0100
REM compiler GCC version 9.2.1 20190827 (Red Hat 9.2.1-1)
REM options -cpp -mtune=generic -march=x86-64 -g -O0 -fpre-include=/usr/include/finclude/math-vector-fortran.h
REM seed 1847767811 1117391527 1011615600 92893114 634167419 105924753 2066368946 790029023 -1287760146 2095605800 -692755282 1158060614 -1825085958 747446783 1861542323 -864389454 -1818513561 -635373550 -1164395901 -600740302 -1790108164 -510058838 -2097512495 -1172998322 -1129035219 976978899 1611284494 -890893341 1121095371 -846565047 2048568921 -361697610 1536608301
REM
CELL 1.54180   15.00000   15.00000   15.00000   90.00000   90.00000   90.00000
LATT -1
SFAC C  
C      1  0.6116080000000  0.3492290000000  0.5414590000000 1.0
C      1  0.6271180000000  0.6833870000000  0.6241310000000 1.0
C      1  0.5235000000000  0.3892210000000  0.5800520000000 1.0
C      1  0.4418880000000  0.6756420000000  0.6575420000000 1.0
C      1  0.4351870000000  0.3576760000000  0.5550100000000 1.0
C      1  0.4060150000000  0.6442150000000  0.4614020000000 1.0
C      1  0.3640390000000  0.3156800000000  0.3776950000000 1.0
C      1  0.4950960000000  0.6118680000000  0.4225860000000 1.0
C      1  0.5555500000000  0.3223860000000  0.3476350000000 1.0
C      1  0.5901180000000  0.6558510000000  0.4374760000000 1.0
C      1  0.5223560000000  0.2643490000000  0.4185220000000 1.0
C      1  0.5721560000000  0.7531700000000  0.4769110000000 1.0
C      1  0.5711970000000  0.2568240000000  0.5052280000000 1.0
C      1  0.5687720000000  0.7432540000000  0.5737780000000 1.0
C      1  0.5085560000000  0.2094410000000  0.5638240000000 1.0
C      1  0.4723760000000  0.7361250000000  0.5879210000000 1.0
C      1  0.4279170000000  0.2619290000000  0.5265720000000 1.0
C      1  0.4317180000000  0.7402730000000  0.4987770000000 1.0
C      1  0.4245120000000  0.2605680000000  0.4288080000000 1.0
C      1  0.4898280000000  0.7964810000000  0.4392440000000 1.0
C      1  0.2767030000000  0.4024540000000  0.5013700000000 1.0
C      1  0.3316380000000  0.6181680000000  0.3874900000000 1.0
C      1  0.3988030000000  0.3642310000000  0.3020910000000 1.0
C      1  0.5121440000000  0.6021080000000  0.3286660000000 1.0
C      1  0.6309010000000  0.3812490000000  0.3683140000000 1.0
C      1  0.6747280000000  0.6142890000000  0.4818440000000 1.0
C      1  0.6847020000000  0.3767460000000  0.6139180000000 1.0
C      1  0.5971820000000  0.6326440000000  0.7006980000000 1.0
C      1  0.4944000000000  0.3991450000000  0.6744190000000 1.0
C      1  0.3703170000000  0.6140230000000  0.6332630000000 1.0
C      1  0.2860000000000  0.4546840000000  0.3662700000000 1.0
C      1  0.3862020000000  0.5223760000000  0.2438430000000 1.0
C      1  0.5386280000000  0.4550850000000  0.2656370000000 1.0
C      1  0.6635730000000  0.5432250000000  0.3436380000000 1.0
C      1  0.7203930000000  0.4591590000000  0.4841920000000 1.0
C      1  0.7076890000000  0.5440180000000  0.6289200000000 1.0
C      1  0.6156680000000  0.4719190000000  0.7527940000000 1.0
C      1  0.4586710000000  0.5416610000000  0.7383030000000 1.0
C      1  0.3349300000000  0.4547360000000  0.6535270000000 1.0
C      1  0.2819110000000  0.5419370000000  0.5151480000000 1.0
C      1  0.4005410000000  0.3836960000000  0.6455410000000 1.0
C      1  0.3513800000000  0.6031020000000  0.5399110000000 1.0
C      1  0.2861890000000  0.3679630000000  0.4157320000000 1.0
C      1  0.3588170000000  0.5859510000000  0.3059170000000 1.0
C      1  0.4959640000000  0.3702670000000  0.2883200000000 1.0
C      1  0.6066130000000  0.6224320000000  0.3415340000000 1.0
C      1  0.6604380000000  0.3893830000000  0.4597220000000 1.0
C      1  0.6888250000000  0.6237950000000  0.5759700000000 1.0
C      1  0.6592880000000  0.4124140000000  0.6949060000000 1.0
C      1  0.5012030000000  0.6272410000000  0.7172200000000 1.0
C      1  0.6254850000000  0.4602520000000  0.3106500000000 1.0
C      1  0.7097680000000  0.5421290000000  0.4308020000000 1.0
C      1  0.7279910000000  0.4596770000000  0.5826660000000 1.0
C      1  0.6545170000000  0.5530510000000  0.7097170000000 1.0
C      1  0.5171710000000  0.4649850000000  0.7430610000000 1.0
C      1  0.3724380000000  0.5349830000000  0.6916480000000 1.0
C      1  0.2735640000000  0.4594250000000  0.5739490000000 1.0
C      1  0.2799080000000  0.5401940000000  0.4161470000000 1.0
C      1  0.3424200000000  0.4432500000000  0.2873160000000 1.0
C      1  0.4827880000000  0.5343810000000  0.2603490000000 1.0
END
