TITL C-1525613-7943-1130 -0.140562512201434 3375 -8548.7646757464 0 0 60 (C1) n - 1
REM
REM in /home/nfs/bkarasulu/CARBON/AIRSS/Generating-Clusters/ReaxFF-fromJPCA2015/Units_Real/Try2-Higher-symm/Only-C60
REM
REM
REM
REM
REM
REM ./C.cell (863b2abdce7293c0672fb3ba77bf323a)
REM AIRSS Version 0.9.1 bugfix July 2018 build 013d7b7c2542+ Fri, 06 Jul 2018 19:26:36 +0100
REM compiler GCC version 9.2.1 20190827 (Red Hat 9.2.1-1)
REM options -cpp -mtune=generic -march=x86-64 -g -O0 -fpre-include=/usr/include/finclude/math-vector-fortran.h
REM seed 393242283 897184391 1993800945 1223272800 148539531 -1389221518 -1271778173 1245901999 1856505423 -416873787 1328993320 641697351 -2026851205 257414550 -148536126 -2066629675 721597224 1945401183 1200826990 -634570436 -1873461663 -1598623462 -1214430310 498125290 1477219875 542664831 1927028651 211038207 1033072335 2033836762 -1555286851 299891278 857011707
REM
CELL 1.54180   15.00000   15.00000   15.00000   90.00000   90.00000   90.00000
LATT -1
SFAC C  
C      1  0.5422100000000  0.4891750000000  0.2358880000000 1.0
C      1  0.5443860000000  0.2483780000000  0.4275770000000 1.0
C      1  0.5420030000000  0.3533530000000  0.7204140000000 1.0
C      1  0.5439270000000  0.6610860000000  0.7066260000000 1.0
C      1  0.5449350000000  0.7465300000000  0.4096240000000 1.0
C      1  0.4556370000000  0.4903800000000  0.2380080000000 1.0
C      1  0.4580310000000  0.2453710000000  0.4289400000000 1.0
C      1  0.4554650000000  0.3534460000000  0.7171000000000 1.0
C      1  0.4578310000000  0.6640290000000  0.7078280000000 1.0
C      1  0.4584520000000  0.7480240000000  0.4088190000000 1.0
C      1  0.4372650000000  0.3916960000000  0.3582780000000 1.0
C      1  0.4354130000000  0.3306470000000  0.5579950000000 1.0
C      1  0.4375990000000  0.5038270000000  0.6790920000000 1.0
C      1  0.4344370000000  0.6703640000000  0.5519700000000 1.0
C      1  0.4369790000000  0.6030020000000  0.3523860000000 1.0
C      1  0.5649150000000  0.3927650000000  0.3569510000000 1.0
C      1  0.5622770000000  0.3310250000000  0.5597570000000 1.0
C      1  0.5659980000000  0.5022740000000  0.6787090000000 1.0
C      1  0.5612560000000  0.6715810000000  0.5509690000000 1.0
C      1  0.5636770000000  0.6026800000000  0.3530800000000 1.0
C      1  0.4428220000000  0.4483640000000  0.4368090000000 1.0
C      1  0.4274450000000  0.4295880000000  0.5274620000000 1.0
C      1  0.4454580000000  0.5042100000000  0.5822580000000 1.0
C      1  0.4278650000000  0.5732360000000  0.5231830000000 1.0
C      1  0.4239900000000  0.5405160000000  0.4341590000000 1.0
C      1  0.5736120000000  0.4521760000000  0.4412170000000 1.0
C      1  0.5579470000000  0.4231510000000  0.5291740000000 1.0
C      1  0.5756880000000  0.5029020000000  0.5758120000000 1.0
C      1  0.5579960000000  0.5783410000000  0.5193460000000 1.0
C      1  0.5536270000000  0.5464360000000  0.4330280000000 1.0
C      1  0.3954920000000  0.3063770000000  0.4005380000000 1.0
C      1  0.3938900000000  0.3446230000000  0.6497490000000 1.0
C      1  0.3962470000000  0.5974000000000  0.6955520000000 1.0
C      1  0.3963170000000  0.7136440000000  0.4679340000000 1.0
C      1  0.3945580000000  0.5374730000000  0.2871710000000 1.0
C      1  0.6057340000000  0.3095540000000  0.3980920000000 1.0
C      1  0.6045410000000  0.3449230000000  0.6534390000000 1.0
C      1  0.6054560000000  0.5945440000000  0.6931030000000 1.0
C      1  0.6061330000000  0.7145760000000  0.4691130000000 1.0
C      1  0.6044510000000  0.5354450000000  0.2857870000000 1.0
C      1  0.6369880000000  0.6341690000000  0.6090380000000 1.0
C      1  0.6393160000000  0.6466070000000  0.4082710000000 1.0
C      1  0.6357150000000  0.4541980000000  0.3261950000000 1.0
C      1  0.6391550000000  0.3275140000000  0.4889090000000 1.0
C      1  0.6363520000000  0.4342580000000  0.6684360000000 1.0
C      1  0.3622950000000  0.6384080000000  0.6148410000000 1.0
C      1  0.3650460000000  0.6509940000000  0.4006160000000 1.0
C      1  0.3605910000000  0.4568180000000  0.3308600000000 1.0
C      1  0.3643630000000  0.3215940000000  0.4900830000000 1.0
C      1  0.3611930000000  0.4357830000000  0.6613790000000 1.0
C      1  0.6896630000000  0.5690420000000  0.5524520000000 1.0
C      1  0.6899500000000  0.5746680000000  0.4558150000000 1.0
C      1  0.6868080000000  0.4769180000000  0.4201360000000 1.0
C      1  0.6906200000000  0.4127720000000  0.4953640000000 1.0
C      1  0.6875270000000  0.4704750000000  0.5785200000000 1.0
C      1  0.3152600000000  0.5662830000000  0.5576750000000 1.0
C      1  0.3158970000000  0.5695800000000  0.4465120000000 1.0
C      1  0.3093020000000  0.4766510000000  0.4134170000000 1.0
C      1  0.3116070000000  0.4164780000000  0.4961920000000 1.0
C      1  0.3103920000000  0.4696770000000  0.5823540000000 1.0
END
