TITL C-1525613-7943-3989 -0.000378259422036202 3375 -9532.43844433575 0 0 60 (D5d) n - 1
REM
REM in /home/nfs/bkarasulu/CARBON/AIRSS/Generating-Clusters/ReaxFF-fromJPCA2015/Units_Real/Try2-Higher-symm/Only-C60
REM
REM
REM
REM
REM
REM ./C.cell (863b2abdce7293c0672fb3ba77bf323a)
REM AIRSS Version 0.9.1 bugfix July 2018 build 013d7b7c2542+ Fri, 06 Jul 2018 19:26:36 +0100
REM compiler GCC version 9.2.1 20190827 (Red Hat 9.2.1-1)
REM options -cpp -mtune=generic -march=x86-64 -g -O0 -fpre-include=/usr/include/finclude/math-vector-fortran.h
REM seed 1776302831 -2093647720 1594123086 1123196837 88513373 1436870174 -952867611 439947812 -625551337 -83582908 -174387021 -1062478272 -564275425 -5264880 -1924520208 -1434196731 1854299927 -533937558 -2016193702 -1981073353 -669616359 -1802014024 1084668386 980077961 2032980122 -1761831845 1604598581 172245089 -992610760 924051702 1617971439 1785706512 -60968789
REM
CELL 1.54180   15.00000   15.00000   15.00000   90.00000   90.00000   90.00000
LATT -1
SFAC C  
C      1  0.3881180000000  0.6938220000000  0.6213940000000 1.0
C      1  0.2811640000000  0.4535640000000  0.6211830000000 1.0
C      1  0.4765050000000  0.2774340000000  0.6213990000000 1.0
C      1  0.7047570000000  0.4085700000000  0.6215960000000 1.0
C      1  0.6498440000000  0.6660910000000  0.6214450000000 1.0
C      1  0.3881780000000  0.3061390000000  0.6213900000000 1.0
C      1  0.2806090000000  0.5463850000000  0.6215930000000 1.0
C      1  0.4764180000000  0.7224350000000  0.6214890000000 1.0
C      1  0.7045010000000  0.5910720000000  0.6214020000000 1.0
C      1  0.6497400000000  0.3338090000000  0.6211900000000 1.0
C      1  0.2961580000000  0.5903870000000  0.3789120000000 1.0
C      1  0.3516520000000  0.3340010000000  0.3781470000000 1.0
C      1  0.6127580000000  0.3046130000000  0.3774450000000 1.0
C      1  0.7184450000000  0.5461000000000  0.3785910000000 1.0
C      1  0.5236100000000  0.7229100000000  0.3784400000000 1.0
C      1  0.2939730000000  0.4082450000000  0.3774240000000 1.0
C      1  0.3503010000000  0.6657410000000  0.3785330000000 1.0
C      1  0.6119210000000  0.6942560000000  0.3783970000000 1.0
C      1  0.7179550000000  0.4533180000000  0.3789770000000 1.0
C      1  0.5224500000000  0.2784640000000  0.3781960000000 1.0
C      1  0.5005040000000  0.6576390000000  0.6895480000000 1.0
C      1  0.3495920000000  0.5492160000000  0.6897300000000 1.0
C      1  0.4063970000000  0.3723600000000  0.6899710000000 1.0
C      1  0.5922170000000  0.3716370000000  0.6895170000000 1.0
C      1  0.6504920000000  0.5479430000000  0.6895560000000 1.0
C      1  0.5006740000000  0.3417340000000  0.6899730000000 1.0
C      1  0.3498910000000  0.4503400000000  0.6895570000000 1.0
C      1  0.4064190000000  0.6272060000000  0.6895800000000 1.0
C      1  0.5922280000000  0.6278280000000  0.6894700000000 1.0
C      1  0.6505930000000  0.4514370000000  0.6897000000000 1.0
C      1  0.6487870000000  0.4505340000000  0.3107560000000 1.0
C      1  0.5934410000000  0.6277390000000  0.3101540000000 1.0
C      1  0.4078160000000  0.6279100000000  0.3105250000000 1.0
C      1  0.3506400000000  0.4509780000000  0.3091390000000 1.0
C      1  0.4981680000000  0.3429660000000  0.3130380000000 1.0
C      1  0.6496220000000  0.5492990000000  0.3106420000000 1.0
C      1  0.5920070000000  0.3724760000000  0.3091540000000 1.0
C      1  0.4091900000000  0.3719050000000  0.3129630000000 1.0
C      1  0.3504500000000  0.5474880000000  0.3106460000000 1.0
C      1  0.4993930000000  0.6582610000000  0.3102210000000 1.0
C      1  0.2704000000000  0.4524850000000  0.4596600000000 1.0
C      1  0.4750220000000  0.2680510000000  0.4587380000000 1.0
C      1  0.7132720000000  0.4042820000000  0.4591040000000 1.0
C      1  0.6571200000000  0.6736850000000  0.4590570000000 1.0
C      1  0.3837210000000  0.7030340000000  0.4591340000000 1.0
C      1  0.2712180000000  0.5479550000000  0.4590560000000 1.0
C      1  0.4750340000000  0.7327870000000  0.4590590000000 1.0
C      1  0.7134780000000  0.5959140000000  0.4591350000000 1.0
C      1  0.6578470000000  0.3265380000000  0.4596850000000 1.0
C      1  0.3839170000000  0.2976820000000  0.4587200000000 1.0
C      1  0.6167120000000  0.2976490000000  0.5409780000000 1.0
C      1  0.7290880000000  0.5481770000000  0.5408060000000 1.0
C      1  0.5251850000000  0.7326760000000  0.5408570000000 1.0
C      1  0.2863650000000  0.5959910000000  0.5405050000000 1.0
C      1  0.3429000000000  0.3273310000000  0.5406740000000 1.0
C      1  0.6164760000000  0.7030310000000  0.5408620000000 1.0
C      1  0.7292890000000  0.4520540000000  0.5405190000000 1.0
C      1  0.5256130000000  0.2679130000000  0.5406820000000 1.0
C      1  0.2866980000000  0.4049330000000  0.5409590000000 1.0
C      1  0.3430630000000  0.6735830000000  0.5408270000000 1.0
END
