TITL C-1525613-7943-5175 -0.119297647749382 3375 -9409.44721301243 0 0 60 (C1) n - 1
REM
REM in /home/nfs/bkarasulu/CARBON/AIRSS/Generating-Clusters/ReaxFF-fromJPCA2015/Units_Real/Try2-Higher-symm/Only-C60
REM
REM
REM
REM
REM
REM ./C.cell (863b2abdce7293c0672fb3ba77bf323a)
REM AIRSS Version 0.9.1 bugfix July 2018 build 013d7b7c2542+ Fri, 06 Jul 2018 19:26:36 +0100
REM compiler GCC version 9.2.1 20190827 (Red Hat 9.2.1-1)
REM options -cpp -mtune=generic -march=x86-64 -g -O0 -fpre-include=/usr/include/finclude/math-vector-fortran.h
REM seed 2034335391 519134834 -183086997 613159862 2132053781 1228020725 677543174 -1636238232 1655103562 547918682 565475790 1089555401 1611562746 -1790549957 321199531 1485881367 -1240786411 1149155086 -365018358 -84795701 652798741 1613813090 -1948624636 6805701 -2094119933 950871394 -672162183 1433569293 -1654101012 -1359079889 -1027271487 -392947650 1560973753
REM
CELL 1.54180   15.00000   15.00000   15.00000   90.00000   90.00000   90.00000
LATT -1
SFAC C  
C      1  0.4091490000000  0.3249560000000  0.6622480000000 1.0
C      1  0.3844860000000  0.4114990000000  0.7002670000000 1.0
C      1  0.3657520000000  0.6341850000000  0.7173120000000 1.0
C      1  0.3658820000000  0.7068390000000  0.6501710000000 1.0
C      1  0.3835450000000  0.7065400000000  0.4256610000000 1.0
C      1  0.4091900000000  0.6734050000000  0.3375690000000 1.0
C      1  0.3848810000000  0.5868180000000  0.3000590000000 1.0
C      1  0.3666660000000  0.3674960000000  0.2824650000000 1.0
C      1  0.3674360000000  0.2942400000000  0.3487590000000 1.0
C      1  0.3844130000000  0.2935600000000  0.5731820000000 1.0
C      1  0.4650820000000  0.7502980000000  0.4587450000000 1.0
C      1  0.5057830000000  0.6889890000000  0.3232950000000 1.0
C      1  0.4669300000000  0.5565860000000  0.2559860000000 1.0
C      1  0.4612810000000  0.3826700000000  0.2599100000000 1.0
C      1  0.4625440000000  0.2702410000000  0.3587800000000 1.0
C      1  0.4656930000000  0.2498450000000  0.5398970000000 1.0
C      1  0.5054890000000  0.3083510000000  0.6766440000000 1.0
C      1  0.4658130000000  0.4405440000000  0.7471880000000 1.0
C      1  0.4604620000000  0.6213700000000  0.7429020000000 1.0
C      1  0.4610810000000  0.7313110000000  0.6401760000000 1.0
C      1  0.7200940000000  0.5128950000000  0.6161880000000 1.0
C      1  0.7031600000000  0.6045380000000  0.6167480000000 1.0
C      1  0.7187360000000  0.6134810000000  0.5254750000000 1.0
C      1  0.6991800000000  0.6423560000000  0.4402480000000 1.0
C      1  0.6974770000000  0.5737090000000  0.3638180000000 1.0
C      1  0.7169550000000  0.4860090000000  0.3836720000000 1.0
C      1  0.7001780000000  0.3947310000000  0.3837300000000 1.0
C      1  0.7177980000000  0.3846750000000  0.4746930000000 1.0
C      1  0.6991470000000  0.3567170000000  0.5608240000000 1.0
C      1  0.6982750000000  0.4254800000000  0.6361820000000 1.0
C      1  0.5421290000000  0.3869880000000  0.7207020000000 1.0
C      1  0.5014240000000  0.5328170000000  0.7447100000000 1.0
C      1  0.5225460000000  0.6746700000000  0.6901980000000 1.0
C      1  0.5000810000000  0.7391880000000  0.5510830000000 1.0
C      1  0.5419370000000  0.7283470000000  0.4044080000000 1.0
C      1  0.5420320000000  0.6106750000000  0.2801420000000 1.0
C      1  0.5005070000000  0.4676690000000  0.2615640000000 1.0
C      1  0.5215560000000  0.3269460000000  0.3089410000000 1.0
C      1  0.5017250000000  0.2632410000000  0.4482050000000 1.0
C      1  0.5420740000000  0.2703620000000  0.5950250000000 1.0
C      1  0.3255100000000  0.5259110000000  0.3531780000000 1.0
C      1  0.3171880000000  0.4239440000000  0.3466900000000 1.0
C      1  0.3195380000000  0.3530830000000  0.4125860000000 1.0
C      1  0.3271410000000  0.3524980000000  0.5148020000000 1.0
C      1  0.3206120000000  0.4210190000000  0.5730130000000 1.0
C      1  0.3272100000000  0.4737830000000  0.6456930000000 1.0
C      1  0.3187530000000  0.5758960000000  0.6523440000000 1.0
C      1  0.3190960000000  0.6467310000000  0.5866110000000 1.0
C      1  0.3263000000000  0.6477510000000  0.4842090000000 1.0
C      1  0.3194960000000  0.5793040000000  0.4258520000000 1.0
C      1  0.5956510000000  0.3749280000000  0.3588890000000 1.0
C      1  0.5758820000000  0.3218650000000  0.4497660000000 1.0
C      1  0.6129410000000  0.3117250000000  0.5367860000000 1.0
C      1  0.6123850000000  0.4472150000000  0.6827150000000 1.0
C      1  0.5764610000000  0.5366600000000  0.6844930000000 1.0
C      1  0.5989300000000  0.6278540000000  0.6387970000000 1.0
C      1  0.5757490000000  0.6801770000000  0.5506220000000 1.0
C      1  0.6136560000000  0.6880520000000  0.4628110000000 1.0
C      1  0.6133990000000  0.5514600000000  0.3162650000000 1.0
C      1  0.5755290000000  0.4649090000000  0.3161090000000 1.0
END
