TITL C-1525613-7943-4265 0.173632838657982 3375 -9192.35019876774 0 0 60 (D5) n - 1
REM
REM in /home/nfs/bkarasulu/CARBON/AIRSS/Generating-Clusters/ReaxFF-fromJPCA2015/Units_Real/Try2-Higher-symm/Only-C60
REM
REM
REM
REM
REM
REM ./C.cell (863b2abdce7293c0672fb3ba77bf323a)
REM AIRSS Version 0.9.1 bugfix July 2018 build 013d7b7c2542+ Fri, 06 Jul 2018 19:26:36 +0100
REM compiler GCC version 9.2.1 20190827 (Red Hat 9.2.1-1)
REM options -cpp -mtune=generic -march=x86-64 -g -O0 -fpre-include=/usr/include/finclude/math-vector-fortran.h
REM seed 775339338 -605493818 -469646911 420267843 1075207976 -611005401 -956393904 2060359666 -1482229096 -1616429576 1375451253 698611433 405087930 1841629783 1279865640 -1559810102 1425791686 461758965 -1444249445 -592584633 1931445721 -1222807867 -2066292800 -1353432722 2076133305 1668766651 -2078293590 1831371826 693354168 2131648870 -1081062205 1323405736 -523824622
REM
CELL 1.54180   15.00000   15.00000   15.00000   90.00000   90.00000   90.00000
LATT -1
SFAC C  
C      1  0.7717670000000  0.5599180000000  0.4493380000000 1.0
C      1  0.6320040000000  0.5598580000000  0.7428320000000 1.0
C      1  0.3100290000000  0.5598480000000  0.7008220000000 1.0
C      1  0.2502480000000  0.5597280000000  0.3813070000000 1.0
C      1  0.5357000000000  0.5598560000000  0.2257560000000 1.0
C      1  0.2282330000000  0.4400820000000  0.4493380000000 1.0
C      1  0.3679960000000  0.4401420000000  0.7428320000000 1.0
C      1  0.6899710000000  0.4401520000000  0.7008220000000 1.0
C      1  0.7497520000000  0.4402720000000  0.3813070000000 1.0
C      1  0.4643000000000  0.4401440000000  0.2257560000000 1.0
C      1  0.3427640000000  0.3267680000000  0.5127850000000 1.0
C      1  0.4390020000000  0.3268900000000  0.3542850000000 1.0
C      1  0.6199880000000  0.3268000000000  0.3970510000000 1.0
C      1  0.6346770000000  0.3267150000000  0.5825690000000 1.0
C      1  0.4630110000000  0.3267000000000  0.6535250000000 1.0
C      1  0.6572360000000  0.6732320000000  0.5127850000000 1.0
C      1  0.5609980000000  0.6731100000000  0.3542850000000 1.0
C      1  0.3800120000000  0.6732000000000  0.3970510000000 1.0
C      1  0.3653230000000  0.6732850000000  0.5825690000000 1.0
C      1  0.5369890000000  0.6733000000000  0.6535250000000 1.0
C      1  0.4404490000000  0.5366830000000  0.2245680000000 1.0
C      1  0.7435550000000  0.5368310000000  0.3583000000000 1.0
C      1  0.7097610000000  0.5366800000000  0.6877730000000 1.0
C      1  0.3863960000000  0.5366790000000  0.7578410000000 1.0
C      1  0.2200700000000  0.5365860000000  0.4716780000000 1.0
C      1  0.5595510000000  0.4633170000000  0.2245680000000 1.0
C      1  0.2564450000000  0.4631690000000  0.3583000000000 1.0
C      1  0.2902390000000  0.4633200000000  0.6877730000000 1.0
C      1  0.6136040000000  0.4633210000000  0.7578410000000 1.0
C      1  0.7799300000000  0.4634140000000  0.4716780000000 1.0
C      1  0.7294310000000  0.6159910000000  0.5206760000000 1.0
C      1  0.5512640000000  0.6160870000000  0.7250990000000 1.0
C      1  0.3020110000000  0.6160140000000  0.6183970000000 1.0
C      1  0.3263350000000  0.6158250000000  0.3482390000000 1.0
C      1  0.5907880000000  0.6158670000000  0.2878690000000 1.0
C      1  0.2705690000000  0.3840090000000  0.5206760000000 1.0
C      1  0.4487360000000  0.3839130000000  0.7250990000000 1.0
C      1  0.6979890000000  0.3839860000000  0.6183970000000 1.0
C      1  0.6736650000000  0.3841750000000  0.3482390000000 1.0
C      1  0.4092120000000  0.3841330000000  0.2878690000000 1.0
C      1  0.4131990000000  0.2719190000000  0.5065250000000 1.0
C      1  0.4669670000000  0.2720610000000  0.4191660000000 1.0
C      1  0.5666390000000  0.2721960000000  0.4435700000000 1.0
C      1  0.5740470000000  0.2718270000000  0.5459370000000 1.0
C      1  0.4793590000000  0.2715780000000  0.5846590000000 1.0
C      1  0.5868010000000  0.7280810000000  0.5065250000000 1.0
C      1  0.5330330000000  0.7279390000000  0.4191660000000 1.0
C      1  0.4333610000000  0.7278040000000  0.4435700000000 1.0
C      1  0.4259530000000  0.7281730000000  0.5459370000000 1.0
C      1  0.5206410000000  0.7284220000000  0.5846590000000 1.0
C      1  0.3431540000000  0.4560070000000  0.3139460000000 1.0
C      1  0.6284750000000  0.4560310000000  0.2935440000000 1.0
C      1  0.7351860000000  0.4561120000000  0.5582560000000 1.0
C      1  0.5173880000000  0.4560210000000  0.7422560000000 1.0
C      1  0.2755900000000  0.4559870000000  0.5914320000000 1.0
C      1  0.6568460000000  0.5439930000000  0.3139460000000 1.0
C      1  0.3715250000000  0.5439690000000  0.2935440000000 1.0
C      1  0.2648140000000  0.5438880000000  0.5582560000000 1.0
C      1  0.4826120000000  0.5439790000000  0.7422560000000 1.0
C      1  0.7244100000000  0.5440130000000  0.5914320000000 1.0
END
