TITL C-1525613-7943-2801 0.00132417001919675 3375 -9039.08020691907 0 0 60 (Cs) n - 1
REM
REM in /home/nfs/bkarasulu/CARBON/AIRSS/Generating-Clusters/ReaxFF-fromJPCA2015/Units_Real/Try2-Higher-symm/Only-C60
REM
REM
REM
REM
REM
REM ./C.cell (863b2abdce7293c0672fb3ba77bf323a)
REM AIRSS Version 0.9.1 bugfix July 2018 build 013d7b7c2542+ Fri, 06 Jul 2018 19:26:36 +0100
REM compiler GCC version 9.2.1 20190827 (Red Hat 9.2.1-1)
REM options -cpp -mtune=generic -march=x86-64 -g -O0 -fpre-include=/usr/include/finclude/math-vector-fortran.h
REM seed -1822882783 -789928960 619137121 -1099871603 964390482 -543579214 1019158034 1270823752 -297738220 1848175455 -947468062 2050862374 865981602 -19013946 323099557 -1132204325 778611251 1347518534 964418992 -1858149216 -908246088 -1673816178 905917881 216534624 1164197698 427629114 -1037546951 -286953396 1065555175 667534647 -238573748 -505545631 1887181361
REM
CELL 1.54180   15.00000   15.00000   15.00000   90.00000   90.00000   90.00000
LATT -1
SFAC C  
C      1  0.2714170000000  0.3637230000000  0.4574010000000 1.0
C      1  0.2721280000000  0.4168520000000  0.6169860000000 1.0
C      1  0.2753440000000  0.5843610000000  0.6129030000000 1.0
C      1  0.2718640000000  0.6356660000000  0.4530230000000 1.0
C      1  0.2712540000000  0.4980820000000  0.3567770000000 1.0
C      1  0.7285830000000  0.3637230000000  0.4574010000000 1.0
C      1  0.7278720000000  0.4168520000000  0.6169860000000 1.0
C      1  0.7246560000000  0.5843610000000  0.6129030000000 1.0
C      1  0.7281360000000  0.6356660000000  0.4530230000000 1.0
C      1  0.7287460000000  0.4980820000000  0.3567770000000 1.0
C      1  0.5484040000000  0.2769400000000  0.4792450000000 1.0
C      1  0.5490500000000  0.4142410000000  0.7107360000000 1.0
C      1  0.5487480000000  0.6711810000000  0.6470790000000 1.0
C      1  0.5483340000000  0.6917990000000  0.3854820000000 1.0
C      1  0.5491250000000  0.4457210000000  0.2795110000000 1.0
C      1  0.4515960000000  0.2769400000000  0.4792450000000 1.0
C      1  0.4509500000000  0.4142410000000  0.7107360000000 1.0
C      1  0.4512520000000  0.6711810000000  0.6470790000000 1.0
C      1  0.4516660000000  0.6917990000000  0.3854820000000 1.0
C      1  0.4508750000000  0.4457210000000  0.2795110000000 1.0
C      1  0.4453180000000  0.4987410000000  0.5808640000000 1.0
C      1  0.4478300000000  0.5774050000000  0.5206370000000 1.0
C      1  0.4223630000000  0.5440550000000  0.4362310000000 1.0
C      1  0.4449640000000  0.4529670000000  0.4366180000000 1.0
C      1  0.4221020000000  0.4252190000000  0.5240320000000 1.0
C      1  0.5546820000000  0.4987410000000  0.5808640000000 1.0
C      1  0.5521700000000  0.5774050000000  0.5206370000000 1.0
C      1  0.5776370000000  0.5440550000000  0.4362310000000 1.0
C      1  0.5550360000000  0.4529670000000  0.4366180000000 1.0
C      1  0.5778980000000  0.4252190000000  0.5240320000000 1.0
C      1  0.5958460000000  0.5030140000000  0.6816140000000 1.0
C      1  0.5948530000000  0.6715130000000  0.5533740000000 1.0
C      1  0.5972960000000  0.5998010000000  0.3577580000000 1.0
C      1  0.5961040000000  0.3924540000000  0.3556990000000 1.0
C      1  0.5972380000000  0.3343760000000  0.5555070000000 1.0
C      1  0.4041540000000  0.5030140000000  0.6816140000000 1.0
C      1  0.4051470000000  0.6715130000000  0.5533740000000 1.0
C      1  0.4027040000000  0.5998010000000  0.3577580000000 1.0
C      1  0.4038960000000  0.3924540000000  0.3556990000000 1.0
C      1  0.4027620000000  0.3343760000000  0.5555070000000 1.0
C      1  0.7025270000000  0.5915360000000  0.3697440000000 1.0
C      1  0.6969750000000  0.4060960000000  0.3740100000000 1.0
C      1  0.7019070000000  0.3498910000000  0.5507210000000 1.0
C      1  0.6963400000000  0.5014790000000  0.6576670000000 1.0
C      1  0.6956280000000  0.6498380000000  0.5456100000000 1.0
C      1  0.2974730000000  0.5915360000000  0.3697440000000 1.0
C      1  0.3030250000000  0.4060960000000  0.3740100000000 1.0
C      1  0.2980930000000  0.3498910000000  0.5507210000000 1.0
C      1  0.3036600000000  0.5014790000000  0.6576670000000 1.0
C      1  0.3043720000000  0.6498380000000  0.5456100000000 1.0
C      1  0.4508900000000  0.3042700000000  0.3852760000000 1.0
C      1  0.4516950000000  0.3362050000000  0.6515370000000 1.0
C      1  0.4511970000000  0.5927670000000  0.7064600000000 1.0
C      1  0.4509690000000  0.7262590000000  0.4771030000000 1.0
C      1  0.4516010000000  0.5435470000000  0.2803940000000 1.0
C      1  0.5491100000000  0.3042700000000  0.3852760000000 1.0
C      1  0.5483050000000  0.3362050000000  0.6515370000000 1.0
C      1  0.5488030000000  0.5927670000000  0.7064600000000 1.0
C      1  0.5490310000000  0.7262590000000  0.4771030000000 1.0
C      1  0.5483990000000  0.5435470000000  0.2803940000000 1.0
END
