TITL C-1525613-7943-2004 0.00534808981361571 3375 -9158.27395655165 0 0 60 (C5v) n - 1
REM
REM in /home/nfs/bkarasulu/CARBON/AIRSS/Generating-Clusters/ReaxFF-fromJPCA2015/Units_Real/Try2-Higher-symm/Only-C60
REM
REM
REM
REM
REM
REM ./C.cell (863b2abdce7293c0672fb3ba77bf323a)
REM AIRSS Version 0.9.1 bugfix July 2018 build 013d7b7c2542+ Fri, 06 Jul 2018 19:26:36 +0100
REM compiler GCC version 9.2.1 20190827 (Red Hat 9.2.1-1)
REM options -cpp -mtune=generic -march=x86-64 -g -O0 -fpre-include=/usr/include/finclude/math-vector-fortran.h
REM seed 390825291 951286344 198772538 -1001993602 1870047473 -287710395 -1454521783 -2129742415 1634437285 -663599874 1755054344 437545487 65079708 -627461162 1439813290 -1695471575 2001528450 -815611603 -806809599 -462431772 1429006972 -2085905231 2067876909 -1560080161 376805316 1591807257 -1257549886 -832787706 968865208 515952894 599071182 471360981 -1867443863
REM
CELL 1.54180   15.00000   15.00000   15.00000   90.00000   90.00000   90.00000
LATT -1
SFAC C  
C      1  0.2267890000000  0.4662630000000  0.4445410000000 1.0
C      1  0.2612980000000  0.4669190000000  0.3568670000000 1.0
C      1  0.4664920000000  0.4673750000000  0.2233430000000 1.0
C      1  0.5606010000000  0.4671830000000  0.2275260000000 1.0
C      1  0.7527510000000  0.4665990000000  0.3852380000000 1.0
C      1  0.7776820000000  0.4666030000000  0.4756470000000 1.0
C      1  0.6874070000000  0.4673260000000  0.7066060000000 1.0
C      1  0.6078580000000  0.4679440000000  0.7569940000000 1.0
C      1  0.3630120000000  0.4669560000000  0.7425300000000 1.0
C      1  0.2897240000000  0.4671550000000  0.6830630000000 1.0
C      1  0.5113370000000  0.6097760000000  0.2591210000000 1.0
C      1  0.6466370000000  0.5892410000000  0.3178550000000 1.0
C      1  0.7338610000000  0.6097810000000  0.4371710000000 1.0
C      1  0.7182780000000  0.5895910000000  0.5841880000000 1.0
C      1  0.6305010000000  0.6099450000000  0.7020530000000 1.0
C      1  0.4876370000000  0.5874160000000  0.7295080000000 1.0
C      1  0.3503670000000  0.6059710000000  0.6846480000000 1.0
C      1  0.2768810000000  0.5874850000000  0.5599520000000 1.0
C      1  0.2763380000000  0.6077520000000  0.4140040000000 1.0
C      1  0.3744240000000  0.5864580000000  0.3073170000000 1.0
C      1  0.6359120000000  0.3584210000000  0.3339800000000 1.0
C      1  0.7062230000000  0.3415450000000  0.4467290000000 1.0
C      1  0.7011660000000  0.3576920000000  0.5792860000000 1.0
C      1  0.6151730000000  0.3416880000000  0.6801840000000 1.0
C      1  0.4873640000000  0.3566790000000  0.7156500000000 1.0
C      1  0.3652320000000  0.3409390000000  0.6639030000000 1.0
C      1  0.2899490000000  0.3562040000000  0.5546400000000 1.0
C      1  0.3006650000000  0.3403160000000  0.4226300000000 1.0
C      1  0.3831600000000  0.3563490000000  0.3189770000000 1.0
C      1  0.5120940000000  0.3416690000000  0.2871810000000 1.0
C      1  0.6443200000000  0.6456100000000  0.5551170000000 1.0
C      1  0.5852680000000  0.6581190000000  0.6310700000000 1.0
C      1  0.4919160000000  0.6443050000000  0.6534050000000 1.0
C      1  0.4007650000000  0.6558580000000  0.6222530000000 1.0
C      1  0.3505500000000  0.6448460000000  0.5401260000000 1.0
C      1  0.3535110000000  0.6572170000000  0.4441490000000 1.0
C      1  0.4158900000000  0.6437600000000  0.3712470000000 1.0
C      1  0.5077150000000  0.6581360000000  0.3432680000000 1.0
C      1  0.5970320000000  0.6455260000000  0.3796270000000 1.0
C      1  0.6519460000000  0.6578020000000  0.4589180000000 1.0
C      1  0.7503320000000  0.3783810000000  0.5111780000000 1.0
C      1  0.6910950000000  0.3786130000000  0.6626920000000 1.0
C      1  0.5669890000000  0.3790600000000  0.7412060000000 1.0
C      1  0.4049860000000  0.3776820000000  0.7312000000000 1.0
C      1  0.2918600000000  0.3783880000000  0.6383000000000 1.0
C      1  0.2491660000000  0.3773010000000  0.4812640000000 1.0
C      1  0.3037860000000  0.3778490000000  0.3452560000000 1.0
C      1  0.4398620000000  0.3780700000000  0.2571540000000 1.0
C      1  0.5865110000000  0.3794810000000  0.2657950000000 1.0
C      1  0.7123950000000  0.3779790000000  0.3687300000000 1.0
C      1  0.7060510000000  0.5562650000000  0.6744460000000 1.0
C      1  0.5719650000000  0.5567850000000  0.7563370000000 1.0
C      1  0.4002000000000  0.5559620000000  0.7455390000000 1.0
C      1  0.2803850000000  0.5566780000000  0.6488470000000 1.0
C      1  0.2332350000000  0.5548660000000  0.4816000000000 1.0
C      1  0.2911490000000  0.5556160000000  0.3360640000000 1.0
C      1  0.4340500000000  0.5556620000000  0.2418740000000 1.0
C      1  0.5911080000000  0.5568310000000  0.2452970000000 1.0
C      1  0.7287160000000  0.5555670000000  0.3571370000000 1.0
C      1  0.7704310000000  0.5565420000000  0.5095690000000 1.0
END
