TITL C-1525613-7943-4102 -0.174989295265075 3375 -8605.56869184178 0 0 60 (C1) n - 1
REM
REM in /home/nfs/bkarasulu/CARBON/AIRSS/Generating-Clusters/ReaxFF-fromJPCA2015/Units_Real/Try2-Higher-symm/Only-C60
REM
REM
REM
REM
REM
REM ./C.cell (863b2abdce7293c0672fb3ba77bf323a)
REM AIRSS Version 0.9.1 bugfix July 2018 build 013d7b7c2542+ Fri, 06 Jul 2018 19:26:36 +0100
REM compiler GCC version 9.2.1 20190827 (Red Hat 9.2.1-1)
REM options -cpp -mtune=generic -march=x86-64 -g -O0 -fpre-include=/usr/include/finclude/math-vector-fortran.h
REM seed 59448035 1683116828 -2084593551 -812404950 -242843662 305153774 1974901381 -181310365 1204759092 -77966178 -1501946026 673452160 -786432390 467920942 -1529717493 -18850172 2051388055 1552483457 146829049 1016439319 -409700292 626906003 1211054018 1636837319 939499560 -96359861 -1100519598 -1007816610 931652387 -1835741949 613661445 1477968 1299124001
REM
CELL 1.54180   15.00000   15.00000   15.00000   90.00000   90.00000   90.00000
LATT -1
SFAC C  
C      1  0.4188590000000  0.3780830000000  0.6820310000000 1.0
C      1  0.3428840000000  0.5378890000000  0.6950540000000 1.0
C      1  0.4936280000000  0.6460590000000  0.6851060000000 1.0
C      1  0.6440240000000  0.5546570000000  0.6947360000000 1.0
C      1  0.6038740000000  0.3822220000000  0.6993200000000 1.0
C      1  0.4182770000000  0.3788860000000  0.3170740000000 1.0
C      1  0.3413310000000  0.5368470000000  0.3029820000000 1.0
C      1  0.4933040000000  0.6406900000000  0.3187760000000 1.0
C      1  0.6428150000000  0.5535620000000  0.3060750000000 1.0
C      1  0.6056380000000  0.3833100000000  0.3011980000000 1.0
C      1  0.2976410000000  0.5815130000000  0.5490470000000 1.0
C      1  0.5203870000000  0.7127000000000  0.5495580000000 1.0
C      1  0.7170300000000  0.5475620000000  0.5491970000000 1.0
C      1  0.6168350000000  0.3183660000000  0.5466910000000 1.0
C      1  0.3616530000000  0.3404440000000  0.5477990000000 1.0
C      1  0.2973330000000  0.5808910000000  0.4507590000000 1.0
C      1  0.5215040000000  0.7109680000000  0.4524600000000 1.0
C      1  0.7177290000000  0.5475780000000  0.4515370000000 1.0
C      1  0.6157100000000  0.3200240000000  0.4485360000000 1.0
C      1  0.3598700000000  0.3402220000000  0.4513870000000 1.0
C      1  0.6761240000000  0.4691600000000  0.5889440000000 1.0
C      1  0.5296200000000  0.3348370000000  0.5873890000000 1.0
C      1  0.3212420000000  0.4197210000000  0.5932180000000 1.0
C      1  0.3769990000000  0.6240800000000  0.5877950000000 1.0
C      1  0.5925540000000  0.6557520000000  0.5845130000000 1.0
C      1  0.6796620000000  0.4691480000000  0.4090400000000 1.0
C      1  0.5237850000000  0.3374590000000  0.4191570000000 1.0
C      1  0.3207330000000  0.4203490000000  0.4070290000000 1.0
C      1  0.3759230000000  0.6229620000000  0.4100360000000 1.0
C      1  0.5968170000000  0.6637770000000  0.4099490000000 1.0
C      1  0.6593470000000  0.3750000000000  0.6154450000000 1.0
C      1  0.4354050000000  0.3150950000000  0.6075520000000 1.0
C      1  0.2888840000000  0.5097760000000  0.6161280000000 1.0
C      1  0.4462010000000  0.6898350000000  0.6107270000000 1.0
C      1  0.6745500000000  0.6076680000000  0.6172290000000 1.0
C      1  0.6628550000000  0.3761380000000  0.3825270000000 1.0
C      1  0.4330660000000  0.3147490000000  0.3908530000000 1.0
C      1  0.2881100000000  0.5096810000000  0.3833430000000 1.0
C      1  0.4466540000000  0.6893570000000  0.3908220000000 1.0
C      1  0.6750980000000  0.6070870000000  0.3828710000000 1.0
C      1  0.4130430000000  0.4485320000000  0.6123570000000 1.0
C      1  0.4175260000000  0.5424290000000  0.6287990000000 1.0
C      1  0.5324340000000  0.5858320000000  0.6138730000000 1.0
C      1  0.5839430000000  0.5015860000000  0.6230200000000 1.0
C      1  0.5367400000000  0.4175440000000  0.6380280000000 1.0
C      1  0.4127670000000  0.4499450000000  0.3868900000000 1.0
C      1  0.4156110000000  0.5429870000000  0.3675360000000 1.0
C      1  0.5361090000000  0.5898190000000  0.3916530000000 1.0
C      1  0.5838200000000  0.5027050000000  0.3815370000000 1.0
C      1  0.5375730000000  0.4168820000000  0.3636410000000 1.0
C      1  0.4879670000000  0.5813000000000  0.7582140000000 1.0
C      1  0.5764330000000  0.5365790000000  0.7624750000000 1.0
C      1  0.5590390000000  0.4392930000000  0.7659490000000 1.0
C      1  0.4614160000000  0.4288090000000  0.7565310000000 1.0
C      1  0.4151950000000  0.5152730000000  0.7595000000000 1.0
C      1  0.4864340000000  0.5793820000000  0.2432390000000 1.0
C      1  0.5756890000000  0.5359450000000  0.2379320000000 1.0
C      1  0.5592740000000  0.4389410000000  0.2342230000000 1.0
C      1  0.4614720000000  0.4283680000000  0.2427070000000 1.0
C      1  0.4135610000000  0.5137440000000  0.2380020000000 1.0
END
