TITL C-1525613-7943-4429 0.0839588126658211 3375 -8752.44128902915 0 0 60 (C1) n - 1
REM
REM in /home/nfs/bkarasulu/CARBON/AIRSS/Generating-Clusters/ReaxFF-fromJPCA2015/Units_Real/Try2-Higher-symm/Only-C60
REM
REM
REM
REM
REM
REM ./C.cell (863b2abdce7293c0672fb3ba77bf323a)
REM AIRSS Version 0.9.1 bugfix July 2018 build 013d7b7c2542+ Fri, 06 Jul 2018 19:26:36 +0100
REM compiler GCC version 9.2.1 20190827 (Red Hat 9.2.1-1)
REM options -cpp -mtune=generic -march=x86-64 -g -O0 -fpre-include=/usr/include/finclude/math-vector-fortran.h
REM seed -1140312584 -924886305 -1884941659 -1273431217 511647408 -784421855 1127383483 666871933 1203997674 1444001191 787675626 -905849399 1621581208 -1182725921 -1009681423 -2078876564 1758924768 -1457511125 -2085840128 -1355480814 -1228945611 292889450 -1744611703 -1403924950 -1706597866 -209813450 -862548912 -910310234 -1678513219 -1898865218 2075256993 -1244255841 -23595099
REM
CELL 1.54180   15.00000   15.00000   15.00000   90.00000   90.00000   90.00000
LATT -1
SFAC C  
C      1  0.5283560000000  0.5908920000000  0.2797180000000 1.0
C      1  0.5056420000000  0.2813240000000  0.3248960000000 1.0
C      1  0.4882730000000  0.2457980000000  0.6686120000000 1.0
C      1  0.4861780000000  0.5970970000000  0.7766960000000 1.0
C      1  0.4795010000000  0.7892920000000  0.4824350000000 1.0
C      1  0.4768320000000  0.4300850000000  0.2227080000000 1.0
C      1  0.5219320000000  0.6903090000000  0.3472670000000 1.0
C      1  0.5072210000000  0.7315380000000  0.6523310000000 1.0
C      1  0.5000420000000  0.4176730000000  0.7875050000000 1.0
C      1  0.4857820000000  0.2006700000000  0.4958960000000 1.0
C      1  0.3560660000000  0.6215730000000  0.4122980000000 1.0
C      1  0.3504290000000  0.4410970000000  0.3497560000000 1.0
C      1  0.3698990000000  0.3341880000000  0.5000510000000 1.0
C      1  0.3867870000000  0.4455000000000  0.6483890000000 1.0
C      1  0.3816830000000  0.6219010000000  0.5911490000000 1.0
C      1  0.3730370000000  0.3645350000000  0.4079650000000 1.0
C      1  0.3739160000000  0.5337690000000  0.3663110000000 1.0
C      1  0.3566520000000  0.6575820000000  0.5026260000000 1.0
C      1  0.3728520000000  0.5444060000000  0.6489200000000 1.0
C      1  0.3773730000000  0.3652890000000  0.5942490000000 1.0
C      1  0.4875440000000  0.7818590000000  0.3109730000000 1.0
C      1  0.4600420000000  0.5059590000000  0.1587630000000 1.0
C      1  0.4856590000000  0.1412830000000  0.4160000000000 1.0
C      1  0.4997160000000  0.3249080000000  0.8255990000000 1.0
C      1  0.5136700000000  0.7612180000000  0.7479020000000 1.0
C      1  0.5160060000000  0.1821400000000  0.3299680000000 1.0
C      1  0.4828900000000  0.5973150000000  0.1865200000000 1.0
C      1  0.4646000000000  0.8316380000000  0.3925530000000 1.0
C      1  0.4787530000000  0.6907940000000  0.8097060000000 1.0
C      1  0.4878590000000  0.2452450000000  0.7683250000000 1.0
C      1  0.4069170000000  0.2734930000000  0.6209270000000 1.0
C      1  0.4081780000000  0.5481630000000  0.7422580000000 1.0
C      1  0.4043410000000  0.7437100000000  0.5241630000000 1.0
C      1  0.4667160000000  0.5620030000000  0.3551830000000 1.0
C      1  0.4153840000000  0.3193120000000  0.3297650000000 1.0
C      1  0.4188740000000  0.7116000000000  0.6155530000000 1.0
C      1  0.4175350000000  0.4510480000000  0.7429840000000 1.0
C      1  0.4036650000000  0.2444720000000  0.5275620000000 1.0
C      1  0.4006570000000  0.3983330000000  0.2737160000000 1.0
C      1  0.4508270000000  0.6434100000000  0.3990760000000 1.0
C      1  0.6855390000000  0.5250660000000  0.2326710000000 1.0
C      1  0.6408650000000  0.3364550000000  0.3987330000000 1.0
C      1  0.6058750000000  0.3387780000000  0.6597290000000 1.0
C      1  0.6220560000000  0.6078460000000  0.6840850000000 1.0
C      1  0.6657190000000  0.8079510000000  0.4642190000000 1.0
C      1  0.6615820000000  0.4361290000000  0.1975720000000 1.0
C      1  0.6839520000000  0.7456840000000  0.3899680000000 1.0
C      1  0.6469130000000  0.6527270000000  0.6254590000000 1.0
C      1  0.6113970000000  0.4023930000000  0.7048690000000 1.0
C      1  0.6155140000000  0.2944850000000  0.4591380000000 1.0
C      1  0.5744300000000  0.7539240000000  0.4961080000000 1.0
C      1  0.5991240000000  0.5203340000000  0.2870870000000 1.0
C      1  0.5812170000000  0.3446030000000  0.3315830000000 1.0
C      1  0.5733910000000  0.2623470000000  0.6201590000000 1.0
C      1  0.5760210000000  0.5630850000000  0.7517020000000 1.0
C      1  0.5711380000000  0.2428650000000  0.5231190000000 1.0
C      1  0.5715480000000  0.4267910000000  0.2612990000000 1.0
C      1  0.5958350000000  0.7000310000000  0.4139600000000 1.0
C      1  0.5853510000000  0.7105140000000  0.5950980000000 1.0
C      1  0.5842460000000  0.4655690000000  0.7661720000000 1.0
END
