TITL C-1525613-7943-4594 0.465445494693787 3375 -8421.94844676821 0 0 60 (C2) n - 1
REM
REM in /home/nfs/bkarasulu/CARBON/AIRSS/Generating-Clusters/ReaxFF-fromJPCA2015/Units_Real/Try2-Higher-symm/Only-C60
REM
REM
REM
REM
REM
REM ./C.cell (863b2abdce7293c0672fb3ba77bf323a)
REM AIRSS Version 0.9.1 bugfix July 2018 build 013d7b7c2542+ Fri, 06 Jul 2018 19:26:36 +0100
REM compiler GCC version 9.2.1 20190827 (Red Hat 9.2.1-1)
REM options -cpp -mtune=generic -march=x86-64 -g -O0 -fpre-include=/usr/include/finclude/math-vector-fortran.h
REM seed 212379389 -1454880783 99467637 -1941820450 599465483 1010698709 -1417108761 2006776645 717096121 -247577622 -1773162054 1431402106 -255059762 -1307365365 894120724 -674995075 -1468697276 1015031213 1312253897 1308165414 -1295530526 -1389510467 -508565413 1356566402 -306585507 1881726091 -820558819 1196770844 1860946991 160553244 816911529 2038723941 1825091966
REM
CELL 1.54180   15.00000   15.00000   15.00000   90.00000   90.00000   90.00000
LATT -1
SFAC C  
C      1  0.6907180000000  0.6423960000000  0.4021940000000 1.0
C      1  0.4674640000000  0.6396720000000  0.2932650000000 1.0
C      1  0.3042510000000  0.6196190000000  0.4775850000000 1.0
C      1  0.3899970000000  0.6325040000000  0.6797050000000 1.0
C      1  0.6482060000000  0.6409770000000  0.6508020000000 1.0
C      1  0.6907300000000  0.3576130000000  0.5978020000000 1.0
C      1  0.4674770000000  0.3603350000000  0.7067590000000 1.0
C      1  0.3043080000000  0.3804680000000  0.5223190000000 1.0
C      1  0.3900420000000  0.3675100000000  0.3202700000000 1.0
C      1  0.6482100000000  0.3590100000000  0.3492040000000 1.0
C      1  0.7101820000000  0.6411470000000  0.5345230000000 1.0
C      1  0.6004390000000  0.6406190000000  0.3070990000000 1.0
C      1  0.3373840000000  0.6380900000000  0.3389040000000 1.0
C      1  0.3195470000000  0.6346200000000  0.6128340000000 1.0
C      1  0.5250440000000  0.6333750000000  0.7018700000000 1.0
C      1  0.7101800000000  0.3588540000000  0.4654700000000 1.0
C      1  0.6004380000000  0.3594030000000  0.6928980000000 1.0
C      1  0.3374100000000  0.3619360000000  0.6612130000000 1.0
C      1  0.3195330000000  0.3653520000000  0.3871320000000 1.0
C      1  0.5250590000000  0.3666230000000  0.2981250000000 1.0
C      1  0.4645480000000  0.6966280000000  0.6706760000000 1.0
C      1  0.6577130000000  0.7049200000000  0.5812880000000 1.0
C      1  0.6252080000000  0.7044080000000  0.3725680000000 1.0
C      1  0.4156620000000  0.7017110000000  0.3402560000000 1.0
C      1  0.3276110000000  0.6920270000000  0.5328360000000 1.0
C      1  0.4645320000000  0.3033700000000  0.3293230000000 1.0
C      1  0.6577170000000  0.2950760000000  0.4187230000000 1.0
C      1  0.6252060000000  0.2955830000000  0.6274450000000 1.0
C      1  0.4156770000000  0.2983010000000  0.6597710000000 1.0
C      1  0.3276400000000  0.3079940000000  0.4671330000000 1.0
C      1  0.5391390000000  0.5687360000000  0.5648750000000 1.0
C      1  0.5824180000000  0.5678550000000  0.4819240000000 1.0
C      1  0.5167660000000  0.5681450000000  0.4141460000000 1.0
C      1  0.4317930000000  0.5702000000000  0.4560070000000 1.0
C      1  0.4469620000000  0.5687980000000  0.5498040000000 1.0
C      1  0.5391260000000  0.4312160000000  0.4351660000000 1.0
C      1  0.5823630000000  0.4321410000000  0.5180860000000 1.0
C      1  0.5167270000000  0.4318810000000  0.5857650000000 1.0
C      1  0.4317880000000  0.4298560000000  0.5439790000000 1.0
C      1  0.4469450000000  0.4310470000000  0.4502190000000 1.0
C      1  0.4153170000000  0.2608100000000  0.4874920000000 1.0
C      1  0.4591070000000  0.2599110000000  0.5731940000000 1.0
C      1  0.5534240000000  0.2592420000000  0.5578940000000 1.0
C      1  0.5692900000000  0.2590560000000  0.4645180000000 1.0
C      1  0.4842820000000  0.2601840000000  0.4201880000000 1.0
C      1  0.4153220000000  0.7391890000000  0.5124990000000 1.0
C      1  0.4591000000000  0.7400880000000  0.4267830000000 1.0
C      1  0.5534340000000  0.7407550000000  0.4420990000000 1.0
C      1  0.5692920000000  0.7409440000000  0.5354860000000 1.0
C      1  0.4842800000000  0.7398130000000  0.5798200000000 1.0
C      1  0.5829300000000  0.4276510000000  0.3416940000000 1.0
C      1  0.3784970000000  0.4385710000000  0.3832210000000 1.0
C      1  0.3387250000000  0.4383780000000  0.5904120000000 1.0
C      1  0.5328540000000  0.4259940000000  0.6865700000000 1.0
C      1  0.6844680000000  0.4236880000000  0.5300140000000 1.0
C      1  0.5829490000000  0.5723420000000  0.6583440000000 1.0
C      1  0.3785070000000  0.5614100000000  0.6167780000000 1.0
C      1  0.3386860000000  0.5615990000000  0.4096610000000 1.0
C      1  0.5328450000000  0.5740440000000  0.3133850000000 1.0
C      1  0.6845330000000  0.5763150000000  0.4699880000000 1.0
END
