TITL C-1525613-7943-6078 0.0462687229471221 3375 -8912.07789741868 0 0 60 (Ci) n - 1
REM
REM in /home/nfs/bkarasulu/CARBON/AIRSS/Generating-Clusters/ReaxFF-fromJPCA2015/Units_Real/Try2-Higher-symm/Only-C60
REM
REM
REM
REM
REM
REM ./C.cell (863b2abdce7293c0672fb3ba77bf323a)
REM AIRSS Version 0.9.1 bugfix July 2018 build 013d7b7c2542+ Fri, 06 Jul 2018 19:26:36 +0100
REM compiler GCC version 9.2.1 20190827 (Red Hat 9.2.1-1)
REM options -cpp -mtune=generic -march=x86-64 -g -O0 -fpre-include=/usr/include/finclude/math-vector-fortran.h
REM seed 108703875 -1449179771 -112310240 -1135743545 -1366641660 -1181866807 1418718907 -2075486406 -676195216 2041062951 -1703202618 1355144096 -276508554 -1217412139 279908071 -219839637 -134523779 -781558237 -1469418345 -1281259139 -776416514 328634222 1617872193 -992645408 -1684158501 -1675268905 -1384674644 -338508054 -1488325965 1718425820 -643831660 -926932734 1179251208
REM
CELL 1.54180   15.00000   15.00000   15.00000   90.00000   90.00000   90.00000
LATT -1
SFAC C  
C      1  0.6977790000000  0.4242840000000  0.4620180000000 1.0
C      1  0.2990300000000  0.4094670000000  0.5013840000000 1.0
C      1  0.6978070000000  0.4349260000000  0.5586540000000 1.0
C      1  0.3164250000000  0.4782370000000  0.5757260000000 1.0
C      1  0.6954550000000  0.5337210000000  0.5787500000000 1.0
C      1  0.3022500000000  0.5758330000000  0.5381180000000 1.0
C      1  0.7011130000000  0.5905130000000  0.4983740000000 1.0
C      1  0.3022940000000  0.5651000000000  0.4414890000000 1.0
C      1  0.6834610000000  0.5218150000000  0.4243850000000 1.0
C      1  0.3045500000000  0.4662220000000  0.4210460000000 1.0
C      1  0.6412930000000  0.5364200000000  0.3283320000000 1.0
C      1  0.3572660000000  0.4299960000000  0.3465500000000 1.0
C      1  0.6522470000000  0.3558550000000  0.4139440000000 1.0
C      1  0.3587930000000  0.3330800000000  0.5179780000000 1.0
C      1  0.6569120000000  0.3651270000000  0.6184360000000 1.0
C      1  0.3588300000000  0.4635440000000  0.6714870000000 1.0
C      1  0.6426840000000  0.5700620000000  0.6531120000000 1.0
C      1  0.3477500000000  0.6442300000000  0.5861950000000 1.0
C      1  0.6413000000000  0.6669970000000  0.4817920000000 1.0
C      1  0.3427370000000  0.6351500000000  0.3817000000000 1.0
C      1  0.4412750000000  0.4592250000000  0.4537600000000 1.0
C      1  0.5611010000000  0.3984590000000  0.5056290000000 1.0
C      1  0.4161990000000  0.4660630000000  0.5462890000000 1.0
C      1  0.5583090000000  0.4513660000000  0.5815000000000 1.0
C      1  0.4669920000000  0.5476280000000  0.5656200000000 1.0
C      1  0.5586990000000  0.5409780000000  0.5463970000000 1.0
C      1  0.4387520000000  0.6017300000000  0.4945900000000 1.0
C      1  0.5835910000000  0.5340410000000  0.4536870000000 1.0
C      1  0.4416190000000  0.5487810000000  0.4187470000000 1.0
C      1  0.5327430000000  0.4522920000000  0.4345740000000 1.0
C      1  0.4137470000000  0.3210900000000  0.5994260000000 1.0
C      1  0.5972810000000  0.4119080000000  0.6877990000000 1.0
C      1  0.4120340000000  0.5364980000000  0.7068250000000 1.0
C      1  0.5886360000000  0.6555440000000  0.6432470000000 1.0
C      1  0.4022120000000  0.6998340000000  0.5196710000000 1.0
C      1  0.5864650000000  0.6790570000000  0.4004180000000 1.0
C      1  0.4030090000000  0.5877850000000  0.3132130000000 1.0
C      1  0.5879790000000  0.4634370000000  0.2933520000000 1.0
C      1  0.4111190000000  0.3444780000000  0.3565850000000 1.0
C      1  0.5978710000000  0.2998720000000  0.4803990000000 1.0
C      1  0.5851410000000  0.6160510000000  0.3255630000000 1.0
C      1  0.4036540000000  0.4908470000000  0.2872300000000 1.0
C      1  0.5939310000000  0.3710870000000  0.3342610000000 1.0
C      1  0.4152520000000  0.2977880000000  0.4457100000000 1.0
C      1  0.5990150000000  0.2938940000000  0.5819540000000 1.0
C      1  0.4150870000000  0.3838720000000  0.6743230000000 1.0
C      1  0.5963260000000  0.5090780000000  0.7123510000000 1.0
C      1  0.4059050000000  0.6287280000000  0.6658690000000 1.0
C      1  0.5848560000000  0.7022160000000  0.5539870000000 1.0
C      1  0.4010090000000  0.7060440000000  0.4180480000000 1.0
C      1  0.4998650000000  0.4064220000000  0.7200540000000 1.0
C      1  0.4994360000000  0.5007180000000  0.7371100000000 1.0
C      1  0.4975350000000  0.6492430000000  0.6586890000000 1.0
C      1  0.5020480000000  0.7361590000000  0.5142030000000 1.0
C      1  0.5008190000000  0.7243500000000  0.4200700000000 1.0
C      1  0.5002310000000  0.5934360000000  0.2799040000000 1.0
C      1  0.5005880000000  0.4991890000000  0.2628610000000 1.0
C      1  0.5023030000000  0.3506350000000  0.3414340000000 1.0
C      1  0.4981580000000  0.2639170000000  0.4854760000000 1.0
C      1  0.4992340000000  0.2756800000000  0.5797060000000 1.0
END
