TITL C-1525613-7943-2562 0.0594905069776744 3375 -9140.97666275314 0 0 60 (C1) n - 1
REM
REM in /home/nfs/bkarasulu/CARBON/AIRSS/Generating-Clusters/ReaxFF-fromJPCA2015/Units_Real/Try2-Higher-symm/Only-C60
REM
REM
REM
REM
REM
REM ./C.cell (863b2abdce7293c0672fb3ba77bf323a)
REM AIRSS Version 0.9.1 bugfix July 2018 build 013d7b7c2542+ Fri, 06 Jul 2018 19:26:36 +0100
REM compiler GCC version 9.2.1 20190827 (Red Hat 9.2.1-1)
REM options -cpp -mtune=generic -march=x86-64 -g -O0 -fpre-include=/usr/include/finclude/math-vector-fortran.h
REM seed -1488233858 -2059108132 -1939709080 -949217061 -1508215803 515261199 -458741539 1195201109 -672514555 -924261598 -842623947 -1311229201 -256495303 904961468 1913055432 146999586 799573035 -970599467 627098837 1287953173 1442045563 -1092020976 -961358238 1907038148 -165941532 984038425 1458331154 -1352735217 -1951784981 1859416621 -68965456 -1519926335 1897795939
REM
CELL 1.54180   15.00000   15.00000   15.00000   90.00000   90.00000   90.00000
LATT -1
SFAC C  
C      1  0.5502010000000  0.7152920000000  0.2300140000000 1.0
C      1  0.2574410000000  0.7138450000000  0.3709610000000 1.0
C      1  0.3027010000000  0.7156660000000  0.6857710000000 1.0
C      1  0.6163230000000  0.7158090000000  0.7447080000000 1.0
C      1  0.7711860000000  0.7151140000000  0.4641230000000 1.0
C      1  0.4512590000000  0.7154920000000  0.2305480000000 1.0
C      1  0.7406490000000  0.7152070000000  0.3700010000000 1.0
C      1  0.6967040000000  0.7158310000000  0.6870310000000 1.0
C      1  0.3839680000000  0.7163890000000  0.7421330000000 1.0
C      1  0.2263320000000  0.7131280000000  0.4650420000000 1.0
C      1  0.3066880000000  0.3729440000000  0.6117460000000 1.0
C      1  0.5458990000000  0.3739210000000  0.7172870000000 1.0
C      1  0.7207800000000  0.3738630000000  0.5231610000000 1.0
C      1  0.5905010000000  0.3740850000000  0.2966040000000 1.0
C      1  0.3351610000000  0.3746840000000  0.3517150000000 1.0
C      1  0.6920730000000  0.3738170000000  0.6111710000000 1.0
C      1  0.4533300000000  0.3737760000000  0.7176580000000 1.0
C      1  0.2787610000000  0.3735840000000  0.5234180000000 1.0
C      1  0.4098090000000  0.3744110000000  0.2969450000000 1.0
C      1  0.6653010000000  0.3740880000000  0.3512590000000 1.0
C      1  0.4517570000000  0.3044560000000  0.3493850000000 1.0
C      1  0.3421190000000  0.3042710000000  0.4995860000000 1.0
C      1  0.4501510000000  0.3039740000000  0.6504140000000 1.0
C      1  0.6269760000000  0.3043170000000  0.5932090000000 1.0
C      1  0.6280670000000  0.3044160000000  0.4074240000000 1.0
C      1  0.5483740000000  0.3043770000000  0.3491810000000 1.0
C      1  0.6576470000000  0.3042520000000  0.4993170000000 1.0
C      1  0.5489060000000  0.3042680000000  0.6500540000000 1.0
C      1  0.3719290000000  0.3035090000000  0.5937500000000 1.0
C      1  0.3721770000000  0.3049610000000  0.4078790000000 1.0
C      1  0.4539280000000  0.6167290000000  0.2667540000000 1.0
C      1  0.2672800000000  0.6170150000000  0.4751270000000 1.0
C      1  0.4006430000000  0.6161570000000  0.7146550000000 1.0
C      1  0.6749260000000  0.6160590000000  0.6614250000000 1.0
C      1  0.7074050000000  0.6163010000000  0.3835500000000 1.0
C      1  0.5474550000000  0.6165160000000  0.2662740000000 1.0
C      1  0.7362710000000  0.6162270000000  0.4725170000000 1.0
C      1  0.5989620000000  0.6161390000000  0.7158660000000 1.0
C      1  0.3236180000000  0.6152880000000  0.6618560000000 1.0
C      1  0.2971660000000  0.6177520000000  0.3862330000000 1.0
C      1  0.2996420000000  0.4553660000000  0.3853390000000 1.0
C      1  0.3267860000000  0.4535480000000  0.6566660000000 1.0
C      1  0.5945160000000  0.4546200000000  0.7113850000000 1.0
C      1  0.7304610000000  0.4546160000000  0.4752370000000 1.0
C      1  0.5479700000000  0.4548980000000  0.2726940000000 1.0
C      1  0.7011400000000  0.4547280000000  0.3845500000000 1.0
C      1  0.6716990000000  0.4545690000000  0.6555930000000 1.0
C      1  0.4045410000000  0.4542920000000  0.7117500000000 1.0
C      1  0.2694960000000  0.4544990000000  0.4757500000000 1.0
C      1  0.4527060000000  0.4550050000000  0.2729570000000 1.0
C      1  0.7086530000000  0.5354930000000  0.6185250000000 1.0
C      1  0.6773660000000  0.5357100000000  0.3380980000000 1.0
C      1  0.4014350000000  0.5361480000000  0.2820190000000 1.0
C      1  0.2614820000000  0.5352650000000  0.5276610000000 1.0
C      1  0.4514210000000  0.5355400000000  0.7339550000000 1.0
C      1  0.2895770000000  0.5343960000000  0.6197490000000 1.0
C      1  0.3244540000000  0.5365520000000  0.3398730000000 1.0
C      1  0.5996910000000  0.5357180000000  0.2811080000000 1.0
C      1  0.7384290000000  0.5355770000000  0.5269030000000 1.0
C      1  0.5477100000000  0.5355290000000  0.7344360000000 1.0
END
