TITL C-1525613-7943-1009 0.0176512966964052 3375 -8874.79623177193 0 0 60 (C2v) n - 1
REM
REM in /home/nfs/bkarasulu/CARBON/AIRSS/Generating-Clusters/ReaxFF-fromJPCA2015/Units_Real/Try2-Higher-symm/Only-C60
REM
REM
REM
REM
REM
REM ./C.cell (863b2abdce7293c0672fb3ba77bf323a)
REM AIRSS Version 0.9.1 bugfix July 2018 build 013d7b7c2542+ Fri, 06 Jul 2018 19:26:36 +0100
REM compiler GCC version 9.2.1 20190827 (Red Hat 9.2.1-1)
REM options -cpp -mtune=generic -march=x86-64 -g -O0 -fpre-include=/usr/include/finclude/math-vector-fortran.h
REM seed -932852333 467094544 -402500723 257757230 90434149 -1975106172 -788877456 -1390515818 -2032670932 244054662 -1886947375 394354225 2040771678 -1189938701 -2009140097 -322263521 -516083245 -1488057313 -284212867 -71889672 2021282835 1684586205 967006106 1799365327 -1789048288 227578000 -481138022 -577004942 806861756 708990498 -1184297167 4842563 2045206055
REM
CELL 1.54180   15.00000   15.00000   15.00000   90.00000   90.00000   90.00000
LATT -1
SFAC C  
C      1  0.6722820000000  0.6881470000000  0.3565330000000 1.0
C      1  0.6765050000000  0.7003960000000  0.4866390000000 1.0
C      1  0.6609610000000  0.6429490000000  0.6064050000000 1.0
C      1  0.6764440000000  0.5449340000000  0.6961110000000 1.0
C      1  0.6725880000000  0.4169080000000  0.7220870000000 1.0
C      1  0.6723070000000  0.3118120000000  0.6434260000000 1.0
C      1  0.6764750000000  0.2996020000000  0.5133540000000 1.0
C      1  0.6609690000000  0.3570280000000  0.3936320000000 1.0
C      1  0.6764730000000  0.4550970000000  0.3038750000000 1.0
C      1  0.6725600000000  0.5831320000000  0.2779420000000 1.0
C      1  0.5311900000000  0.2987410000000  0.5763970000000 1.0
C      1  0.5347490000000  0.2963390000000  0.4789810000000 1.0
C      1  0.5344730000000  0.4220350000000  0.3120060000000 1.0
C      1  0.5313250000000  0.5161670000000  0.2847610000000 1.0
C      1  0.5296070000000  0.6254950000000  0.3285620000000 1.0
C      1  0.5311880000000  0.7012570000000  0.4236050000000 1.0
C      1  0.5347470000000  0.7036680000000  0.5210210000000 1.0
C      1  0.5344900000000  0.5779750000000  0.6879990000000 1.0
C      1  0.5313310000000  0.4838330000000  0.7152380000000 1.0
C      1  0.5295980000000  0.3744920000000  0.6714200000000 1.0
C      1  0.3842330000000  0.4195640000000  0.7295850000000 1.0
C      1  0.3845230000000  0.3036440000000  0.6431250000000 1.0
C      1  0.3880690000000  0.2641280000000  0.5040880000000 1.0
C      1  0.4091660000000  0.3240700000000  0.3691030000000 1.0
C      1  0.3879620000000  0.4360180000000  0.2726680000000 1.0
C      1  0.3842320000000  0.5804340000000  0.2704120000000 1.0
C      1  0.3845250000000  0.6963540000000  0.3568730000000 1.0
C      1  0.3880690000000  0.7358690000000  0.4959120000000 1.0
C      1  0.4091670000000  0.6759300000000  0.6308950000000 1.0
C      1  0.3879580000000  0.5639810000000  0.7273310000000 1.0
C      1  0.4553490000000  0.6298940000000  0.7029970000000 1.0
C      1  0.4401380000000  0.4903220000000  0.7600920000000 1.0
C      1  0.4445260000000  0.3463060000000  0.7069670000000 1.0
C      1  0.4406930000000  0.2542490000000  0.5840090000000 1.0
C      1  0.4550870000000  0.2678320000000  0.4337280000000 1.0
C      1  0.4553540000000  0.3701160000000  0.2970080000000 1.0
C      1  0.4401390000000  0.5096770000000  0.2399100000000 1.0
C      1  0.4445290000000  0.6536930000000  0.2930320000000 1.0
C      1  0.4406940000000  0.7457490000000  0.4159930000000 1.0
C      1  0.4550840000000  0.7321710000000  0.5662740000000 1.0
C      1  0.6189310000000  0.6509410000000  0.2967580000000 1.0
C      1  0.6308790000000  0.7266540000000  0.4181650000000 1.0
C      1  0.6258440000000  0.7033540000000  0.5561540000000 1.0
C      1  0.6253840000000  0.6120410000000  0.6784350000000 1.0
C      1  0.6311780000000  0.4869720000000  0.7408290000000 1.0
C      1  0.6189040000000  0.3490420000000  0.7032540000000 1.0
C      1  0.6308850000000  0.2733490000000  0.5818100000000 1.0
C      1  0.6258540000000  0.2966450000000  0.4438640000000 1.0
C      1  0.6253670000000  0.3879450000000  0.3215650000000 1.0
C      1  0.6311820000000  0.5130480000000  0.2591650000000 1.0
C      1  0.3297090000000  0.4560530000000  0.3498250000000 1.0
C      1  0.3273850000000  0.5530740000000  0.3472210000000 1.0
C      1  0.3275300000000  0.6308780000000  0.4051390000000 1.0
C      1  0.3298080000000  0.6563680000000  0.4988710000000 1.0
C      1  0.3434860000000  0.6182910000000  0.5880110000000 1.0
C      1  0.3297100000000  0.5439470000000  0.6501770000000 1.0
C      1  0.3273870000000  0.4469240000000  0.6527790000000 1.0
C      1  0.3275300000000  0.3691230000000  0.5948630000000 1.0
C      1  0.3298050000000  0.3436350000000  0.5011300000000 1.0
C      1  0.3434840000000  0.3817120000000  0.4119880000000 1.0
END
