TITL C-1525613-7943-6230 0.387550352981572 3375 -8075.13422785874 0 0 60 (C5) n - 1
REM
REM in /home/nfs/bkarasulu/CARBON/AIRSS/Generating-Clusters/ReaxFF-fromJPCA2015/Units_Real/Try2-Higher-symm/Only-C60
REM
REM
REM
REM
REM
REM ./C.cell (863b2abdce7293c0672fb3ba77bf323a)
REM AIRSS Version 0.9.1 bugfix July 2018 build 013d7b7c2542+ Fri, 06 Jul 2018 19:26:36 +0100
REM compiler GCC version 9.2.1 20190827 (Red Hat 9.2.1-1)
REM options -cpp -mtune=generic -march=x86-64 -g -O0 -fpre-include=/usr/include/finclude/math-vector-fortran.h
REM seed -1149173909 -1559161928 -1149425423 -1034233119 1319634730 937298046 76691427 -508305829 804824762 -2133162983 1863146817 826735077 110980154 -59643669 1820827002 779734432 -212848389 868619947 -1741816551 1012929987 99473706 -760813123 1930271646 -411141875 2003501957 -751883645 963938523 -846606009 -1024766961 -1796638634 1856910321 1265722168 -1313481357
REM
CELL 1.54180   15.00000   15.00000   15.00000   90.00000   90.00000   90.00000
LATT -1
SFAC C  
C      1  0.7791520000000  0.4610440000000  0.5723150000000 1.0
C      1  0.5492460000000  0.2225550000000  0.5724040000000 1.0
C      1  0.2515090000000  0.3675430000000  0.5724800000000 1.0
C      1  0.2972540000000  0.6954470000000  0.5724540000000 1.0
C      1  0.6233350000000  0.7533680000000  0.5723730000000 1.0
C      1  0.2208480000000  0.4610440000000  0.5723150000000 1.0
C      1  0.4507540000000  0.2225550000000  0.5724040000000 1.0
C      1  0.7484910000000  0.3675430000000  0.5724800000000 1.0
C      1  0.7027460000000  0.6954470000000  0.5724540000000 1.0
C      1  0.3766650000000  0.7533680000000  0.5723720000000 1.0
C      1  0.5652650000000  0.6749740000000  0.6077940000000 1.0
C      1  0.6865990000000  0.4917780000000  0.6076130000000 1.0
C      1  0.5493150000000  0.3199620000000  0.6079770000000 1.0
C      1  0.3441740000000  0.3972030000000  0.6078580000000 1.0
C      1  0.3538940000000  0.6161660000000  0.6078060000000 1.0
C      1  0.4347350000000  0.6749740000000  0.6077940000000 1.0
C      1  0.3134010000000  0.4917780000000  0.6076130000000 1.0
C      1  0.4506850000000  0.3199620000000  0.6079780000000 1.0
C      1  0.6558260000000  0.3972030000000  0.6078580000000 1.0
C      1  0.6461060000000  0.6161660000000  0.6078060000000 1.0
C      1  0.5482630000000  0.3530280000000  0.6995930000000 1.0
C      1  0.3750780000000  0.4090770000000  0.6996150000000 1.0
C      1  0.3749200000000  0.5907260000000  0.6995630000000 1.0
C      1  0.5475880000000  0.6470140000000  0.6999220000000 1.0
C      1  0.6545120000000  0.5001020000000  0.6999920000000 1.0
C      1  0.4517370000000  0.3530280000000  0.6995930000000 1.0
C      1  0.6249220000000  0.4090770000000  0.6996150000000 1.0
C      1  0.6250790000000  0.5907260000000  0.6995630000000 1.0
C      1  0.4524130000000  0.6470140000000  0.6999220000000 1.0
C      1  0.3454880000000  0.5001020000000  0.6999920000000 1.0
C      1  0.5488090000000  0.6511170000000  0.2913970000000 1.0
C      1  0.6588980000000  0.5002810000000  0.2915110000000 1.0
C      1  0.5493680000000  0.3490040000000  0.2912940000000 1.0
C      1  0.3714830000000  0.4067730000000  0.2913660000000 1.0
C      1  0.3713750000000  0.5931050000000  0.2913870000000 1.0
C      1  0.4511910000000  0.6511170000000  0.2913970000000 1.0
C      1  0.3411020000000  0.5002810000000  0.2915110000000 1.0
C      1  0.4506330000000  0.3490040000000  0.2912940000000 1.0
C      1  0.6285160000000  0.4067730000000  0.2913660000000 1.0
C      1  0.6286250000000  0.5931050000000  0.2913870000000 1.0
C      1  0.6537910000000  0.5000050000000  0.4535480000000 1.0
C      1  0.5474770000000  0.3541310000000  0.4537780000000 1.0
C      1  0.3758650000000  0.4095330000000  0.4536540000000 1.0
C      1  0.3757300000000  0.5903000000000  0.4537750000000 1.0
C      1  0.5474180000000  0.6459960000000  0.4538680000000 1.0
C      1  0.3462090000000  0.5000070000000  0.4535480000000 1.0
C      1  0.4525280000000  0.3541290000000  0.4537760000000 1.0
C      1  0.6241340000000  0.4095310000000  0.4536540000000 1.0
C      1  0.6242690000000  0.5903010000000  0.4537750000000 1.0
C      1  0.4525820000000  0.6459970000000  0.4538680000000 1.0
C      1  0.3195280000000  0.3895480000000  0.3752350000000 1.0
C      1  0.3395050000000  0.6375630000000  0.3749570000000 1.0
C      1  0.5812770000000  0.6953060000000  0.3746700000000 1.0
C      1  0.7102990000000  0.4831080000000  0.3748780000000 1.0
C      1  0.5488710000000  0.2942450000000  0.3749240000000 1.0
C      1  0.6804710000000  0.3895490000000  0.3752360000000 1.0
C      1  0.6604960000000  0.6375630000000  0.3749570000000 1.0
C      1  0.4187230000000  0.6953060000000  0.3746690000000 1.0
C      1  0.2897020000000  0.4831070000000  0.3748790000000 1.0
C      1  0.4511260000000  0.2942420000000  0.3749200000000 1.0
END
