TITL C-1525613-7943-7528 0.033444930457595 3375 -8997.45302059012 0 0 60 (C1) n - 1
REM
REM in /home/nfs/bkarasulu/CARBON/AIRSS/Generating-Clusters/ReaxFF-fromJPCA2015/Units_Real/Try2-Higher-symm/Only-C60
REM
REM
REM
REM
REM
REM ./C.cell (863b2abdce7293c0672fb3ba77bf323a)
REM AIRSS Version 0.9.1 bugfix July 2018 build 013d7b7c2542+ Fri, 06 Jul 2018 19:26:36 +0100
REM compiler GCC version 9.2.1 20190827 (Red Hat 9.2.1-1)
REM options -cpp -mtune=generic -march=x86-64 -g -O0 -fpre-include=/usr/include/finclude/math-vector-fortran.h
REM seed -227020886 945559803 -617448998 -121171594 1054938901 2116335197 2138635644 1479785745 1324187413 1386548093 -33327781 513572738 -1166063732 1935639753 1582779503 1937910866 -343038470 -511275600 1680219328 939111928 -1643596976 -468697399 348284129 1591827806 1264891245 115268453 2078877440 -677172385 1658663746 -984100593 -339042001 -2071049067 313569983
REM
CELL 1.54180   15.00000   15.00000   15.00000   90.00000   90.00000   90.00000
LATT -1
SFAC C  
C      1  0.4847820000000  0.3625180000000  0.6726070000000 1.0
C      1  0.6577920000000  0.3603760000000  0.5624790000000 1.0
C      1  0.6093580000000  0.3599050000000  0.3552260000000 1.0
C      1  0.4060150000000  0.3525530000000  0.3389350000000 1.0
C      1  0.3203190000000  0.3650430000000  0.5300770000000 1.0
C      1  0.4884760000000  0.6287790000000  0.3244940000000 1.0
C      1  0.6605790000000  0.6433160000000  0.4344100000000 1.0
C      1  0.6115810000000  0.6482490000000  0.6445370000000 1.0
C      1  0.4046300000000  0.6481220000000  0.6607480000000 1.0
C      1  0.3205270000000  0.6401370000000  0.4614620000000 1.0
C      1  0.3378150000000  0.5109300000000  0.7147350000000 1.0
C      1  0.6659550000000  0.5242190000000  0.7334560000000 1.0
C      1  0.7761120000000  0.5176110000000  0.4613040000000 1.0
C      1  0.5125980000000  0.5225310000000  0.1900950000000 1.0
C      1  0.2521580000000  0.5034590000000  0.4127830000000 1.0
C      1  0.3347040000000  0.4897560000000  0.2847080000000 1.0
C      1  0.6684060000000  0.4619750000000  0.2810340000000 1.0
C      1  0.7838020000000  0.4892920000000  0.5562900000000 1.0
C      1  0.5290010000000  0.4885600000000  0.7714720000000 1.0
C      1  0.2494930000000  0.4938580000000  0.5957170000000 1.0
C      1  0.4895180000000  0.3648040000000  0.5741220000000 1.0
C      1  0.5704930000000  0.3675920000000  0.5251770000000 1.0
C      1  0.5478670000000  0.3613890000000  0.4313930000000 1.0
C      1  0.4530120000000  0.3565250000000  0.4265440000000 1.0
C      1  0.4145590000000  0.3624990000000  0.5137790000000 1.0
C      1  0.4940010000000  0.6340580000000  0.4238950000000 1.0
C      1  0.5744910000000  0.6340090000000  0.4749790000000 1.0
C      1  0.5498910000000  0.6413790000000  0.5682560000000 1.0
C      1  0.4544580000000  0.6438190000000  0.5719100000000 1.0
C      1  0.4197180000000  0.6394510000000  0.4837030000000 1.0
C      1  0.6106660000000  0.6078220000000  0.7349300000000 1.0
C      1  0.7417860000000  0.6007070000000  0.4250510000000 1.0
C      1  0.5514050000000  0.5810880000000  0.2579760000000 1.0
C      1  0.2711480000000  0.5904110000000  0.3902490000000 1.0
C      1  0.3209240000000  0.5991280000000  0.6913640000000 1.0
C      1  0.5967540000000  0.3970120000000  0.2643660000000 1.0
C      1  0.7430110000000  0.4000870000000  0.5664650000000 1.0
C      1  0.5491900000000  0.4032030000000  0.7415410000000 1.0
C      1  0.2730970000000  0.4044280000000  0.6053010000000 1.0
C      1  0.3203370000000  0.4027220000000  0.3147920000000 1.0
C      1  0.6432360000000  0.5552480000000  0.2882700000000 1.0
C      1  0.3179560000000  0.5811150000000  0.2955190000000 1.0
C      1  0.2455110000000  0.5852150000000  0.6170740000000 1.0
C      1  0.5203850000000  0.5822600000000  0.7833620000000 1.0
C      1  0.7395210000000  0.5578170000000  0.5965650000000 1.0
C      1  0.6456890000000  0.4278770000000  0.7156840000000 1.0
C      1  0.3203120000000  0.4196150000000  0.7017530000000 1.0
C      1  0.2553490000000  0.4153240000000  0.3932160000000 1.0
C      1  0.5142090000000  0.4224190000000  0.2111100000000 1.0
C      1  0.7429200000000  0.4361610000000  0.4374240000000 1.0
C      1  0.6997750000000  0.4041300000000  0.3618260000000 1.0
C      1  0.4527770000000  0.3863420000000  0.2691110000000 1.0
C      1  0.2649870000000  0.3858810000000  0.4704130000000 1.0
C      1  0.4110810000000  0.3991640000000  0.7141440000000 1.0
C      1  0.6931350000000  0.3791160000000  0.6453950000000 1.0
C      1  0.7006070000000  0.6161760000000  0.6312770000000 1.0
C      1  0.4511720000000  0.6171470000000  0.7312010000000 1.0
C      1  0.2621490000000  0.6112390000000  0.5276460000000 1.0
C      1  0.4099790000000  0.5989960000000  0.2871410000000 1.0
C      1  0.6888190000000  0.6154360000000  0.3495090000000 1.0
END
