TITL C-1525613-7943-2378 -0.0496067813648476 3375 -8986.00537549949 0 0 60 (C1) n - 1
REM
REM in /home/nfs/bkarasulu/CARBON/AIRSS/Generating-Clusters/ReaxFF-fromJPCA2015/Units_Real/Try2-Higher-symm/Only-C60
REM
REM
REM
REM
REM
REM ./C.cell (863b2abdce7293c0672fb3ba77bf323a)
REM AIRSS Version 0.9.1 bugfix July 2018 build 013d7b7c2542+ Fri, 06 Jul 2018 19:26:36 +0100
REM compiler GCC version 9.2.1 20190827 (Red Hat 9.2.1-1)
REM options -cpp -mtune=generic -march=x86-64 -g -O0 -fpre-include=/usr/include/finclude/math-vector-fortran.h
REM seed -1131712656 1661325208 1858283451 -1557807287 -1826298553 1249774335 428983459 579242071 280407156 900556273 -345457361 -251363077 -1225840254 375546752 -1815809211 -1829736358 2039012472 -385327995 -1598801377 -219265623 68291514 -1214535753 1584257380 647591017 1061389751 -665164251 787796145 -815191959 -1796365175 649753469 244223387 -1869976002 -127912017
REM
CELL 1.54180   15.00000   15.00000   15.00000   90.00000   90.00000   90.00000
LATT -1
SFAC C  
C      1  0.3442050000000  0.3620690000000  0.2969900000000 1.0
C      1  0.4071660000000  0.5623890000000  0.3185010000000 1.0
C      1  0.4049430000000  0.7230660000000  0.4356260000000 1.0
C      1  0.3858330000000  0.5570170000000  0.6901340000000 1.0
C      1  0.3843370000000  0.2603670000000  0.5770250000000 1.0
C      1  0.6502940000000  0.6293700000000  0.2980050000000 1.0
C      1  0.5933900000000  0.4325980000000  0.3140790000000 1.0
C      1  0.5889440000000  0.2639960000000  0.4390030000000 1.0
C      1  0.6221170000000  0.4468720000000  0.6843290000000 1.0
C      1  0.5759020000000  0.7339970000000  0.6194030000000 1.0
C      1  0.4669670000000  0.6277280000000  0.5777620000000 1.0
C      1  0.4739660000000  0.4003160000000  0.6556460000000 1.0
C      1  0.4480450000000  0.3693650000000  0.4247910000000 1.0
C      1  0.4675190000000  0.4790010000000  0.4666920000000 1.0
C      1  0.4453630000000  0.5658390000000  0.4901950000000 1.0
C      1  0.5384390000000  0.3506120000000  0.5947070000000 1.0
C      1  0.5338530000000  0.6092970000000  0.6527290000000 1.0
C      1  0.5689360000000  0.7001510000000  0.4131540000000 1.0
C      1  0.5624380000000  0.4852560000000  0.4731930000000 1.0
C      1  0.5737920000000  0.3996430000000  0.5094200000000 1.0
C      1  0.2390790000000  0.5655470000000  0.5499150000000 1.0
C      1  0.2509340000000  0.4835470000000  0.6021740000000 1.0
C      1  0.2480370000000  0.4085190000000  0.5401400000000 1.0
C      1  0.2315560000000  0.4403880000000  0.4495270000000 1.0
C      1  0.2279700000000  0.5377370000000  0.4556890000000 1.0
C      1  0.7610060000000  0.4287140000000  0.5467500000000 1.0
C      1  0.7515880000000  0.5113630000000  0.5975410000000 1.0
C      1  0.7533620000000  0.5851140000000  0.5323040000000 1.0
C      1  0.7620210000000  0.5530870000000  0.4412000000000 1.0
C      1  0.7636460000000  0.4568480000000  0.4505250000000 1.0
C      1  0.6340690000000  0.3643810000000  0.6345700000000 1.0
C      1  0.6517400000000  0.3474310000000  0.4713580000000 1.0
C      1  0.6270410000000  0.4870730000000  0.3854790000000 1.0
C      1  0.6408800000000  0.6565080000000  0.4559340000000 1.0
C      1  0.6299350000000  0.6077280000000  0.6300500000000 1.0
C      1  0.3749590000000  0.6273610000000  0.6248320000000 1.0
C      1  0.3644950000000  0.6284980000000  0.4642270000000 1.0
C      1  0.3301220000000  0.5195550000000  0.3397930000000 1.0
C      1  0.3566970000000  0.3743960000000  0.4537140000000 1.0
C      1  0.3829250000000  0.4101690000000  0.6313730000000 1.0
C      1  0.4365410000000  0.3565870000000  0.3195430000000 1.0
C      1  0.4798840000000  0.6072190000000  0.3113030000000 1.0
C      1  0.4929890000000  0.7448140000000  0.4608020000000 1.0
C      1  0.4824060000000  0.5478000000000  0.7085760000000 1.0
C      1  0.4752010000000  0.2682900000000  0.5587390000000 1.0
C      1  0.5599840000000  0.6616720000000  0.3205140000000 1.0
C      1  0.5215570000000  0.3938980000000  0.2913040000000 1.0
C      1  0.4999260000000  0.2834830000000  0.4622360000000 1.0
C      1  0.5269670000000  0.4613380000000  0.7080580000000 1.0
C      1  0.5055820000000  0.7252040000000  0.5623730000000 1.0
C      1  0.3047430000000  0.4203680000000  0.3796220000000 1.0
C      1  0.2945850000000  0.5823840000000  0.4002310000000 1.0
C      1  0.3112730000000  0.6292440000000  0.5547690000000 1.0
C      1  0.3285250000000  0.4810140000000  0.6638400000000 1.0
C      1  0.3366050000000  0.3579360000000  0.5527980000000 1.0
C      1  0.6844520000000  0.5912030000000  0.3878720000000 1.0
C      1  0.6924850000000  0.4135920000000  0.4014930000000 1.0
C      1  0.6992440000000  0.3575780000000  0.5656580000000 1.0
C      1  0.6752480000000  0.5239960000000  0.6560510000000 1.0
C      1  0.6732920000000  0.6394680000000  0.5457370000000 1.0
END
