TITL C-1525613-7943-3608 -0.0196845548625469 3375 -9354.68352506963 0 0 60 (C1) n - 1
REM
REM in /home/nfs/bkarasulu/CARBON/AIRSS/Generating-Clusters/ReaxFF-fromJPCA2015/Units_Real/Try2-Higher-symm/Only-C60
REM
REM
REM
REM
REM
REM ./C.cell (863b2abdce7293c0672fb3ba77bf323a)
REM AIRSS Version 0.9.1 bugfix July 2018 build 013d7b7c2542+ Fri, 06 Jul 2018 19:26:36 +0100
REM compiler GCC version 9.2.1 20190827 (Red Hat 9.2.1-1)
REM options -cpp -mtune=generic -march=x86-64 -g -O0 -fpre-include=/usr/include/finclude/math-vector-fortran.h
REM seed -1806734517 -1536076090 1947264916 -313130150 282085992 1894171921 -1543456357 517950257 -1920113938 -1201479788 1365440937 192620688 1969294419 -1165835025 700896837 -1220131048 1820330960 1050743851 1418159752 -113732469 1944810169 433323347 -1796926685 -916673536 -1171505446 -1433616538 -2092188962 -1535029980 913883041 -845504039 2114816365 1501301029 1729616040
REM
CELL 1.54180   15.00000   15.00000   15.00000   90.00000   90.00000   90.00000
LATT -1
SFAC C  
C      1  0.3222320000000  0.7082430000000  0.4537830000000 1.0
C      1  0.4704080000000  0.7519630000000  0.4677490000000 1.0
C      1  0.6275190000000  0.6809170000000  0.4857340000000 1.0
C      1  0.7575450000000  0.5964730000000  0.4912960000000 1.0
C      1  0.7594840000000  0.4454260000000  0.4490690000000 1.0
C      1  0.6775700000000  0.2914150000000  0.4539490000000 1.0
C      1  0.5293140000000  0.2482390000000  0.4678240000000 1.0
C      1  0.3718300000000  0.3190870000000  0.4859640000000 1.0
C      1  0.2421960000000  0.4033920000000  0.4915400000000 1.0
C      1  0.2403460000000  0.5543330000000  0.4495430000000 1.0
C      1  0.5839760000000  0.4444350000000  0.7335580000000 1.0
C      1  0.5471290000000  0.3698030000000  0.7194920000000 1.0
C      1  0.4635490000000  0.3392700000000  0.6881500000000 1.0
C      1  0.3796910000000  0.3934990000000  0.6994930000000 1.0
C      1  0.3867750000000  0.4790680000000  0.7332490000000 1.0
C      1  0.4161080000000  0.5559910000000  0.7340380000000 1.0
C      1  0.4532900000000  0.6303780000000  0.7194620000000 1.0
C      1  0.5365350000000  0.6609650000000  0.6879830000000 1.0
C      1  0.6203660000000  0.6066030000000  0.6988370000000 1.0
C      1  0.6133480000000  0.5211380000000  0.7329710000000 1.0
C      1  0.6001650000000  0.3294970000000  0.5969440000000 1.0
C      1  0.5009280000000  0.3200420000000  0.6004960000000 1.0
C      1  0.3299800000000  0.4229070000000  0.6202440000000 1.0
C      1  0.2960310000000  0.5133580000000  0.5961120000000 1.0
C      1  0.3327000000000  0.6011880000000  0.5748400000000 1.0
C      1  0.3999580000000  0.6707990000000  0.5967680000000 1.0
C      1  0.4990450000000  0.6808050000000  0.6006080000000 1.0
C      1  0.6696690000000  0.5766490000000  0.6194380000000 1.0
C      1  0.7044200000000  0.4863810000000  0.5960170000000 1.0
C      1  0.6680580000000  0.3985280000000  0.5748760000000 1.0
C      1  0.3523210000000  0.5385780000000  0.3161590000000 1.0
C      1  0.3912490000000  0.6335950000000  0.3119590000000 1.0
C      1  0.4821040000000  0.6669820000000  0.3167140000000 1.0
C      1  0.5751070000000  0.6246480000000  0.3263040000000 1.0
C      1  0.6019550000000  0.5395790000000  0.3122600000000 1.0
C      1  0.6479530000000  0.4611500000000  0.3152360000000 1.0
C      1  0.6089090000000  0.3662880000000  0.3122340000000 1.0
C      1  0.5178930000000  0.3329660000000  0.3169980000000 1.0
C      1  0.4249760000000  0.3755130000000  0.3268990000000 1.0
C      1  0.3987150000000  0.4606190000000  0.3138890000000 1.0
C      1  0.7227760000000  0.5897710000000  0.3999770000000 1.0
C      1  0.7221410000000  0.4952500000000  0.3732600000000 1.0
C      1  0.6413940000000  0.2876230000000  0.3622660000000 1.0
C      1  0.5475500000000  0.2559130000000  0.3708730000000 1.0
C      1  0.3546800000000  0.3519140000000  0.3945960000000 1.0
C      1  0.2769010000000  0.4101740000000  0.4002060000000 1.0
C      1  0.2776360000000  0.5046450000000  0.3736280000000 1.0
C      1  0.3586620000000  0.7124270000000  0.3620890000000 1.0
C      1  0.4525230000000  0.7437930000000  0.3706810000000 1.0
C      1  0.6449810000000  0.6480530000000  0.3942880000000 1.0
C      1  0.7685690000000  0.5054720000000  0.5250770000000 1.0
C      1  0.7156200000000  0.3709500000000  0.4940190000000 1.0
C      1  0.6092320000000  0.2699180000000  0.5191970000000 1.0
C      1  0.4565480000000  0.2848690000000  0.5190740000000 1.0
C      1  0.3078560000000  0.3593930000000  0.5475410000000 1.0
C      1  0.2317390000000  0.4941690000000  0.5255290000000 1.0
C      1  0.2845340000000  0.6288480000000  0.4942930000000 1.0
C      1  0.3902860000000  0.7301990000000  0.5190120000000 1.0
C      1  0.5432920000000  0.7155850000000  0.5188120000000 1.0
C      1  0.6917330000000  0.6403250000000  0.5469050000000 1.0
END
