TITL C-1525613-7943-5460 1.13704578218223 3375 -7555.88366390465 0 0 60 (D5) n - 1
REM
REM in /home/nfs/bkarasulu/CARBON/AIRSS/Generating-Clusters/ReaxFF-fromJPCA2015/Units_Real/Try2-Higher-symm/Only-C60
REM
REM
REM
REM
REM
REM ./C.cell (863b2abdce7293c0672fb3ba77bf323a)
REM AIRSS Version 0.9.1 bugfix July 2018 build 013d7b7c2542+ Fri, 06 Jul 2018 19:26:36 +0100
REM compiler GCC version 9.2.1 20190827 (Red Hat 9.2.1-1)
REM options -cpp -mtune=generic -march=x86-64 -g -O0 -fpre-include=/usr/include/finclude/math-vector-fortran.h
REM seed -497380220 -1131419917 1192580565 1603309525 1762906130 -1596829499 -1465345209 -1826598801 -1275117119 1320531378 1127119022 -646640724 -1154091990 -350942129 939104603 313071010 -1340243911 683992803 -1867247145 1317289709 -2014041981 -1850012162 -383332693 891321473 -251470473 -1702287473 1934108768 -1970840441 -1644141280 -80700271 292686053 170268484 572037357
REM
CELL 1.54180   15.00000   15.00000   15.00000   90.00000   90.00000   90.00000
LATT -1
SFAC C  
C      1  0.5737910000000  0.4565210000000  0.4513200000000 1.0
C      1  0.4818810000000  0.4169330000000  0.4512150000000 1.0
C      1  0.4143510000000  0.4921490000000  0.4505530000000 1.0
C      1  0.4663610000000  0.5782040000000  0.4511530000000 1.0
C      1  0.5648170000000  0.5559940000000  0.4516040000000 1.0
C      1  0.5729750000000  0.5417260000000  0.5493610000000 1.0
C      1  0.4826750000000  0.5827520000000  0.5498000000000 1.0
C      1  0.4160720000000  0.5080400000000  0.5496660000000 1.0
C      1  0.4664310000000  0.4221460000000  0.5498830000000 1.0
C      1  0.5631150000000  0.4437530000000  0.5491160000000 1.0
C      1  0.7383500000000  0.5278060000000  0.5416630000000 1.0
C      1  0.5999230000000  0.2819170000000  0.5418410000000 1.0
C      1  0.3235500000000  0.3375970000000  0.5418040000000 1.0
C      1  0.2902110000000  0.6173350000000  0.5411770000000 1.0
C      1  0.5476740000000  0.7356400000000  0.5416980000000 1.0
C      1  0.7385970000000  0.4720830000000  0.4583800000000 1.0
C      1  0.6004460000000  0.7179220000000  0.4580700000000 1.0
C      1  0.3233320000000  0.6625610000000  0.4584470000000 1.0
C      1  0.2906850000000  0.3822900000000  0.4582140000000 1.0
C      1  0.5473760000000  0.2641830000000  0.4584320000000 1.0
C      1  0.3628710000000  0.6128080000000  0.6022370000000 1.0
C      1  0.5670350000000  0.6652660000000  0.6012360000000 1.0
C      1  0.6754590000000  0.4891490000000  0.6007690000000 1.0
C      1  0.5440870000000  0.3297650000000  0.6010540000000 1.0
C      1  0.3497500000000  0.4066950000000  0.6007380000000 1.0
C      1  0.3635080000000  0.3845870000000  0.3980660000000 1.0
C      1  0.5669580000000  0.3345000000000  0.3983210000000 1.0
C      1  0.6764420000000  0.5111360000000  0.3991520000000 1.0
C      1  0.5428960000000  0.6723820000000  0.3986980000000 1.0
C      1  0.3495110000000  0.5946420000000  0.3985400000000 1.0
C      1  0.6564010000000  0.4048380000000  0.6307180000000 1.0
C      1  0.4573370000000  0.3211520000000  0.6310930000000 1.0
C      1  0.3157040000000  0.4871880000000  0.6318040000000 1.0
C      1  0.4304080000000  0.6699100000000  0.6313370000000 1.0
C      1  0.6389210000000  0.6188430000000  0.6309620000000 1.0
C      1  0.6570030000000  0.5962240000000  0.3691000000000 1.0
C      1  0.4570100000000  0.6801870000000  0.3683340000000 1.0
C      1  0.3154350000000  0.5143640000000  0.3677870000000 1.0
C      1  0.4295490000000  0.3292260000000  0.3682070000000 1.0
C      1  0.6401950000000  0.3804280000000  0.3686260000000 1.0
C      1  0.4724580000000  0.5781560000000  0.6805710000000 1.0
C      1  0.5668920000000  0.5519080000000  0.6789880000000 1.0
C      1  0.5700740000000  0.4525510000000  0.6788850000000 1.0
C      1  0.4773480000000  0.4189410000000  0.6802210000000 1.0
C      1  0.4168190000000  0.4967600000000  0.6805340000000 1.0
C      1  0.4705960000000  0.4213400000000  0.3199920000000 1.0
C      1  0.5662070000000  0.4481710000000  0.3210270000000 1.0
C      1  0.5695500000000  0.5468660000000  0.3210200000000 1.0
C      1  0.4770970000000  0.5812550000000  0.3198950000000 1.0
C      1  0.4163660000000  0.5036300000000  0.3191270000000 1.0
C      1  0.4111630000000  0.7058350000000  0.4533990000000 1.0
C      1  0.6674740000000  0.6485890000000  0.4536070000000 1.0
C      1  0.6926800000000  0.3860220000000  0.4531490000000 1.0
C      1  0.4515260000000  0.2811960000000  0.4534310000000 1.0
C      1  0.2766240000000  0.4780390000000  0.4537630000000 1.0
C      1  0.4106450000000  0.2947530000000  0.5464550000000 1.0
C      1  0.6677050000000  0.3522320000000  0.5469730000000 1.0
C      1  0.6921260000000  0.6135210000000  0.5469780000000 1.0
C      1  0.4521140000000  0.7184860000000  0.5464640000000 1.0
C      1  0.2754440000000  0.5209100000000  0.5453380000000 1.0
END
