TITL C-1525613-7943-2224 0.110519781700196 3375 -8514.49862074225 0 0 60 (Cs) n - 1
REM
REM in /home/nfs/bkarasulu/CARBON/AIRSS/Generating-Clusters/ReaxFF-fromJPCA2015/Units_Real/Try2-Higher-symm/Only-C60
REM
REM
REM
REM
REM
REM ./C.cell (863b2abdce7293c0672fb3ba77bf323a)
REM AIRSS Version 0.9.1 bugfix July 2018 build 013d7b7c2542+ Fri, 06 Jul 2018 19:26:36 +0100
REM compiler GCC version 9.2.1 20190827 (Red Hat 9.2.1-1)
REM options -cpp -mtune=generic -march=x86-64 -g -O0 -fpre-include=/usr/include/finclude/math-vector-fortran.h
REM seed -1336998240 92118533 -1048149581 -1960654389 1619623878 1345663897 -2044070222 1188214244 -1245464203 -1840251879 -1275404210 1060437684 1033517299 734992101 -19723080 719534652 2123208651 -195340024 -222523146 -656442041 -520915186 2143921703 -1543891088 1053188267 -2096666839 -1211605347 983237565 -1822695562 -89790979 1408451874 592926742 -1458726350 1272402698
REM
CELL 1.54180   15.00000   15.00000   15.00000   90.00000   90.00000   90.00000
LATT -1
SFAC C  
C      1  0.5485480000000  0.7222640000000  0.4928500000000 1.0
C      1  0.5485910000000  0.5760080000000  0.7098160000000 1.0
C      1  0.5486250000000  0.3242320000000  0.6369870000000 1.0
C      1  0.5486600000000  0.3161330000000  0.3743890000000 1.0
C      1  0.5485560000000  0.5619120000000  0.2860270000000 1.0
C      1  0.4514500000000  0.7225810000000  0.4928260000000 1.0
C      1  0.4514090000000  0.5759500000000  0.7096330000000 1.0
C      1  0.4515990000000  0.3243380000000  0.6369300000000 1.0
C      1  0.4514770000000  0.3160010000000  0.3742250000000 1.0
C      1  0.4514470000000  0.5620860000000  0.2856290000000 1.0
C      1  0.5948100000000  0.3801430000000  0.3140440000000 1.0
C      1  0.5944250000000  0.6389090000000  0.3285990000000 1.0
C      1  0.5944740000000  0.7058100000000  0.5793150000000 1.0
C      1  0.5944750000000  0.4886340000000  0.7201020000000 1.0
C      1  0.5940620000000  0.2871420000000  0.5567870000000 1.0
C      1  0.4052570000000  0.3800760000000  0.3139300000000 1.0
C      1  0.4056200000000  0.6389940000000  0.3283520000000 1.0
C      1  0.4055410000000  0.7060660000000  0.5792790000000 1.0
C      1  0.4054690000000  0.4887270000000  0.7203350000000 1.0
C      1  0.4060350000000  0.2871450000000  0.5567990000000 1.0
C      1  0.6677600000000  0.6454730000000  0.5997580000000 1.0
C      1  0.6681260000000  0.4504790000000  0.6693920000000 1.0
C      1  0.6678600000000  0.3236080000000  0.5051720000000 1.0
C      1  0.6683780000000  0.4406310000000  0.3336830000000 1.0
C      1  0.6679340000000  0.6393120000000  0.3921790000000 1.0
C      1  0.3322390000000  0.6454890000000  0.5996600000000 1.0
C      1  0.3319010000000  0.4506190000000  0.6693910000000 1.0
C      1  0.3321890000000  0.3237070000000  0.5051980000000 1.0
C      1  0.3316730000000  0.4406390000000  0.3337340000000 1.0
C      1  0.3320850000000  0.6392520000000  0.3921630000000 1.0
C      1  0.5497600000000  0.4391470000000  0.5568400000000 1.0
C      1  0.5497840000000  0.4267950000000  0.4599370000000 1.0
C      1  0.5495180000000  0.5153930000000  0.4183840000000 1.0
C      1  0.5496000000000  0.5823650000000  0.4899430000000 1.0
C      1  0.5498230000000  0.5351080000000  0.5755360000000 1.0
C      1  0.4500700000000  0.4358420000000  0.5529840000000 1.0
C      1  0.4500530000000  0.4294810000000  0.4556420000000 1.0
C      1  0.4496730000000  0.5205050000000  0.4196180000000 1.0
C      1  0.4499500000000  0.5825530000000  0.4953710000000 1.0
C      1  0.4502090000000  0.5302240000000  0.5778220000000 1.0
C      1  0.2979630000000  0.5651100000000  0.4498100000000 1.0
C      1  0.2979780000000  0.5678680000000  0.5468230000000 1.0
C      1  0.2973280000000  0.4764690000000  0.5793260000000 1.0
C      1  0.2971590000000  0.4172990000000  0.5023390000000 1.0
C      1  0.2974270000000  0.4720890000000  0.4222680000000 1.0
C      1  0.7019650000000  0.5650450000000  0.4498500000000 1.0
C      1  0.7020330000000  0.5678380000000  0.5468260000000 1.0
C      1  0.7027330000000  0.4764520000000  0.5793270000000 1.0
C      1  0.7028190000000  0.4172660000000  0.5023490000000 1.0
C      1  0.7025540000000  0.4720470000000  0.4222910000000 1.0
C      1  0.5939920000000  0.3922460000000  0.6933750000000 1.0
C      1  0.5938510000000  0.2832280000000  0.4566450000000 1.0
C      1  0.5948260000000  0.4742750000000  0.2797530000000 1.0
C      1  0.5941060000000  0.7007420000000  0.4073180000000 1.0
C      1  0.5939710000000  0.6506540000000  0.6628380000000 1.0
C      1  0.4062800000000  0.3925150000000  0.6930960000000 1.0
C      1  0.4063170000000  0.2834680000000  0.4566860000000 1.0
C      1  0.4053530000000  0.4743840000000  0.2798930000000 1.0
C      1  0.4060360000000  0.7007140000000  0.4073220000000 1.0
C      1  0.4061960000000  0.6505190000000  0.6626030000000 1.0
END
