TITL C-1525613-7943-1035 0.00554084115858106 3375 -9159.40213792929 0 0 60 (Cs) n - 1
REM
REM in /home/nfs/bkarasulu/CARBON/AIRSS/Generating-Clusters/ReaxFF-fromJPCA2015/Units_Real/Try2-Higher-symm/Only-C60
REM
REM
REM
REM
REM
REM ./C.cell (863b2abdce7293c0672fb3ba77bf323a)
REM AIRSS Version 0.9.1 bugfix July 2018 build 013d7b7c2542+ Fri, 06 Jul 2018 19:26:36 +0100
REM compiler GCC version 9.2.1 20190827 (Red Hat 9.2.1-1)
REM options -cpp -mtune=generic -march=x86-64 -g -O0 -fpre-include=/usr/include/finclude/math-vector-fortran.h
REM seed 1016742476 -804158625 1799699698 1076339163 -483462108 568229264 1461304894 698812374 -1545274167 74586844 -231873444 -1285693621 -1629337896 1627714693 648721578 2119550593 1341137730 243205124 -1202870355 -1146708887 -1374697355 -1327840002 519152943 1685660836 -1115654648 2062422894 -560575658 -326003903 1476830446 -856819328 1674884463 -2063832921 -918969985
REM
CELL 1.54180   15.00000   15.00000   15.00000   90.00000   90.00000   90.00000
LATT -1
SFAC C  
C      1  0.7114430000000  0.3409710000000  0.4491310000000 1.0
C      1  0.7147680000000  0.6523610000000  0.4488730000000 1.0
C      1  0.4208690000000  0.7527720000000  0.4498910000000 1.0
C      1  0.2456860000000  0.5024820000000  0.4496360000000 1.0
C      1  0.4134970000000  0.2472810000000  0.4487690000000 1.0
C      1  0.7109680000000  0.3412490000000  0.5506060000000 1.0
C      1  0.7159750000000  0.6529510000000  0.5504000000000 1.0
C      1  0.4211250000000  0.7531130000000  0.5513220000000 1.0
C      1  0.2451050000000  0.5023980000000  0.5505270000000 1.0
C      1  0.4133790000000  0.2474670000000  0.5504040000000 1.0
C      1  0.7818320000000  0.4110530000000  0.5497630000000 1.0
C      1  0.6712020000000  0.7416120000000  0.5494720000000 1.0
C      1  0.3227540000000  0.7389810000000  0.5508130000000 1.0
C      1  0.2214760000000  0.4057170000000  0.5496370000000 1.0
C      1  0.5017580000000  0.2023690000000  0.5494430000000 1.0
C      1  0.7821310000000  0.4107830000000  0.4501600000000 1.0
C      1  0.6705750000000  0.7413650000000  0.4499160000000 1.0
C      1  0.3223400000000  0.7395100000000  0.4511580000000 1.0
C      1  0.2214290000000  0.4059420000000  0.4500550000000 1.0
C      1  0.5018770000000  0.2022730000000  0.4498770000000 1.0
C      1  0.7217990000000  0.5733560000000  0.3958290000000 1.0
C      1  0.4974590000000  0.7339770000000  0.3960570000000 1.0
C      1  0.2803020000000  0.5726340000000  0.3951890000000 1.0
C      1  0.3625360000000  0.3087780000000  0.3963410000000 1.0
C      1  0.6377750000000  0.3112100000000  0.3961040000000 1.0
C      1  0.7214720000000  0.5737480000000  0.6034070000000 1.0
C      1  0.4980400000000  0.7343260000000  0.6047310000000 1.0
C      1  0.2795070000000  0.5721060000000  0.6055170000000 1.0
C      1  0.3626220000000  0.3088550000000  0.6031750000000 1.0
C      1  0.6370380000000  0.3118250000000  0.6032950000000 1.0
C      1  0.5010610000000  0.6601650000000  0.3206310000000 1.0
C      1  0.3493210000000  0.5510780000000  0.3187120000000 1.0
C      1  0.4056320000000  0.3720680000000  0.3233870000000 1.0
C      1  0.5928910000000  0.3709540000000  0.3218540000000 1.0
C      1  0.6521640000000  0.5489060000000  0.3206480000000 1.0
C      1  0.5007140000000  0.6605200000000  0.6800910000000 1.0
C      1  0.3488540000000  0.5510230000000  0.6817870000000 1.0
C      1  0.4055680000000  0.3722110000000  0.6765270000000 1.0
C      1  0.5927560000000  0.3714960000000  0.6779420000000 1.0
C      1  0.6516580000000  0.5495440000000  0.6786930000000 1.0
C      1  0.2775150000000  0.6512320000000  0.4496780000000 1.0
C      1  0.2854720000000  0.3307420000000  0.4485530000000 1.0
C      1  0.5904070000000  0.2470630000000  0.4487920000000 1.0
C      1  0.7685960000000  0.5090530000000  0.4488620000000 1.0
C      1  0.5728170000000  0.7581870000000  0.4494140000000 1.0
C      1  0.2772050000000  0.6509900000000  0.5515810000000 1.0
C      1  0.2855980000000  0.3304760000000  0.5508440000000 1.0
C      1  0.5902920000000  0.2472360000000  0.5505930000000 1.0
C      1  0.7683630000000  0.5093160000000  0.5506840000000 1.0
C      1  0.5734120000000  0.7579790000000  0.5511320000000 1.0
C      1  0.6127420000000  0.4635600000000  0.6854610000000 1.0
C      1  0.5700070000000  0.5964430000000  0.6876450000000 1.0
C      1  0.4309820000000  0.5973180000000  0.6889390000000 1.0
C      1  0.3868270000000  0.4644040000000  0.6876380000000 1.0
C      1  0.4989380000000  0.3822790000000  0.6851250000000 1.0
C      1  0.6128260000000  0.4630400000000  0.3138190000000 1.0
C      1  0.5707550000000  0.5964620000000  0.3124760000000 1.0
C      1  0.4319810000000  0.5964610000000  0.3108620000000 1.0
C      1  0.3867460000000  0.4642850000000  0.3132610000000 1.0
C      1  0.4991610000000  0.3820450000000  0.3148720000000 1.0
END
