TITL C-1525613-7943-3649 -0.000151097621140593 3375 -7839.83052365216 0 0 60 (C10) n - 1
REM
REM in /home/nfs/bkarasulu/CARBON/AIRSS/Generating-Clusters/ReaxFF-fromJPCA2015/Units_Real/Try2-Higher-symm/Only-C60
REM
REM
REM
REM
REM
REM ./C.cell (863b2abdce7293c0672fb3ba77bf323a)
REM AIRSS Version 0.9.1 bugfix July 2018 build 013d7b7c2542+ Fri, 06 Jul 2018 19:26:36 +0100
REM compiler GCC version 9.2.1 20190827 (Red Hat 9.2.1-1)
REM options -cpp -mtune=generic -march=x86-64 -g -O0 -fpre-include=/usr/include/finclude/math-vector-fortran.h
REM seed -1715112156 1652902169 899207893 765266278 -2464778 -1016686171 1480473558 1707190001 -1520941513 1951993001 -785185177 1993826272 769874717 -242428424 -836152984 1588727635 12271400 1142909041 -763772532 1334146283 932765268 1007991482 228640511 -1323408123 613916221 1441154721 748145001 -1687759607 172014711 -33290596 -349816481 60965220 -1051940448
REM
CELL 1.54180   15.00000   15.00000   15.00000   90.00000   90.00000   90.00000
LATT -1
SFAC C  
C      1  0.2518280000000  0.3965640000000  0.4904940000000 1.0
C      1  0.2937790000000  0.3967750000000  0.6380950000000 1.0
C      1  0.4142620000000  0.3965080000000  0.7331300000000 1.0
C      1  0.5676130000000  0.3967290000000  0.7388380000000 1.0
C      1  0.6951490000000  0.3966370000000  0.6535170000000 1.0
C      1  0.7481720000000  0.3965640000000  0.5095060000000 1.0
C      1  0.7062210000000  0.3967750000000  0.3619050000000 1.0
C      1  0.5857380000000  0.3965080000000  0.2668690000000 1.0
C      1  0.4323870000000  0.3967290000000  0.2611620000000 1.0
C      1  0.3048510000000  0.3966370000000  0.3464830000000 1.0
C      1  0.6199120000000  0.3628200000000  0.6790660000000 1.0
C      1  0.7023250000000  0.3627480000000  0.5744080000000 1.0
C      1  0.7073710000000  0.3628070000000  0.4412970000000 1.0
C      1  0.6332640000000  0.3627830000000  0.3305920000000 1.0
C      1  0.5082530000000  0.3627630000000  0.2845980000000 1.0
C      1  0.3800880000000  0.3628200000000  0.3209340000000 1.0
C      1  0.2976750000000  0.3627480000000  0.4255920000000 1.0
C      1  0.2926290000000  0.3628070000000  0.5587030000000 1.0
C      1  0.3667360000000  0.3627830000000  0.6694080000000 1.0
C      1  0.4917470000000  0.3627630000000  0.7154020000000 1.0
C      1  0.3182660000000  0.5833330000000  0.3570090000000 1.0
C      1  0.2689440000000  0.5832410000000  0.4911660000000 1.0
C      1  0.3078270000000  0.5835050000000  0.6286790000000 1.0
C      1  0.4201890000000  0.5831710000000  0.7169970000000 1.0
C      1  0.5630110000000  0.5834470000000  0.7225170000000 1.0
C      1  0.6817340000000  0.5833330000000  0.6429910000000 1.0
C      1  0.7310560000000  0.5832400000000  0.5088340000000 1.0
C      1  0.6921730000000  0.5835050000000  0.3713210000000 1.0
C      1  0.5798110000000  0.5831700000000  0.2830030000000 1.0
C      1  0.4369890000000  0.5834470000000  0.2774830000000 1.0
C      1  0.2946390000000  0.4955000000000  0.3384410000000 1.0
C      1  0.2388750000000  0.4954280000000  0.4900030000000 1.0
C      1  0.2829240000000  0.4956360000000  0.6453610000000 1.0
C      1  0.4097960000000  0.4953730000000  0.7452690000000 1.0
C      1  0.5711710000000  0.4955900000000  0.7513850000000 1.0
C      1  0.7053610000000  0.4955000000000  0.6615590000000 1.0
C      1  0.7611250000000  0.4954280000000  0.5099970000000 1.0
C      1  0.7170760000000  0.4956360000000  0.3546390000000 1.0
C      1  0.5902040000000  0.4953730000000  0.2547310000000 1.0
C      1  0.4288290000000  0.4955910000000  0.2486150000000 1.0
C      1  0.6311240000000  0.5119500000000  0.6031610000000 1.0
C      1  0.6667220000000  0.5118180000000  0.5063800000000 1.0
C      1  0.6386240000000  0.5121930000000  0.4071750000000 1.0
C      1  0.5575910000000  0.5117190000000  0.3434110000000 1.0
C      1  0.4545490000000  0.5121110000000  0.3394750000000 1.0
C      1  0.3688760000000  0.5119490000000  0.3968390000000 1.0
C      1  0.3332780000000  0.5118190000000  0.4936200000000 1.0
C      1  0.3613760000000  0.5121920000000  0.5928250000000 1.0
C      1  0.4424100000000  0.5117190000000  0.6565890000000 1.0
C      1  0.5454510000000  0.5121110000000  0.6605250000000 1.0
C      1  0.5546780000000  0.6496570000000  0.3513230000000 1.0
C      1  0.4568530000000  0.6498430000000  0.3475850000000 1.0
C      1  0.3754960000000  0.6497660000000  0.4020590000000 1.0
C      1  0.3417040000000  0.6497030000000  0.4939350000000 1.0
C      1  0.3683830000000  0.6498830000000  0.5881370000000 1.0
C      1  0.4453220000000  0.6496570000000  0.6486770000000 1.0
C      1  0.5431470000000  0.6498430000000  0.6524150000000 1.0
C      1  0.6245040000000  0.6497660000000  0.5979410000000 1.0
C      1  0.6582960000000  0.6497030000000  0.5060650000000 1.0
C      1  0.6316170000000  0.6498830000000  0.4118630000000 1.0
END
