TITL C-1525613-7943-3599 0.182694055335809 3375 -8377.9573026644 0 0 60 (C2) n - 1
REM
REM in /home/nfs/bkarasulu/CARBON/AIRSS/Generating-Clusters/ReaxFF-fromJPCA2015/Units_Real/Try2-Higher-symm/Only-C60
REM
REM
REM
REM
REM
REM ./C.cell (863b2abdce7293c0672fb3ba77bf323a)
REM AIRSS Version 0.9.1 bugfix July 2018 build 013d7b7c2542+ Fri, 06 Jul 2018 19:26:36 +0100
REM compiler GCC version 9.2.1 20190827 (Red Hat 9.2.1-1)
REM options -cpp -mtune=generic -march=x86-64 -g -O0 -fpre-include=/usr/include/finclude/math-vector-fortran.h
REM seed 1956440437 -891568515 180805272 -1311464872 1389681731 502708476 1001589243 1627375678 1657928772 1665795220 110136972 -863416957 1326385076 -961442347 707526079 1932620978 -1157713155 -1935658414 -1442514280 -692601460 1224107792 -1990487898 -266040031 -1425758267 1193452470 459021674 -1808755952 258476403 -2115784441 -217554178 277337148 1603965793 958733853
REM
CELL 1.54180   15.00000   15.00000   15.00000   90.00000   90.00000   90.00000
LATT -1
SFAC C  
C      1  0.3171330000000  0.5186570000000  0.7126590000000 1.0
C      1  0.3277890000000  0.3888850000000  0.6809190000000 1.0
C      1  0.3142150000000  0.3047240000000  0.5794720000000 1.0
C      1  0.3200680000000  0.2904640000000  0.4474660000000 1.0
C      1  0.3157730000000  0.3558040000000  0.3321790000000 1.0
C      1  0.3171330000000  0.4813470000000  0.2873410000000 1.0
C      1  0.3277930000000  0.6111200000000  0.3190860000000 1.0
C      1  0.3142230000000  0.6952790000000  0.4205320000000 1.0
C      1  0.3200590000000  0.7095380000000  0.5525330000000 1.0
C      1  0.3157630000000  0.6441930000000  0.6678260000000 1.0
C      1  0.3579860000000  0.2659720000000  0.5188800000000 1.0
C      1  0.3544230000000  0.2848660000000  0.3666870000000 1.0
C      1  0.3483000000000  0.4058780000000  0.2742790000000 1.0
C      1  0.3589590000000  0.5527980000000  0.2675400000000 1.0
C      1  0.3600220000000  0.6840450000000  0.3480130000000 1.0
C      1  0.3580010000000  0.7340180000000  0.4811250000000 1.0
C      1  0.3544010000000  0.7151470000000  0.6333190000000 1.0
C      1  0.3482640000000  0.5941150000000  0.7257130000000 1.0
C      1  0.3589520000000  0.4472060000000  0.7324610000000 1.0
C      1  0.3600210000000  0.3159580000000  0.6519900000000 1.0
C      1  0.7014450000000  0.5403690000000  0.3456630000000 1.0
C      1  0.6935210000000  0.6255340000000  0.3996850000000 1.0
C      1  0.6948000000000  0.6625820000000  0.4894790000000 1.0
C      1  0.6980820000000  0.6425060000000  0.5907390000000 1.0
C      1  0.6862130000000  0.5583980000000  0.6502950000000 1.0
C      1  0.7014160000000  0.4596360000000  0.6543130000000 1.0
C      1  0.6935630000000  0.3744550000000  0.6002880000000 1.0
C      1  0.6947370000000  0.3374350000000  0.5105070000000 1.0
C      1  0.6981340000000  0.3575160000000  0.4092900000000 1.0
C      1  0.6862460000000  0.4416190000000  0.3497170000000 1.0
C      1  0.4585380000000  0.7285220000000  0.4585720000000 1.0
C      1  0.4521420000000  0.7223650000000  0.6368620000000 1.0
C      1  0.4542540000000  0.5976620000000  0.7295120000000 1.0
C      1  0.4631950000000  0.4511480000000  0.7559120000000 1.0
C      1  0.4592730000000  0.2964810000000  0.6309360000000 1.0
C      1  0.4585270000000  0.2714680000000  0.5414480000000 1.0
C      1  0.4521720000000  0.2776460000000  0.3631360000000 1.0
C      1  0.4542470000000  0.4023150000000  0.2704920000000 1.0
C      1  0.4631960000000  0.5488640000000  0.2440850000000 1.0
C      1  0.4592710000000  0.7035250000000  0.3690820000000 1.0
C      1  0.6385460000000  0.5511580000000  0.2723210000000 1.0
C      1  0.6293080000000  0.6845290000000  0.3502640000000 1.0
C      1  0.6287000000000  0.7369670000000  0.4843200000000 1.0
C      1  0.6526830000000  0.7109470000000  0.6356320000000 1.0
C      1  0.6244250000000  0.5872490000000  0.7227580000000 1.0
C      1  0.6385410000000  0.4488630000000  0.7276710000000 1.0
C      1  0.6293110000000  0.3154870000000  0.6497000000000 1.0
C      1  0.6286930000000  0.2629370000000  0.5156880000000 1.0
C      1  0.6526590000000  0.2890790000000  0.3644390000000 1.0
C      1  0.6244160000000  0.4127450000000  0.2771880000000 1.0
C      1  0.5439190000000  0.2823130000000  0.3792070000000 1.0
C      1  0.5334150000000  0.3730350000000  0.3047630000000 1.0
C      1  0.5422300000000  0.5919530000000  0.2600090000000 1.0
C      1  0.5366580000000  0.6801060000000  0.3169510000000 1.0
C      1  0.5340060000000  0.7331090000000  0.5179790000000 1.0
C      1  0.5438890000000  0.7176990000000  0.6208000000000 1.0
C      1  0.5334780000000  0.6269710000000  0.6952270000000 1.0
C      1  0.5422380000000  0.4080500000000  0.7399840000000 1.0
C      1  0.5366670000000  0.3198950000000  0.6830330000000 1.0
C      1  0.5339690000000  0.2668480000000  0.4820290000000 1.0
END
