TITL C-1525613-7943-6123 0.254563773137943 3375 -8014.20500882393 0 0 60 (C1) n - 1
REM
REM in /home/nfs/bkarasulu/CARBON/AIRSS/Generating-Clusters/ReaxFF-fromJPCA2015/Units_Real/Try2-Higher-symm/Only-C60
REM
REM
REM
REM
REM
REM ./C.cell (863b2abdce7293c0672fb3ba77bf323a)
REM AIRSS Version 0.9.1 bugfix July 2018 build 013d7b7c2542+ Fri, 06 Jul 2018 19:26:36 +0100
REM compiler GCC version 9.2.1 20190827 (Red Hat 9.2.1-1)
REM options -cpp -mtune=generic -march=x86-64 -g -O0 -fpre-include=/usr/include/finclude/math-vector-fortran.h
REM seed 1169215856 440325127 -1230933856 -1175900555 1639591749 -479202491 -505673203 1670467148 741037083 -271561783 -386744860 1052861027 -1255747233 344581415 -1313783999 -332161144 -1770151099 2111458634 1814905394 -1405378323 1081309440 -1882607005 -822374721 902887431 -540338193 106732110 262163724 1056203094 174851273 -858054680 -976725611 1623467781 -1730238780
REM
CELL 1.54180   15.00000   15.00000   15.00000   90.00000   90.00000   90.00000
LATT -1
SFAC C  
C      1  0.4307570000000  0.2814990000000  0.4549770000000 1.0
C      1  0.4172350000000  0.7185830000000  0.5041610000000 1.0
C      1  0.4352590000000  0.2805390000000  0.5524340000000 1.0
C      1  0.4782940000000  0.7191720000000  0.5802980000000 1.0
C      1  0.5295750000000  0.2811150000000  0.5775600000000 1.0
C      1  0.5693850000000  0.7186800000000  0.5450710000000 1.0
C      1  0.5829000000000  0.2810910000000  0.4957440000000 1.0
C      1  0.5648110000000  0.7197040000000  0.4475300000000 1.0
C      1  0.5218230000000  0.2806780000000  0.4196510000000 1.0
C      1  0.4704500000000  0.7190760000000  0.4222750000000 1.0
C      1  0.6440930000000  0.6812840000000  0.5946510000000 1.0
C      1  0.6727580000000  0.3176810000000  0.4918220000000 1.0
C      1  0.6358660000000  0.6848690000000  0.3913190000000 1.0
C      1  0.5460530000000  0.3159700000000  0.3325240000000 1.0
C      1  0.4391010000000  0.6836670000000  0.3375690000000 1.0
C      1  0.3560410000000  0.3188430000000  0.4053600000000 1.0
C      1  0.3275080000000  0.6817330000000  0.5081210000000 1.0
C      1  0.3641790000000  0.3150010000000  0.6088010000000 1.0
C      1  0.4540480000000  0.6837640000000  0.6673860000000 1.0
C      1  0.5608210000000  0.3169200000000  0.6621640000000 1.0
C      1  0.2964510000000  0.3486560000000  0.5599550000000 1.0
C      1  0.3700130000000  0.6514160000000  0.6684630000000 1.0
C      1  0.4931350000000  0.3477630000000  0.7128480000000 1.0
C      1  0.6189730000000  0.6485980000000  0.6743640000000 1.0
C      1  0.6989540000000  0.3509640000000  0.5711650000000 1.0
C      1  0.7036910000000  0.6512650000000  0.4400770000000 1.0
C      1  0.6301260000000  0.3483030000000  0.3313770000000 1.0
C      1  0.5069700000000  0.6524740000000  0.2871830000000 1.0
C      1  0.3810840000000  0.3514630000000  0.3256340000000 1.0
C      1  0.3010890000000  0.6488840000000  0.4287690000000 1.0
C      1  0.4265010000000  0.4603470000000  0.5906330000000 1.0
C      1  0.4539160000000  0.5441360000000  0.5790860000000 1.0
C      1  0.5151000000000  0.4875690000000  0.6146290000000 1.0
C      1  0.5784220000000  0.4984300000000  0.5603860000000 1.0
C      1  0.6092200000000  0.4781290000000  0.4866860000000 1.0
C      1  0.5765280000000  0.5410250000000  0.4310670000000 1.0
C      1  0.5439880000000  0.4535210000000  0.4187410000000 1.0
C      1  0.4910000000000  0.5228360000000  0.3745190000000 1.0
C      1  0.4210540000000  0.5115870000000  0.4310640000000 1.0
C      1  0.3836270000000  0.5037490000000  0.5134320000000 1.0
C      1  0.2704000000000  0.3500270000000  0.4678070000000 1.0
C      1  0.2948130000000  0.6507840000000  0.6091220000000 1.0
C      1  0.3973610000000  0.3465350000000  0.7095020000000 1.0
C      1  0.5399550000000  0.6502670000000  0.7283900000000 1.0
C      1  0.6661400000000  0.3504910000000  0.6611120000000 1.0
C      1  0.7296520000000  0.6498720000000  0.5322450000000 1.0
C      1  0.7052450000000  0.3489710000000  0.3908570000000 1.0
C      1  0.6027790000000  0.6532170000000  0.2907550000000 1.0
C      1  0.4601150000000  0.3496160000000  0.2716380000000 1.0
C      1  0.3338080000000  0.6499390000000  0.3387870000000 1.0
C      1  0.7337160000000  0.4247260000000  0.3509780000000 1.0
C      1  0.6032010000000  0.5773430000000  0.2417830000000 1.0
C      1  0.4321300000000  0.4253420000000  0.2312590000000 1.0
C      1  0.2876720000000  0.5740980000000  0.3229770000000 1.0
C      1  0.2243710000000  0.4259500000000  0.4835070000000 1.0
C      1  0.2661370000000  0.5752130000000  0.6491820000000 1.0
C      1  0.3966690000000  0.4219680000000  0.7591300000000 1.0
C      1  0.5679130000000  0.5744150000000  0.7685210000000 1.0
C      1  0.7119510000000  0.4266450000000  0.6764190000000 1.0
C      1  0.7751740000000  0.5735990000000  0.5165340000000 1.0
END
