TITL C-1525613-7943-5342 0.0506585910193285 3375 -8591.47729142394 0 0 60 (C5v) n - 1
REM
REM in /home/nfs/bkarasulu/CARBON/AIRSS/Generating-Clusters/ReaxFF-fromJPCA2015/Units_Real/Try2-Higher-symm/Only-C60
REM
REM
REM
REM
REM
REM ./C.cell (863b2abdce7293c0672fb3ba77bf323a)
REM AIRSS Version 0.9.1 bugfix July 2018 build 013d7b7c2542+ Fri, 06 Jul 2018 19:26:36 +0100
REM compiler GCC version 9.2.1 20190827 (Red Hat 9.2.1-1)
REM options -cpp -mtune=generic -march=x86-64 -g -O0 -fpre-include=/usr/include/finclude/math-vector-fortran.h
REM seed 487122635 376254848 185448201 1156847803 213149860 -1145124021 -864331058 97891526 -222875304 1521315236 -267542669 -1924428973 2014359496 2094883781 -1386250594 1777852241 -911665902 -1816928679 1387370835 -1405825049 -756686860 149302040 -198491404 -1171010130 134536345 681042 -1857276428 2104394767 1392286042 -1723977218 1909992991 2082714862 746413866
REM
CELL 1.54180   15.00000   15.00000   15.00000   90.00000   90.00000   90.00000
LATT -1
SFAC C  
C      1  0.4505930000000  0.2480480000000  0.6932670000000 1.0
C      1  0.2451130000000  0.4690760000000  0.6934200000000 1.0
C      1  0.3918720000000  0.7328240000000  0.6932590000000 1.0
C      1  0.6880620000000  0.6747320000000  0.6933770000000 1.0
C      1  0.7243410000000  0.3751040000000  0.6934130000000 1.0
C      1  0.5494070000000  0.2480480000000  0.6932670000000 1.0
C      1  0.7548870000000  0.4690760000000  0.6934200000000 1.0
C      1  0.6081280000000  0.7328240000000  0.6932590000000 1.0
C      1  0.3119380000000  0.6747320000000  0.6933770000000 1.0
C      1  0.2756590000000  0.3751040000000  0.6934130000000 1.0
C      1  0.4504270000000  0.2645360000000  0.3508710000000 1.0
C      1  0.2605900000000  0.4745140000000  0.3511440000000 1.0
C      1  0.4016150000000  0.7199570000000  0.3511720000000 1.0
C      1  0.6786410000000  0.6617390000000  0.3509470000000 1.0
C      1  0.7088600000000  0.3802070000000  0.3507690000000 1.0
C      1  0.5495730000000  0.2645360000000  0.3508710000000 1.0
C      1  0.7394100000000  0.4745140000000  0.3511440000000 1.0
C      1  0.5983850000000  0.7199570000000  0.3511720000000 1.0
C      1  0.3213590000000  0.6617390000000  0.3509470000000 1.0
C      1  0.2911400000000  0.3802070000000  0.3507690000000 1.0
C      1  0.6587890000000  0.5004020000000  0.5036920000000 1.0
C      1  0.5496940000000  0.3489820000000  0.5035170000000 1.0
C      1  0.3721430000000  0.4059480000000  0.5031290000000 1.0
C      1  0.3713040000000  0.5923540000000  0.5030760000000 1.0
C      1  0.5483930000000  0.6508840000000  0.5034510000000 1.0
C      1  0.3412110000000  0.5004020000000  0.5036920000000 1.0
C      1  0.4503060000000  0.3489820000000  0.5035170000000 1.0
C      1  0.6278570000000  0.4059480000000  0.5031290000000 1.0
C      1  0.6286960000000  0.5923540000000  0.5030760000000 1.0
C      1  0.4516070000000  0.6508840000000  0.5034510000000 1.0
C      1  0.3213080000000  0.6614480000000  0.4507540000000 1.0
C      1  0.5984990000000  0.7197830000000  0.4509740000000 1.0
C      1  0.7396480000000  0.4741020000000  0.4509260000000 1.0
C      1  0.5495750000000  0.2640250000000  0.4506490000000 1.0
C      1  0.2910970000000  0.3798220000000  0.4505600000000 1.0
C      1  0.6786920000000  0.6614480000000  0.4507540000000 1.0
C      1  0.4015010000000  0.7197830000000  0.4509740000000 1.0
C      1  0.2603520000000  0.4741020000000  0.4509260000000 1.0
C      1  0.4504250000000  0.2640250000000  0.4506490000000 1.0
C      1  0.7089030000000  0.3798220000000  0.4505600000000 1.0
C      1  0.3745920000000  0.4094050000000  0.7036130000000 1.0
C      1  0.3751200000000  0.5912440000000  0.7036180000000 1.0
C      1  0.5482180000000  0.6469670000000  0.7036590000000 1.0
C      1  0.6547070000000  0.4995230000000  0.7037450000000 1.0
C      1  0.5473810000000  0.3527270000000  0.7035820000000 1.0
C      1  0.6254080000000  0.4094050000000  0.7036130000000 1.0
C      1  0.6248800000000  0.5912440000000  0.7036180000000 1.0
C      1  0.4517820000000  0.6469670000000  0.7036590000000 1.0
C      1  0.3452930000000  0.4995230000000  0.7037450000000 1.0
C      1  0.4526190000000  0.3527270000000  0.7035820000000 1.0
C      1  0.6289230000000  0.5931720000000  0.2975980000000 1.0
C      1  0.6281530000000  0.4064000000000  0.2976760000000 1.0
C      1  0.4502900000000  0.3495890000000  0.2980310000000 1.0
C      1  0.3413460000000  0.5010060000000  0.2982060000000 1.0
C      1  0.4515820000000  0.6514810000000  0.2979060000000 1.0
C      1  0.3710770000000  0.5931720000000  0.2975980000000 1.0
C      1  0.3718470000000  0.4064000000000  0.2976760000000 1.0
C      1  0.5497100000000  0.3495890000000  0.2980310000000 1.0
C      1  0.6586540000000  0.5010060000000  0.2982060000000 1.0
C      1  0.5484180000000  0.6514810000000  0.2979060000000 1.0
END
