TITL C-1525613-7943-7139 0.0445079506396745 3375 -9048.10280184497 0 0 60 (C2) n - 1
REM
REM in /home/nfs/bkarasulu/CARBON/AIRSS/Generating-Clusters/ReaxFF-fromJPCA2015/Units_Real/Try2-Higher-symm/Only-C60
REM
REM
REM
REM
REM
REM ./C.cell (863b2abdce7293c0672fb3ba77bf323a)
REM AIRSS Version 0.9.1 bugfix July 2018 build 013d7b7c2542+ Fri, 06 Jul 2018 19:26:36 +0100
REM compiler GCC version 9.2.1 20190827 (Red Hat 9.2.1-1)
REM options -cpp -mtune=generic -march=x86-64 -g -O0 -fpre-include=/usr/include/finclude/math-vector-fortran.h
REM seed 1673008169 -1952325570 -1510877984 -865690866 -1489883778 -110999707 -969552872 -506928104 288117507 169275279 -654172524 -1914228841 -323729814 -623181942 -980681849 -1500764098 1990280049 575525688 -855782659 512572772 997777745 1166791197 1506552412 574962493 888446937 -761403986 -1029996724 913899264 1443607009 683647998 1296083026 -956966906 1827151470
REM
CELL 1.54180   15.00000   15.00000   15.00000   90.00000   90.00000   90.00000
LATT -1
SFAC C  
C      1  0.3983500000000  0.3544720000000  0.6349600000000 1.0
C      1  0.3404290000000  0.3545570000000  0.4463390000000 1.0
C      1  0.5026370000000  0.3539400000000  0.3315140000000 1.0
C      1  0.6632140000000  0.3532340000000  0.4508000000000 1.0
C      1  0.5976660000000  0.3546090000000  0.6378710000000 1.0
C      1  0.6016500000000  0.6455310000000  0.6349570000000 1.0
C      1  0.6595690000000  0.6454420000000  0.4463410000000 1.0
C      1  0.4973600000000  0.6460580000000  0.3315170000000 1.0
C      1  0.3367930000000  0.6467570000000  0.4508060000000 1.0
C      1  0.4023220000000  0.6453830000000  0.6378640000000 1.0
C      1  0.4209710000000  0.3046070000000  0.4729260000000 1.0
C      1  0.5021210000000  0.3049030000000  0.4165750000000 1.0
C      1  0.5808960000000  0.3041050000000  0.4756840000000 1.0
C      1  0.5482250000000  0.3048050000000  0.5686730000000 1.0
C      1  0.4497080000000  0.3044300000000  0.5670020000000 1.0
C      1  0.5790290000000  0.6953920000000  0.4729250000000 1.0
C      1  0.4978780000000  0.6950950000000  0.4165750000000 1.0
C      1  0.4191060000000  0.6958900000000  0.4756860000000 1.0
C      1  0.4517750000000  0.6951920000000  0.5686710000000 1.0
C      1  0.5502920000000  0.6955700000000  0.5670040000000 1.0
C      1  0.4264260000000  0.4088510000000  0.3050930000000 1.0
C      1  0.6640420000000  0.4080920000000  0.3700000000000 1.0
C      1  0.6772450000000  0.4071650000000  0.6152080000000 1.0
C      1  0.4446960000000  0.4085450000000  0.7018360000000 1.0
C      1  0.2908380000000  0.4089310000000  0.5110610000000 1.0
C      1  0.5735780000000  0.5911610000000  0.3050510000000 1.0
C      1  0.3359610000000  0.5919070000000  0.3699970000000 1.0
C      1  0.3227360000000  0.5928440000000  0.6152260000000 1.0
C      1  0.5552970000000  0.5914470000000  0.7018130000000 1.0
C      1  0.7091660000000  0.5910700000000  0.5110590000000 1.0
C      1  0.4552820000000  0.5884870000000  0.7003690000000 1.0
C      1  0.2924620000000  0.5901030000000  0.5201830000000 1.0
C      1  0.4179500000000  0.5883750000000  0.3121400000000 1.0
C      1  0.6533870000000  0.5878110000000  0.3654440000000 1.0
C      1  0.6775370000000  0.5883160000000  0.6052130000000 1.0
C      1  0.5447130000000  0.4115150000000  0.7003670000000 1.0
C      1  0.7075730000000  0.4098870000000  0.5201710000000 1.0
C      1  0.5820490000000  0.4116250000000  0.3121400000000 1.0
C      1  0.3466090000000  0.4121880000000  0.3654400000000 1.0
C      1  0.3224650000000  0.4116820000000  0.6052100000000 1.0
C      1  0.5503650000000  0.5501100000000  0.4311450000000 1.0
C      1  0.5757050000000  0.5514390000000  0.5264980000000 1.0
C      1  0.4969130000000  0.5495830000000  0.5857750000000 1.0
C      1  0.4192980000000  0.5505910000000  0.5214040000000 1.0
C      1  0.4539970000000  0.5488960000000  0.4254120000000 1.0
C      1  0.4496200000000  0.4498800000000  0.4311060000000 1.0
C      1  0.4242830000000  0.4486030000000  0.5265080000000 1.0
C      1  0.5030490000000  0.4504350000000  0.5857850000000 1.0
C      1  0.5807640000000  0.4493640000000  0.5214330000000 1.0
C      1  0.5460050000000  0.4511200000000  0.4253720000000 1.0
C      1  0.7270250000000  0.5003640000000  0.4779990000000 1.0
C      1  0.5929280000000  0.5017990000000  0.7075760000000 1.0
C      1  0.3301900000000  0.5019800000000  0.6515310000000 1.0
C      1  0.3024820000000  0.5023290000000  0.3876200000000 1.0
C      1  0.5473420000000  0.5017470000000  0.2761960000000 1.0
C      1  0.2729770000000  0.4996370000000  0.4780010000000 1.0
C      1  0.4070720000000  0.4981960000000  0.7075780000000 1.0
C      1  0.6698070000000  0.4980290000000  0.6515330000000 1.0
C      1  0.6975190000000  0.4976700000000  0.3876210000000 1.0
C      1  0.4526570000000  0.4982540000000  0.2761960000000 1.0
END
