TITL C-1525613-7943-3677 0.109587683958349 3375 -8521.49639011011 0 0 60 (Ci) n - 1
REM
REM in /home/nfs/bkarasulu/CARBON/AIRSS/Generating-Clusters/ReaxFF-fromJPCA2015/Units_Real/Try2-Higher-symm/Only-C60
REM
REM
REM
REM
REM
REM ./C.cell (863b2abdce7293c0672fb3ba77bf323a)
REM AIRSS Version 0.9.1 bugfix July 2018 build 013d7b7c2542+ Fri, 06 Jul 2018 19:26:36 +0100
REM compiler GCC version 9.2.1 20190827 (Red Hat 9.2.1-1)
REM options -cpp -mtune=generic -march=x86-64 -g -O0 -fpre-include=/usr/include/finclude/math-vector-fortran.h
REM seed -1635221195 -2035155034 2122017655 -467331957 -782590777 1333570981 -1635038564 1479013617 374174907 -1226099476 1072978180 1142579101 -1609016261 289898440 484425907 -1975656951 425929066 1526167327 244965645 -153100951 -785431021 612660452 -1044021791 1766607427 1064052754 293120918 1806739162 -1897527915 -496645820 406262261 -262097506 832963461 -1396030663
REM
CELL 1.54180   15.00000   15.00000   15.00000   90.00000   90.00000   90.00000
LATT -1
SFAC C  
C      1  0.6251010000000  0.3992990000000  0.6312990000000 1.0
C      1  0.6601440000000  0.4910940000000  0.3682400000000 1.0
C      1  0.6348820000000  0.5865150000000  0.6324050000000 1.0
C      1  0.5579230000000  0.6508490000000  0.3630960000000 1.0
C      1  0.4591100000000  0.6545090000000  0.6322060000000 1.0
C      1  0.3749510000000  0.6006610000000  0.3686600000000 1.0
C      1  0.3398860000000  0.5088930000000  0.6317550000000 1.0
C      1  0.3650200000000  0.4133200000000  0.3675980000000 1.0
C      1  0.4421660000000  0.3491110000000  0.6367720000000 1.0
C      1  0.5408210000000  0.3455440000000  0.3678730000000 1.0
C      1  0.3028280000000  0.6400030000000  0.6109040000000 1.0
C      1  0.2580700000000  0.4968680000000  0.3882550000000 1.0
C      1  0.3061130000000  0.3587580000000  0.6117260000000 1.0
C      1  0.4284280000000  0.2698830000000  0.3897050000000 1.0
C      1  0.5772440000000  0.2717560000000  0.6116780000000 1.0
C      1  0.6971740000000  0.3599600000000  0.3891280000000 1.0
C      1  0.7419130000000  0.5031040000000  0.6116770000000 1.0
C      1  0.6939810000000  0.6411790000000  0.3882470000000 1.0
C      1  0.5715090000000  0.7301950000000  0.6104260000000 1.0
C      1  0.4226810000000  0.7282850000000  0.3883210000000 1.0
C      1  0.2728940000000  0.6162670000000  0.5226200000000 1.0
C      1  0.2480390000000  0.4612010000000  0.4771000000000 1.0
C      1  0.3201430000000  0.3229720000000  0.5240550000000 1.0
C      1  0.4608790000000  0.2501330000000  0.4777990000000 1.0
C      1  0.6153750000000  0.2734940000000  0.5233950000000 1.0
C      1  0.7270780000000  0.3837380000000  0.4773960000000 1.0
C      1  0.7519960000000  0.5388850000000  0.5228870000000 1.0
C      1  0.6797690000000  0.6769950000000  0.4759270000000 1.0
C      1  0.5391610000000  0.7497240000000  0.5221890000000 1.0
C      1  0.3845460000000  0.7266510000000  0.4766110000000 1.0
C      1  0.5783910000000  0.4984140000000  0.4257210000000 1.0
C      1  0.5635610000000  0.5406510000000  0.5818950000000 1.0
C      1  0.5298630000000  0.5807310000000  0.4347870000000 1.0
C      1  0.4796030000000  0.5723120000000  0.5812470000000 1.0
C      1  0.4392660000000  0.5503450000000  0.4259570000000 1.0
C      1  0.4216070000000  0.5016500000000  0.5743750000000 1.0
C      1  0.4364050000000  0.4592280000000  0.4182840000000 1.0
C      1  0.4701670000000  0.4193140000000  0.5651920000000 1.0
C      1  0.5204310000000  0.4277660000000  0.4185660000000 1.0
C      1  0.5608080000000  0.4496450000000  0.5740640000000 1.0
C      1  0.5500030000000  0.2757360000000  0.4504560000000 1.0
C      1  0.6730630000000  0.3467610000000  0.5505120000000 1.0
C      1  0.7301270000000  0.4769240000000  0.4502290000000 1.0
C      1  0.6987390000000  0.6158660000000  0.5492030000000 1.0
C      1  0.5899010000000  0.7063940000000  0.4490160000000 1.0
C      1  0.4499820000000  0.7243980000000  0.5495650000000 1.0
C      1  0.3269070000000  0.6533110000000  0.4495340000000 1.0
C      1  0.2697910000000  0.5230770000000  0.5498770000000 1.0
C      1  0.3011720000000  0.3841460000000  0.4507700000000 1.0
C      1  0.4101110000000  0.2936580000000  0.5508340000000 1.0
C      1  0.6293920000000  0.3935450000000  0.3372430000000 1.0
C      1  0.6674550000000  0.4899520000000  0.6636160000000 1.0
C      1  0.6408160000000  0.5891720000000  0.3345180000000 1.0
C      1  0.5615780000000  0.6557220000000  0.6629550000000 1.0
C      1  0.4575200000000  0.6617860000000  0.3354910000000 1.0
C      1  0.3706090000000  0.6064640000000  0.6627810000000 1.0
C      1  0.3325880000000  0.5100140000000  0.3364430000000 1.0
C      1  0.3593430000000  0.4107480000000  0.6653440000000 1.0
C      1  0.4385170000000  0.3442460000000  0.3370360000000 1.0
C      1  0.5424610000000  0.3381800000000  0.6645390000000 1.0
END
