TITL C-1525613-7943-6454 0.00531371629153017 3375 -9076.19419183477 0 0 60 (C1) n - 1
REM
REM in /home/nfs/bkarasulu/CARBON/AIRSS/Generating-Clusters/ReaxFF-fromJPCA2015/Units_Real/Try2-Higher-symm/Only-C60
REM
REM
REM
REM
REM
REM ./C.cell (863b2abdce7293c0672fb3ba77bf323a)
REM AIRSS Version 0.9.1 bugfix July 2018 build 013d7b7c2542+ Fri, 06 Jul 2018 19:26:36 +0100
REM compiler GCC version 9.2.1 20190827 (Red Hat 9.2.1-1)
REM options -cpp -mtune=generic -march=x86-64 -g -O0 -fpre-include=/usr/include/finclude/math-vector-fortran.h
REM seed -1533810219 1976752341 1850676555 1565706963 44942110 1614966545 -401453589 -1603945338 -312215070 785656080 -356174131 -918597603 2056268776 2061316556 1324378339 -380655363 2041466499 -1624113043 -1238448181 1094844280 -855929622 1293499128 321222659 52650880 -793963939 -631533221 980445483 -524780313 2039641249 -1322010961 1502192365 -797336471 -383092931
REM
CELL 1.54180   15.00000   15.00000   15.00000   90.00000   90.00000   90.00000
LATT -1
SFAC C  
C      1  0.4903500000000  0.6421270000000  0.6876260000000 1.0
C      1  0.3008710000000  0.6275780000000  0.5596480000000 1.0
C      1  0.4115600000000  0.6238420000000  0.3603870000000 1.0
C      1  0.6228590000000  0.6038070000000  0.3200060000000 1.0
C      1  0.6907760000000  0.6490180000000  0.5749770000000 1.0
C      1  0.5118660000000  0.3546250000000  0.6942330000000 1.0
C      1  0.6857790000000  0.3646160000000  0.5584110000000 1.0
C      1  0.5909270000000  0.3764680000000  0.3651510000000 1.0
C      1  0.3832130000000  0.3993550000000  0.3162550000000 1.0
C      1  0.3055090000000  0.3526220000000  0.5809600000000 1.0
C      1  0.5736660000000  0.4914000000000  0.2484920000000 1.0
C      1  0.7459490000000  0.5021940000000  0.5352490000000 1.0
C      1  0.5720010000000  0.5033700000000  0.7168940000000 1.0
C      1  0.3118830000000  0.4920550000000  0.6579050000000 1.0
C      1  0.3316170000000  0.4694190000000  0.3658960000000 1.0
C      1  0.4338920000000  0.5088700000000  0.2455310000000 1.0
C      1  0.2589510000000  0.5039040000000  0.5130400000000 1.0
C      1  0.4373870000000  0.4959480000000  0.7194580000000 1.0
C      1  0.7063380000000  0.5014760000000  0.6243850000000 1.0
C      1  0.6752280000000  0.5280860000000  0.3629660000000 1.0
C      1  0.3821840000000  0.2663430000000  0.4427010000000 1.0
C      1  0.4578700000000  0.2761830000000  0.3918030000000 1.0
C      1  0.5931360000000  0.2542420000000  0.4785760000000 1.0
C      1  0.5816810000000  0.2379910000000  0.5700750000000 1.0
C      1  0.4311690000000  0.2940390000000  0.5975450000000 1.0
C      1  0.6138550000000  0.7415680000000  0.4375080000000 1.0
C      1  0.5338400000000  0.7327790000000  0.3918900000000 1.0
C      1  0.3983800000000  0.7401960000000  0.4810250000000 1.0
C      1  0.4098770000000  0.7569150000000  0.5723100000000 1.0
C      1  0.5673730000000  0.7140430000000  0.5951140000000 1.0
C      1  0.2863090000000  0.5812080000000  0.4728230000000 1.0
C      1  0.4532830000000  0.5955530000000  0.2739820000000 1.0
C      1  0.7131710000000  0.5805870000000  0.4244460000000 1.0
C      1  0.6617030000000  0.5875910000000  0.6432350000000 1.0
C      1  0.4120240000000  0.5841220000000  0.6994250000000 1.0
C      1  0.7045430000000  0.4270860000000  0.4862220000000 1.0
C      1  0.5538500000000  0.4049110000000  0.2773220000000 1.0
C      1  0.2963480000000  0.4056720000000  0.4238890000000 1.0
C      1  0.3335550000000  0.4013770000000  0.6600310000000 1.0
C      1  0.5921630000000  0.4131320000000  0.7014620000000 1.0
C      1  0.3335450000000  0.7147730000000  0.5428720000000 1.0
C      1  0.4484110000000  0.6963550000000  0.4131890000000 1.0
C      1  0.6116870000000  0.6936060000000  0.3574100000000 1.0
C      1  0.6345080000000  0.7210450000000  0.5339950000000 1.0
C      1  0.4844420000000  0.7233540000000  0.6324250000000 1.0
C      1  0.6589470000000  0.2763610000000  0.5396440000000 1.0
C      1  0.5463070000000  0.3052070000000  0.4131630000000 1.0
C      1  0.3751740000000  0.3140250000000  0.3625090000000 1.0
C      1  0.3633360000000  0.2856850000000  0.5389980000000 1.0
C      1  0.5128760000000  0.2803610000000  0.6294280000000 1.0
C      1  0.4285640000000  0.4053550000000  0.7061580000000 1.0
C      1  0.2557750000000  0.4089810000000  0.5107450000000 1.0
C      1  0.4544200000000  0.4169870000000  0.2503250000000 1.0
C      1  0.6580510000000  0.4348430000000  0.4020010000000 1.0
C      1  0.6709820000000  0.4136000000000  0.6399990000000 1.0
C      1  0.5778070000000  0.5937350000000  0.7004890000000 1.0
C      1  0.7469680000000  0.5980130000000  0.5089710000000 1.0
C      1  0.5536700000000  0.5833740000000  0.2523170000000 1.0
C      1  0.3444920000000  0.5650840000000  0.3922710000000 1.0
C      1  0.3230990000000  0.5829360000000  0.6442340000000 1.0
END
