TITL C-1525613-7943-3822 0.648399015014676 3375 -8266.29441563823 0 0 60 (C1) n - 1
REM
REM in /home/nfs/bkarasulu/CARBON/AIRSS/Generating-Clusters/ReaxFF-fromJPCA2015/Units_Real/Try2-Higher-symm/Only-C60
REM
REM
REM
REM
REM
REM ./C.cell (863b2abdce7293c0672fb3ba77bf323a)
REM AIRSS Version 0.9.1 bugfix July 2018 build 013d7b7c2542+ Fri, 06 Jul 2018 19:26:36 +0100
REM compiler GCC version 9.2.1 20190827 (Red Hat 9.2.1-1)
REM options -cpp -mtune=generic -march=x86-64 -g -O0 -fpre-include=/usr/include/finclude/math-vector-fortran.h
REM seed 687054016 -1476964960 -431614282 -1936574992 -2042187173 1646030316 -662132171 -334173995 2143899163 1477814713 -1149230093 -1273722555 -1779887878 -1878091575 1741672840 -967012622 -188400625 1146958335 265062587 1436689689 -311620096 842582095 -1474658037 -888083607 -1339528170 1655415538 -1805935370 -150862692 -1959454504 -1791475773 1038679157 -1463201747 1515823019
REM
CELL 1.54180   15.00000   15.00000   15.00000   90.00000   90.00000   90.00000
LATT -1
SFAC C  
C      1  0.6500630000000  0.5852230000000  0.5490800000000 1.0
C      1  0.4998080000000  0.5828260000000  0.6556890000000 1.0
C      1  0.3495960000000  0.5842730000000  0.5480210000000 1.0
C      1  0.4082490000000  0.5830980000000  0.3732400000000 1.0
C      1  0.5936280000000  0.5838740000000  0.3737070000000 1.0
C      1  0.6509280000000  0.5858240000000  0.4518650000000 1.0
C      1  0.5009510000000  0.5827230000000  0.3441080000000 1.0
C      1  0.3501480000000  0.5840690000000  0.4508980000000 1.0
C      1  0.4069870000000  0.5829680000000  0.6263500000000 1.0
C      1  0.5925570000000  0.5839650000000  0.6269480000000 1.0
C      1  0.3733720000000  0.4711830000000  0.7274960000000 1.0
C      1  0.2443400000000  0.4701590000000  0.4506660000000 1.0
C      1  0.4684000000000  0.4707110000000  0.2426750000000 1.0
C      1  0.7344760000000  0.4714390000000  0.3903380000000 1.0
C      1  0.6781540000000  0.4697820000000  0.6913040000000 1.0
C      1  0.3733230000000  0.4711050000000  0.2722730000000 1.0
C      1  0.2446130000000  0.4702570000000  0.5494390000000 1.0
C      1  0.4682050000000  0.4707730000000  0.7576450000000 1.0
C      1  0.7343500000000  0.4713970000000  0.6093970000000 1.0
C      1  0.6783330000000  0.4693690000000  0.3084640000000 1.0
C      1  0.5173340000000  0.4084970000000  0.7053680000000 1.0
C      1  0.3113100000000  0.4088110000000  0.5775270000000 1.0
C      1  0.3657840000000  0.4097520000000  0.3446340000000 1.0
C      1  0.6082120000000  0.4077550000000  0.3239320000000 1.0
C      1  0.6939700000000  0.4127830000000  0.5473920000000 1.0
C      1  0.5175960000000  0.4088100000000  0.2948600000000 1.0
C      1  0.3109850000000  0.4087370000000  0.4223430000000 1.0
C      1  0.3660990000000  0.4097630000000  0.6552490000000 1.0
C      1  0.6080540000000  0.4078010000000  0.6760680000000 1.0
C      1  0.6936240000000  0.4131940000000  0.4523960000000 1.0
C      1  0.6494280000000  0.6824880000000  0.4508540000000 1.0
C      1  0.5937120000000  0.6813860000000  0.6287080000000 1.0
C      1  0.4069840000000  0.6803050000000  0.6291150000000 1.0
C      1  0.3496000000000  0.6813220000000  0.4515230000000 1.0
C      1  0.4994070000000  0.6801990000000  0.3400950000000 1.0
C      1  0.6503750000000  0.6824450000000  0.5486740000000 1.0
C      1  0.5927210000000  0.6812640000000  0.3708780000000 1.0
C      1  0.4062060000000  0.6805650000000  0.3713360000000 1.0
C      1  0.3495790000000  0.6809990000000  0.5495870000000 1.0
C      1  0.5003910000000  0.6800890000000  0.6594560000000 1.0
C      1  0.6458040000000  0.3293680000000  0.5487160000000 1.0
C      1  0.5006560000000  0.3267760000000  0.6538530000000 1.0
C      1  0.3541260000000  0.3301020000000  0.5457750000000 1.0
C      1  0.4105990000000  0.3283040000000  0.3758820000000 1.0
C      1  0.5929920000000  0.3278550000000  0.3754340000000 1.0
C      1  0.6457180000000  0.3286800000000  0.4516590000000 1.0
C      1  0.5003650000000  0.3270280000000  0.3459030000000 1.0
C      1  0.3539950000000  0.3301030000000  0.4541750000000 1.0
C      1  0.4106770000000  0.3281110000000  0.6240170000000 1.0
C      1  0.5929060000000  0.3290330000000  0.6242160000000 1.0
C      1  0.2928450000000  0.5270690000000  0.2894510000000 1.0
C      1  0.6371660000000  0.5259670000000  0.2378470000000 1.0
C      1  0.7932990000000  0.5248190000000  0.5493740000000 1.0
C      1  0.5427630000000  0.5269550000000  0.7924880000000 1.0
C      1  0.2340820000000  0.5264920000000  0.6311750000000 1.0
C      1  0.2927080000000  0.5270900000000  0.7108100000000 1.0
C      1  0.6369730000000  0.5260440000000  0.7622360000000 1.0
C      1  0.7934090000000  0.5249130000000  0.4505940000000 1.0
C      1  0.5429640000000  0.5268480000000  0.2077090000000 1.0
C      1  0.2341060000000  0.5264580000000  0.3690910000000 1.0
END
