TITL C-1525613-7943-7155 0.0101777310229504 3375 -8661.56988326674 0 0 60 (C1) n - 1
REM
REM in /home/nfs/bkarasulu/CARBON/AIRSS/Generating-Clusters/ReaxFF-fromJPCA2015/Units_Real/Try2-Higher-symm/Only-C60
REM
REM
REM
REM
REM
REM ./C.cell (863b2abdce7293c0672fb3ba77bf323a)
REM AIRSS Version 0.9.1 bugfix July 2018 build 013d7b7c2542+ Fri, 06 Jul 2018 19:26:36 +0100
REM compiler GCC version 9.2.1 20190827 (Red Hat 9.2.1-1)
REM options -cpp -mtune=generic -march=x86-64 -g -O0 -fpre-include=/usr/include/finclude/math-vector-fortran.h
REM seed 1577356658 -2031441875 -1878719306 -1059987812 536294274 -1777356672 -1740330277 -1150155576 -780127939 -698809986 796466821 -1192524401 1465874110 2100243753 -1104146417 1155998010 -1549596335 -278064881 -1450561441 -1336273577 -148838127 -1679291113 -1707133123 729069473 1693403037 1931766480 562896736 -1172960585 1491915304 379351056 1261623311 1361817041 326212816
REM
CELL 1.54180   15.00000   15.00000   15.00000   90.00000   90.00000   90.00000
LATT -1
SFAC C  
C      1  0.3485130000000  0.4922300000000  0.3257710000000 1.0
C      1  0.4599850000000  0.5282570000000  0.2050760000000 1.0
C      1  0.5975450000000  0.4807720000000  0.2875190000000 1.0
C      1  0.7043150000000  0.5081890000000  0.4065250000000 1.0
C      1  0.7876070000000  0.4794740000000  0.5523680000000 1.0
C      1  0.6627400000000  0.5103780000000  0.6626980000000 1.0
C      1  0.5408020000000  0.4828660000000  0.7828240000000 1.0
C      1  0.3960270000000  0.5061980000000  0.6975030000000 1.0
C      1  0.2418820000000  0.4733860000000  0.6234740000000 1.0
C      1  0.2732310000000  0.5180460000000  0.4675910000000 1.0
C      1  0.4954810000000  0.3964020000000  0.7850010000000 1.0
C      1  0.3499510000000  0.5900550000000  0.6985480000000 1.0
C      1  0.2331320000000  0.3907350000000  0.5720690000000 1.0
C      1  0.2558140000000  0.6016330000000  0.4221750000000 1.0
C      1  0.3517180000000  0.4097620000000  0.2762660000000 1.0
C      1  0.5083550000000  0.6112650000000  0.2214900000000 1.0
C      1  0.6507280000000  0.3994920000000  0.2833760000000 1.0
C      1  0.7453290000000  0.5928800000000  0.4268590000000 1.0
C      1  0.7688820000000  0.3937890000000  0.5956860000000 1.0
C      1  0.6491060000000  0.5954280000000  0.7047070000000 1.0
C      1  0.4455520000000  0.2193270000000  0.4406130000000 1.0
C      1  0.4737480000000  0.7949020000000  0.4143450000000 1.0
C      1  0.5473480000000  0.2150560000000  0.4402950000000 1.0
C      1  0.5688140000000  0.7921620000000  0.4484020000000 1.0
C      1  0.5805170000000  0.2158440000000  0.5334600000000 1.0
C      1  0.5650670000000  0.7951680000000  0.5494510000000 1.0
C      1  0.5022150000000  0.2122090000000  0.5946930000000 1.0
C      1  0.4680650000000  0.7969570000000  0.5774480000000 1.0
C      1  0.4213860000000  0.2082790000000  0.5355700000000 1.0
C      1  0.4117990000000  0.7994260000000  0.4940990000000 1.0
C      1  0.7736100000000  0.5090740000000  0.4650780000000 1.0
C      1  0.7447500000000  0.4789460000000  0.6353480000000 1.0
C      1  0.6198150000000  0.5121720000000  0.7430760000000 1.0
C      1  0.4488420000000  0.4795890000000  0.7678400000000 1.0
C      1  0.3058690000000  0.5055150000000  0.6833550000000 1.0
C      1  0.2233820000000  0.4783320000000  0.5327070000000 1.0
C      1  0.2754000000000  0.5179400000000  0.3753700000000 1.0
C      1  0.3808050000000  0.4952470000000  0.2414660000000 1.0
C      1  0.5514280000000  0.5247740000000  0.2219200000000 1.0
C      1  0.6836470000000  0.4841440000000  0.3200800000000 1.0
C      1  0.6866410000000  0.6622720000000  0.4388970000000 1.0
C      1  0.7067140000000  0.3302400000000  0.5739090000000 1.0
C      1  0.6149360000000  0.6651590000000  0.6557700000000 1.0
C      1  0.4986170000000  0.3291100000000  0.7233880000000 1.0
C      1  0.3851150000000  0.6619590000000  0.6535370000000 1.0
C      1  0.2969830000000  0.3275760000000  0.5536560000000 1.0
C      1  0.3102030000000  0.6724760000000  0.4436070000000 1.0
C      1  0.3816000000000  0.3398400000000  0.3274710000000 1.0
C      1  0.4979180000000  0.6740980000000  0.2878430000000 1.0
C      1  0.6220860000000  0.3269660000000  0.3319070000000 1.0
C      1  0.5889940000000  0.2702660000000  0.3821050000000 1.0
C      1  0.6320810000000  0.7252530000000  0.4474980000000 1.0
C      1  0.6475560000000  0.2747070000000  0.5541910000000 1.0
C      1  0.5864670000000  0.7285980000000  0.6091440000000 1.0
C      1  0.5006280000000  0.2717320000000  0.6632030000000 1.0
C      1  0.4195290000000  0.7275400000000  0.6142950000000 1.0
C      1  0.3556240000000  0.2695690000000  0.5367450000000 1.0
C      1  0.3565100000000  0.7327490000000  0.4619290000000 1.0
C      1  0.4102910000000  0.2816060000000  0.3797910000000 1.0
C      1  0.4883030000000  0.7319850000000  0.3489730000000 1.0
END
