TITL C-1525613-7943-4017 -0.0195581932232532 3375 -9024.89892106168 0 0 60 (Ci) n - 1
REM
REM in /home/nfs/bkarasulu/CARBON/AIRSS/Generating-Clusters/ReaxFF-fromJPCA2015/Units_Real/Try2-Higher-symm/Only-C60
REM
REM
REM
REM
REM
REM ./C.cell (863b2abdce7293c0672fb3ba77bf323a)
REM AIRSS Version 0.9.1 bugfix July 2018 build 013d7b7c2542+ Fri, 06 Jul 2018 19:26:36 +0100
REM compiler GCC version 9.2.1 20190827 (Red Hat 9.2.1-1)
REM options -cpp -mtune=generic -march=x86-64 -g -O0 -fpre-include=/usr/include/finclude/math-vector-fortran.h
REM seed 1226906041 -491438410 838958607 -425330595 1814618630 574979832 -1911598886 -1706251996 358296788 752921303 969489008 -579500439 530128825 1593686083 1774094791 -897237475 -1679428861 -444227600 1363851461 -1383033265 490208900 1016370392 1421890274 1958567451 1096888639 -671282625 -978233421 -103135947 1142982 -721213286 -1051557980 -2104970308 -1219910589
REM
CELL 1.54180   15.00000   15.00000   15.00000   90.00000   90.00000   90.00000
LATT -1
SFAC C  
C      1  0.7001070000000  0.5417490000000  0.5740190000000 1.0
C      1  0.6179070000000  0.4533690000000  0.6806950000000 1.0
C      1  0.4934800000000  0.5451160000000  0.7155700000000 1.0
C      1  0.3664640000000  0.4575250000000  0.6714810000000 1.0
C      1  0.2933620000000  0.5454760000000  0.5612870000000 1.0
C      1  0.2996740000000  0.4582560000000  0.4258970000000 1.0
C      1  0.3820650000000  0.5464630000000  0.3193570000000 1.0
C      1  0.5061540000000  0.4548050000000  0.2841460000000 1.0
C      1  0.6337260000000  0.5426920000000  0.3283400000000 1.0
C      1  0.7064130000000  0.4547210000000  0.4383610000000 1.0
C      1  0.4144910000000  0.2519650000000  0.4898120000000 1.0
C      1  0.4373900000000  0.7440020000000  0.4462210000000 1.0
C      1  0.4831480000000  0.2577220000000  0.4153660000000 1.0
C      1  0.5356640000000  0.7355930000000  0.4257270000000 1.0
C      1  0.5711910000000  0.2580970000000  0.4536570000000 1.0
C      1  0.5855660000000  0.7480320000000  0.5099510000000 1.0
C      1  0.5626860000000  0.2561160000000  0.5535320000000 1.0
C      1  0.5171580000000  0.7421670000000  0.5847170000000 1.0
C      1  0.4644270000000  0.2641670000000  0.5741680000000 1.0
C      1  0.4287880000000  0.7422270000000  0.5463180000000 1.0
C      1  0.6923960000000  0.5446120000000  0.4082040000000 1.0
C      1  0.7082650000000  0.4547930000000  0.5404010000000 1.0
C      1  0.6462660000000  0.5419420000000  0.6586360000000 1.0
C      1  0.5248720000000  0.4538670000000  0.7145150000000 1.0
C      1  0.3959050000000  0.5478020000000  0.6876060000000 1.0
C      1  0.3073440000000  0.4554670000000  0.5916880000000 1.0
C      1  0.2916630000000  0.5451800000000  0.4597680000000 1.0
C      1  0.3537700000000  0.4579270000000  0.3415180000000 1.0
C      1  0.4750550000000  0.5460080000000  0.2854440000000 1.0
C      1  0.6046260000000  0.4521430000000  0.3122830000000 1.0
C      1  0.3366490000000  0.6032490000000  0.6308080000000 1.0
C      1  0.3020740000000  0.3976940000000  0.5084090000000 1.0
C      1  0.3332200000000  0.6039500000000  0.3869190000000 1.0
C      1  0.4256280000000  0.3998150000000  0.3032980000000 1.0
C      1  0.5573130000000  0.6013420000000  0.3008100000000 1.0
C      1  0.6630590000000  0.3977480000000  0.3695020000000 1.0
C      1  0.6979590000000  0.6022180000000  0.4913990000000 1.0
C      1  0.6669350000000  0.3960450000000  0.6131980000000 1.0
C      1  0.5744830000000  0.6001630000000  0.6969760000000 1.0
C      1  0.4426830000000  0.3986440000000  0.6993730000000 1.0
C      1  0.4626740000000  0.4322800000000  0.5653570000000 1.0
C      1  0.4269730000000  0.6005230000000  0.5298110000000 1.0
C      1  0.4343410000000  0.4532180000000  0.4739080000000 1.0
C      1  0.4432280000000  0.5451760000000  0.4542430000000 1.0
C      1  0.4954050000000  0.4023830000000  0.4199410000000 1.0
C      1  0.5371510000000  0.5683910000000  0.4346560000000 1.0
C      1  0.5712640000000  0.3972020000000  0.4716930000000 1.0
C      1  0.5657720000000  0.5469070000000  0.5258650000000 1.0
C      1  0.5569890000000  0.4548600000000  0.5450660000000 1.0
C      1  0.5051900000000  0.5974050000000  0.5798590000000 1.0
C      1  0.4757620000000  0.3319190000000  0.3518620000000 1.0
C      1  0.5600130000000  0.6513640000000  0.3841150000000 1.0
C      1  0.6360390000000  0.3315130000000  0.4350580000000 1.0
C      1  0.6460070000000  0.6783280000000  0.5000180000000 1.0
C      1  0.6190420000000  0.3214730000000  0.5888480000000 1.0
C      1  0.5246140000000  0.6677320000000  0.6480360000000 1.0
C      1  0.4401160000000  0.3488230000000  0.6159870000000 1.0
C      1  0.3641120000000  0.6696690000000  0.5649300000000 1.0
C      1  0.3541770000000  0.3216660000000  0.5000390000000 1.0
C      1  0.3811080000000  0.6782990000000  0.4113300000000 1.0
END
