TITL C-1525613-7943-6959 0.363298510396818 3375 -8358.66754242866 0 0 60 (C1) n - 1
REM
REM in /home/nfs/bkarasulu/CARBON/AIRSS/Generating-Clusters/ReaxFF-fromJPCA2015/Units_Real/Try2-Higher-symm/Only-C60
REM
REM
REM
REM
REM
REM ./C.cell (863b2abdce7293c0672fb3ba77bf323a)
REM AIRSS Version 0.9.1 bugfix July 2018 build 013d7b7c2542+ Fri, 06 Jul 2018 19:26:36 +0100
REM compiler GCC version 9.2.1 20190827 (Red Hat 9.2.1-1)
REM options -cpp -mtune=generic -march=x86-64 -g -O0 -fpre-include=/usr/include/finclude/math-vector-fortran.h
REM seed -1724392476 -1333726607 -784745976 2114997876 1053606539 1186982974 -1060278843 331978852 -1666786933 1544329922 -1783363159 235754064 -733317503 303151669 884180898 -1103668578 -1038870120 -725039656 -990927714 -1310542984 2125487085 -2019877132 -82136613 -91346204 1929110745 -436466141 -1415487375 609177135 -675661653 -410842409 1931013147 338343611 1300546435
REM
CELL 1.54180   15.00000   15.00000   15.00000   90.00000   90.00000   90.00000
LATT -1
SFAC C  
C      1  0.5970420000000  0.5256480000000  0.5594800000000 1.0
C      1  0.6134320000000  0.4752570000000  0.4924610000000 1.0
C      1  0.5888610000000  0.5241260000000  0.4260510000000 1.0
C      1  0.5246970000000  0.4728560000000  0.3917540000000 1.0
C      1  0.4561670000000  0.5274070000000  0.4013880000000 1.0
C      1  0.3949070000000  0.4806950000000  0.4410400000000 1.0
C      1  0.3555180000000  0.5306940000000  0.5090490000000 1.0
C      1  0.4040750000000  0.4801350000000  0.5734150000000 1.0
C      1  0.4709360000000  0.5280720000000  0.6034670000000 1.0
C      1  0.5405840000000  0.4739410000000  0.6043290000000 1.0
C      1  0.3698860000000  0.6593500000000  0.4122160000000 1.0
C      1  0.3422590000000  0.3511820000000  0.5081760000000 1.0
C      1  0.3780270000000  0.6579130000000  0.6008070000000 1.0
C      1  0.4573440000000  0.3516480000000  0.6560710000000 1.0
C      1  0.5599710000000  0.6477730000000  0.6510520000000 1.0
C      1  0.6337160000000  0.3501160000000  0.5905940000000 1.0
C      1  0.6620380000000  0.6484140000000  0.4916530000000 1.0
C      1  0.6254210000000  0.3509860000000  0.3976460000000 1.0
C      1  0.5437020000000  0.6474260000000  0.3425810000000 1.0
C      1  0.4425910000000  0.3520240000000  0.3509900000000 1.0
C      1  0.4457740000000  0.6132440000000  0.3506720000000 1.0
C      1  0.3690300000000  0.3886870000000  0.4150030000000 1.0
C      1  0.3738190000000  0.6365810000000  0.5064030000000 1.0
C      1  0.3780860000000  0.3880040000000  0.5994020000000 1.0
C      1  0.4610850000000  0.6141180000000  0.6533570000000 1.0
C      1  0.5556490000000  0.3848440000000  0.6490390000000 1.0
C      1  0.6346620000000  0.6152290000000  0.5863360000000 1.0
C      1  0.6536800000000  0.3843010000000  0.4936420000000 1.0
C      1  0.6247550000000  0.6149860000000  0.3995470000000 1.0
C      1  0.5416080000000  0.3836580000000  0.3471280000000 1.0
C      1  0.7527310000000  0.6192140000000  0.4997370000000 1.0
C      1  0.7008620000000  0.3928490000000  0.3642000000000 1.0
C      1  0.5778360000000  0.6217320000000  0.2568070000000 1.0
C      1  0.4216420000000  0.3792750000000  0.2612880000000 1.0
C      1  0.2991960000000  0.6210490000000  0.3577270000000 1.0
C      1  0.2480360000000  0.3680490000000  0.4977990000000 1.0
C      1  0.3033170000000  0.6056350000000  0.6214180000000 1.0
C      1  0.4235040000000  0.3783540000000  0.7416330000000 1.0
C      1  0.5805460000000  0.6213950000000  0.7410320000000 1.0
C      1  0.7044980000000  0.3777120000000  0.6493450000000 1.0
C      1  0.6797220000000  0.4721980000000  0.6868130000000 1.0
C      1  0.7549790000000  0.5236950000000  0.5437900000000 1.0
C      1  0.7415750000000  0.4767900000000  0.3842400000000 1.0
C      1  0.6224910000000  0.5274910000000  0.2711280000000 1.0
C      1  0.4642170000000  0.4733930000000  0.2447770000000 1.0
C      1  0.3196750000000  0.5297780000000  0.3153030000000 1.0
C      1  0.2369560000000  0.4597330000000  0.4496670000000 1.0
C      1  0.2590630000000  0.5208960000000  0.6195640000000 1.0
C      1  0.3787560000000  0.4729850000000  0.7313360000000 1.0
C      1  0.5355950000000  0.5280400000000  0.7561720000000 1.0
C      1  0.5574830000000  0.4548710000000  0.2652770000000 1.0
C      1  0.4085430000000  0.5447910000000  0.2781550000000 1.0
C      1  0.2890810000000  0.4524180000000  0.3681370000000 1.0
C      1  0.2565200000000  0.5227070000000  0.5202730000000 1.0
C      1  0.3126100000000  0.4507670000000  0.6644350000000 1.0
C      1  0.4437560000000  0.5450680000000  0.7329670000000 1.0
C      1  0.5918070000000  0.4553540000000  0.7244400000000 1.0
C      1  0.7076330000000  0.5434820000000  0.6269330000000 1.0
C      1  0.7419970000000  0.4531690000000  0.4796250000000 1.0
C      1  0.6860510000000  0.5477920000000  0.3412320000000 1.0
END
