TITL C-1525613-7943-1563 0.00174986076580261 3375 -8755.61894882965 0 0 60 (Cs) n - 1
REM
REM in /home/nfs/bkarasulu/CARBON/AIRSS/Generating-Clusters/ReaxFF-fromJPCA2015/Units_Real/Try2-Higher-symm/Only-C60
REM
REM
REM
REM
REM
REM ./C.cell (863b2abdce7293c0672fb3ba77bf323a)
REM AIRSS Version 0.9.1 bugfix July 2018 build 013d7b7c2542+ Fri, 06 Jul 2018 19:26:36 +0100
REM compiler GCC version 9.2.1 20190827 (Red Hat 9.2.1-1)
REM options -cpp -mtune=generic -march=x86-64 -g -O0 -fpre-include=/usr/include/finclude/math-vector-fortran.h
REM seed 349976137 -874210999 -284730872 -1616760797 1031949579 1860199134 1985993837 -362937459 -1492466970 -2022091161 -2125341930 -335065829 -1431917445 70843723 985875420 1046061840 1084345531 1020336476 170258031 -895598711 2046327875 1673026226 -630508643 -695310844 13889262 -1088770266 -358080421 -1460658073 -1224844536 645675906 1739029493 662638065 -1076723632
REM
CELL 1.54180   15.00000   15.00000   15.00000   90.00000   90.00000   90.00000
LATT -1
SFAC C  
C      1  0.3262470000000  0.4944750000000  0.3109500000000 1.0
C      1  0.4487830000000  0.3344890000000  0.3109160000000 1.0
C      1  0.6418820000000  0.4019330000000  0.3056720000000 1.0
C      1  0.6326150000000  0.6045370000000  0.3075420000000 1.0
C      1  0.4412920000000  0.6621860000000  0.3083780000000 1.0
C      1  0.3265110000000  0.4947940000000  0.6891490000000 1.0
C      1  0.4484960000000  0.3349690000000  0.6885550000000 1.0
C      1  0.6417390000000  0.4019120000000  0.6943910000000 1.0
C      1  0.6327260000000  0.6045690000000  0.6925800000000 1.0
C      1  0.4414640000000  0.6624170000000  0.6918020000000 1.0
C      1  0.4366810000000  0.5448280000000  0.4274330000000 1.0
C      1  0.4412760000000  0.4522280000000  0.4437810000000 1.0
C      1  0.5301610000000  0.4251100000000  0.4270310000000 1.0
C      1  0.5848170000000  0.4998100000000  0.4482820000000 1.0
C      1  0.5222340000000  0.5797320000000  0.4482010000000 1.0
C      1  0.4366080000000  0.5448120000000  0.5728010000000 1.0
C      1  0.4409170000000  0.4518700000000  0.5561040000000 1.0
C      1  0.5302060000000  0.4250250000000  0.5729650000000 1.0
C      1  0.5847560000000  0.4997750000000  0.5519410000000 1.0
C      1  0.5222120000000  0.5796620000000  0.5521590000000 1.0
C      1  0.3971310000000  0.3173080000000  0.3842640000000 1.0
C      1  0.6452010000000  0.3447010000000  0.3838420000000 1.0
C      1  0.6896780000000  0.5890830000000  0.3817220000000 1.0
C      1  0.4760410000000  0.7081580000000  0.3795110000000 1.0
C      1  0.2938320000000  0.5406760000000  0.3847810000000 1.0
C      1  0.3969520000000  0.3192160000000  0.6141940000000 1.0
C      1  0.6450930000000  0.3447530000000  0.6162110000000 1.0
C      1  0.6897480000000  0.5890480000000  0.6183680000000 1.0
C      1  0.4762300000000  0.7083110000000  0.6206330000000 1.0
C      1  0.2941770000000  0.5407900000000  0.6155290000000 1.0
C      1  0.6303070000000  0.6616650000000  0.6212590000000 1.0
C      1  0.3877420000000  0.6792690000000  0.6160260000000 1.0
C      1  0.2983050000000  0.4455120000000  0.6146450000000 1.0
C      1  0.4851290000000  0.2890510000000  0.6142250000000 1.0
C      1  0.6986320000000  0.4244370000000  0.6174020000000 1.0
C      1  0.6301630000000  0.6616550000000  0.3788470000000 1.0
C      1  0.3875270000000  0.6791270000000  0.3841270000000 1.0
C      1  0.2974740000000  0.4458930000000  0.3847620000000 1.0
C      1  0.4855110000000  0.2885890000000  0.3851040000000 1.0
C      1  0.6986830000000  0.4244650000000  0.3826990000000 1.0
C      1  0.5591660000000  0.3324190000000  0.4378840000000 1.0
C      1  0.6834270000000  0.5070610000000  0.4368590000000 1.0
C      1  0.5499100000000  0.6737970000000  0.4312310000000 1.0
C      1  0.3560420000000  0.5993880000000  0.4368620000000 1.0
C      1  0.3594470000000  0.3890850000000  0.4376900000000 1.0
C      1  0.5591350000000  0.3323590000000  0.5618280000000 1.0
C      1  0.6833840000000  0.5070420000000  0.5632440000000 1.0
C      1  0.5500150000000  0.6737750000000  0.5689180000000 1.0
C      1  0.3561520000000  0.5995310000000  0.5633030000000 1.0
C      1  0.3614280000000  0.3904650000000  0.5624990000000 1.0
C      1  0.4154150000000  0.4969950000000  0.2756850000000 1.0
C      1  0.4736750000000  0.4209330000000  0.2753260000000 1.0
C      1  0.5638090000000  0.4532020000000  0.2727590000000 1.0
C      1  0.5610190000000  0.5491550000000  0.2740730000000 1.0
C      1  0.4694750000000  0.5763330000000  0.2745350000000 1.0
C      1  0.4153240000000  0.4972900000000  0.7245960000000 1.0
C      1  0.4736120000000  0.4211730000000  0.7248550000000 1.0
C      1  0.5637380000000  0.4533000000000  0.7273300000000 1.0
C      1  0.5610600000000  0.5492710000000  0.7260700000000 1.0
C      1  0.4695920000000  0.5765850000000  0.7256680000000 1.0
END
