TITL C-1525613-7943-3198 1.03921298220446 3375 -7921.7961584738 0 0 60 (C1) n - 1
REM
REM in /home/nfs/bkarasulu/CARBON/AIRSS/Generating-Clusters/ReaxFF-fromJPCA2015/Units_Real/Try2-Higher-symm/Only-C60
REM
REM
REM
REM
REM
REM ./C.cell (863b2abdce7293c0672fb3ba77bf323a)
REM AIRSS Version 0.9.1 bugfix July 2018 build 013d7b7c2542+ Fri, 06 Jul 2018 19:26:36 +0100
REM compiler GCC version 9.2.1 20190827 (Red Hat 9.2.1-1)
REM options -cpp -mtune=generic -march=x86-64 -g -O0 -fpre-include=/usr/include/finclude/math-vector-fortran.h
REM seed -2074272443 2106141088 1867106436 -758134326 -1659485869 -1794635869 1525246871 -138877145 931947371 288494213 1869697929 -225048956 -154481780 297775918 2098335833 -1343511882 -1771883028 1016686323 641805049 1119483398 -245652186 1830938380 816506615 -2138175474 211492515 -1483523303 -1685708643 -373415321 474949604 -477436316 1642425869 -1230498883 -1479046912
REM
CELL 1.54180   15.00000   15.00000   15.00000   90.00000   90.00000   90.00000
LATT -1
SFAC C  
C      1  0.5248920000000  0.7878630000000  0.5414960000000 1.0
C      1  0.5251410000000  0.6290180000000  0.2389620000000 1.0
C      1  0.5252230000000  0.2905230000000  0.2964550000000 1.0
C      1  0.5268450000000  0.2361470000000  0.6352990000000 1.0
C      1  0.5250760000000  0.5503320000000  0.7864200000000 1.0
C      1  0.5249010000000  0.2115020000000  0.5416620000000 1.0
C      1  0.5254300000000  0.3711820000000  0.2392440000000 1.0
C      1  0.5251460000000  0.7093750000000  0.2965410000000 1.0
C      1  0.5258600000000  0.7605790000000  0.6357400000000 1.0
C      1  0.5251250000000  0.4502320000000  0.7866360000000 1.0
C      1  0.3124360000000  0.6252260000000  0.5918170000000 1.0
C      1  0.3117870000000  0.6260590000000  0.4095790000000 1.0
C      1  0.3115530000000  0.4532570000000  0.3519130000000 1.0
C      1  0.3115980000000  0.3445410000000  0.4994810000000 1.0
C      1  0.3121190000000  0.4519550000000  0.6479830000000 1.0
C      1  0.3127400000000  0.3746450000000  0.5926030000000 1.0
C      1  0.3125600000000  0.3743270000000  0.4089300000000 1.0
C      1  0.3122940000000  0.5474710000000  0.3521420000000 1.0
C      1  0.3116240000000  0.6554640000000  0.4995770000000 1.0
C      1  0.3113830000000  0.5490620000000  0.6475640000000 1.0
C      1  0.5926360000000  0.3738450000000  0.4064190000000 1.0
C      1  0.5795300000000  0.3664780000000  0.5978190000000 1.0
C      1  0.5929080000000  0.5494270000000  0.6511250000000 1.0
C      1  0.5922010000000  0.6565890000000  0.5007420000000 1.0
C      1  0.5929750000000  0.5487850000000  0.3519340000000 1.0
C      1  0.5917500000000  0.6281030000000  0.4080340000000 1.0
C      1  0.5917570000000  0.6309290000000  0.5952550000000 1.0
C      1  0.5941480000000  0.4496340000000  0.6510680000000 1.0
C      1  0.5932030000000  0.3433700000000  0.4998530000000 1.0
C      1  0.5903280000000  0.4535010000000  0.3495530000000 1.0
C      1  0.4071670000000  0.3198960000000  0.5120410000000 1.0
C      1  0.4073540000000  0.4556530000000  0.6746900000000 1.0
C      1  0.4078440000000  0.6507840000000  0.5928650000000 1.0
C      1  0.4077050000000  0.6364320000000  0.3835320000000 1.0
C      1  0.4069820000000  0.4319870000000  0.3332930000000 1.0
C      1  0.4066350000000  0.6805700000000  0.5126310000000 1.0
C      1  0.4067680000000  0.5432970000000  0.6748400000000 1.0
C      1  0.4074100000000  0.3489800000000  0.5927890000000 1.0
C      1  0.4082020000000  0.3627390000000  0.3846670000000 1.0
C      1  0.4077070000000  0.5674590000000  0.3326320000000 1.0
C      1  0.6907710000000  0.6276580000000  0.4061500000000 1.0
C      1  0.6902960000000  0.4501480000000  0.3489670000000 1.0
C      1  0.6930270000000  0.3426700000000  0.5019370000000 1.0
C      1  0.6941030000000  0.4511290000000  0.6491280000000 1.0
C      1  0.6923510000000  0.6308800000000  0.5953360000000 1.0
C      1  0.6929720000000  0.3699770000000  0.4071030000000 1.0
C      1  0.6911480000000  0.5480730000000  0.3484760000000 1.0
C      1  0.6902020000000  0.6574710000000  0.4997710000000 1.0
C      1  0.6937510000000  0.5508510000000  0.6490760000000 1.0
C      1  0.6934110000000  0.3697530000000  0.5951720000000 1.0
C      1  0.4722350000000  0.2914890000000  0.3818740000000 1.0
C      1  0.4824350000000  0.3312080000000  0.6533260000000 1.0
C      1  0.4676930000000  0.6011160000000  0.7237400000000 1.0
C      1  0.4679810000000  0.7425320000000  0.4718480000000 1.0
C      1  0.4710600000000  0.5482500000000  0.2634580000000 1.0
C      1  0.4722170000000  0.7083340000000  0.3818520000000 1.0
C      1  0.4788240000000  0.6727890000000  0.6569440000000 1.0
C      1  0.4670210000000  0.3992470000000  0.7247450000000 1.0
C      1  0.4677290000000  0.2572410000000  0.4712170000000 1.0
C      1  0.4718290000000  0.4519680000000  0.2640540000000 1.0
END
