TITL C-1525613-7943-4768 -0.0335211015618261 3375 -8970.02613037504 0 0 60 (S10) n - 1
REM
REM in /home/nfs/bkarasulu/CARBON/AIRSS/Generating-Clusters/ReaxFF-fromJPCA2015/Units_Real/Try2-Higher-symm/Only-C60
REM
REM
REM
REM
REM
REM ./C.cell (863b2abdce7293c0672fb3ba77bf323a)
REM AIRSS Version 0.9.1 bugfix July 2018 build 013d7b7c2542+ Fri, 06 Jul 2018 19:26:36 +0100
REM compiler GCC version 9.2.1 20190827 (Red Hat 9.2.1-1)
REM options -cpp -mtune=generic -march=x86-64 -g -O0 -fpre-include=/usr/include/finclude/math-vector-fortran.h
REM seed -2029397540 -1818271308 68712542 -125986887 1893039324 -561029751 1919940291 -1547571297 2036815337 1995192250 949402301 476638203 1277344342 1603668172 1462746597 -160912104 256680279 -843620530 250072936 2146167194 -2110459603 1662940044 1469991914 -1812334359 -2128720057 1438572207 1300933871 -794549075 1412617150 43236655 2091460020 1135646006 -1010162282
REM
CELL 1.54180   15.00000   15.00000   15.00000   90.00000   90.00000   90.00000
LATT -1
SFAC C  
C      1  0.5860270000000  0.4636440000000  0.2822390000000 1.0
C      1  0.4141760000000  0.5986690000000  0.3032920000000 1.0
C      1  0.5860480000000  0.6952350000000  0.3986550000000 1.0
C      1  0.4137180000000  0.7176680000000  0.5321170000000 1.0
C      1  0.5864670000000  0.6571970000000  0.6539900000000 1.0
C      1  0.4139730000000  0.5363560000000  0.7177610000000 1.0
C      1  0.5858240000000  0.4013310000000  0.6967080000000 1.0
C      1  0.4139520000000  0.3047650000000  0.6013450000000 1.0
C      1  0.5862820000000  0.2823320000000  0.4678830000000 1.0
C      1  0.4135330000000  0.3428030000000  0.3460100000000 1.0
C      1  0.4305370000000  0.4501760000000  0.5639910000000 1.0
C      1  0.5636810000000  0.4212350000000  0.5192350000000 1.0
C      1  0.4366380000000  0.4246410000000  0.4715700000000 1.0
C      1  0.5695970000000  0.4575300000000  0.4306540000000 1.0
C      1  0.4324480000000  0.5049550000000  0.4208790000000 1.0
C      1  0.5694630000000  0.5498240000000  0.4360090000000 1.0
C      1  0.4363190000000  0.5787650000000  0.4807650000000 1.0
C      1  0.5633620000000  0.5753590000000  0.5284300000000 1.0
C      1  0.4304030000000  0.5424700000000  0.5693460000000 1.0
C      1  0.5675520000000  0.4950450000000  0.5791210000000 1.0
C      1  0.2922800000000  0.4482460000000  0.5627240000000 1.0
C      1  0.7059250000000  0.4208810000000  0.5205110000000 1.0
C      1  0.2942060000000  0.4240770000000  0.4699900000000 1.0
C      1  0.7076430000000  0.4562910000000  0.4314390000000 1.0
C      1  0.2932000000000  0.5050610000000  0.4187360000000 1.0
C      1  0.7077200000000  0.5517540000000  0.4372760000000 1.0
C      1  0.2940750000000  0.5791190000000  0.4794890000000 1.0
C      1  0.7057940000000  0.5759230000000  0.5300100000000 1.0
C      1  0.2923570000000  0.5437090000000  0.5685610000000 1.0
C      1  0.7068000000000  0.4949390000000  0.5812640000000 1.0
C      1  0.5937510000000  0.5607160000000  0.2882500000000 1.0
C      1  0.4059580000000  0.6737760000000  0.3653510000000 1.0
C      1  0.5940880000000  0.7195240000000  0.4932710000000 1.0
C      1  0.4063380000000  0.6819520000000  0.6230590000000 1.0
C      1  0.5937650000000  0.5750870000000  0.7063530000000 1.0
C      1  0.4062490000000  0.4392840000000  0.7117500000000 1.0
C      1  0.5940420000000  0.3262240000000  0.6346490000000 1.0
C      1  0.4059120000000  0.2804760000000  0.5067290000000 1.0
C      1  0.5936620000000  0.3180480000000  0.3769410000000 1.0
C      1  0.4062350000000  0.4249130000000  0.2936470000000 1.0
C      1  0.4969740000000  0.4217430000000  0.7198730000000 1.0
C      1  0.5032910000000  0.3065850000000  0.6308340000000 1.0
C      1  0.4968130000000  0.2658640000000  0.4934130000000 1.0
C      1  0.5031420000000  0.3154250000000  0.3574660000000 1.0
C      1  0.4967170000000  0.4342570000000  0.2756990000000 1.0
C      1  0.5030260000000  0.5782570000000  0.2801270000000 1.0
C      1  0.4967090000000  0.6934150000000  0.3691660000000 1.0
C      1  0.5031870000000  0.7341360000000  0.5065870000000 1.0
C      1  0.4968580000000  0.6845750000000  0.6425340000000 1.0
C      1  0.5032830000000  0.5657430000000  0.7243010000000 1.0
C      1  0.6319030000000  0.6472400000000  0.5578170000000 1.0
C      1  0.3665890000000  0.5855750000000  0.6341640000000 1.0
C      1  0.6315110000000  0.4905870000000  0.6567650000000 1.0
C      1  0.3668420000000  0.3994490000000  0.6230920000000 1.0
C      1  0.6321590000000  0.3465260000000  0.5398770000000 1.0
C      1  0.3680970000000  0.3527600000000  0.4421830000000 1.0
C      1  0.6334110000000  0.4144250000000  0.3658360000000 1.0
C      1  0.3684890000000  0.5094130000000  0.3432350000000 1.0
C      1  0.6331580000000  0.6005510000000  0.3769080000000 1.0
C      1  0.3678410000000  0.6534740000000  0.4601230000000 1.0
END
