TITL C-1525613-7943-2192 0.239961217247676 3375 -8606.16372804562 0 0 60 (C1) n - 1
REM
REM in /home/nfs/bkarasulu/CARBON/AIRSS/Generating-Clusters/ReaxFF-fromJPCA2015/Units_Real/Try2-Higher-symm/Only-C60
REM
REM
REM
REM
REM
REM ./C.cell (863b2abdce7293c0672fb3ba77bf323a)
REM AIRSS Version 0.9.1 bugfix July 2018 build 013d7b7c2542+ Fri, 06 Jul 2018 19:26:36 +0100
REM compiler GCC version 9.2.1 20190827 (Red Hat 9.2.1-1)
REM options -cpp -mtune=generic -march=x86-64 -g -O0 -fpre-include=/usr/include/finclude/math-vector-fortran.h
REM seed -2063540530 -1523214123 1321432089 -1928045614 688613987 -1183738799 -303031833 -1283523471 2126376975 -496236099 -1667725227 1502638766 243649027 1091313771 1674515821 731258859 505060222 1196060170 -1299533134 -2034384271 140295455 -604150540 -1528422532 -1029700629 -1638246798 -2090615737 1728231102 -217898467 41181467 1161976331 688643602 -396975161 -1952751517
REM
CELL 1.54180   15.00000   15.00000   15.00000   90.00000   90.00000   90.00000
LATT -1
SFAC C  
C      1  0.5739030000000  0.5417470000000  0.4302200000000 1.0
C      1  0.4384040000000  0.5724390000000  0.4556410000000 1.0
C      1  0.5793230000000  0.5677460000000  0.5202320000000 1.0
C      1  0.4346120000000  0.5497860000000  0.5481330000000 1.0
C      1  0.5690830000000  0.5154170000000  0.5919770000000 1.0
C      1  0.4210430000000  0.4547940000000  0.5646890000000 1.0
C      1  0.5627760000000  0.4293550000000  0.5430990000000 1.0
C      1  0.4218310000000  0.4173540000000  0.4745370000000 1.0
C      1  0.5652030000000  0.4493970000000  0.4488540000000 1.0
C      1  0.4306370000000  0.4850410000000  0.4110940000000 1.0
C      1  0.6873220000000  0.4541400000000  0.3423830000000 1.0
C      1  0.3105140000000  0.5483880000000  0.3464260000000 1.0
C      1  0.7035790000000  0.6274480000000  0.4054360000000 1.0
C      1  0.3011590000000  0.6511210000000  0.5005300000000 1.0
C      1  0.6997970000000  0.6237940000000  0.5864410000000 1.0
C      1  0.3110780000000  0.5476000000000  0.6576530000000 1.0
C      1  0.6892810000000  0.4526750000000  0.6548960000000 1.0
C      1  0.2938250000000  0.3753360000000  0.5945690000000 1.0
C      1  0.7014850000000  0.3503680000000  0.4995280000000 1.0
C      1  0.2976940000000  0.3766350000000  0.4141320000000 1.0
C      1  0.5479320000000  0.3318170000000  0.5654480000000 1.0
C      1  0.4042510000000  0.2504240000000  0.4994210000000 1.0
C      1  0.5559220000000  0.3817450000000  0.3716370000000 1.0
C      1  0.4315330000000  0.4606860000000  0.3123160000000 1.0
C      1  0.5608960000000  0.5952980000000  0.3440870000000 1.0
C      1  0.4539930000000  0.6680300000000  0.4314820000000 1.0
C      1  0.5963790000000  0.7464330000000  0.5061850000000 1.0
C      1  0.4454390000000  0.6133520000000  0.6247290000000 1.0
C      1  0.5690450000000  0.5417710000000  0.6926710000000 1.0
C      1  0.4400090000000  0.4088100000000  0.6533210000000 1.0
C      1  0.7149150000000  0.5358450000000  0.3835070000000 1.0
C      1  0.2960200000000  0.5950160000000  0.4257070000000 1.0
C      1  0.7233500000000  0.6105680000000  0.4975880000000 1.0
C      1  0.2940650000000  0.5951230000000  0.5769780000000 1.0
C      1  0.7143600000000  0.5348320000000  0.6123430000000 1.0
C      1  0.2807650000000  0.4660670000000  0.6176300000000 1.0
C      1  0.7060230000000  0.4029810000000  0.5774330000000 1.0
C      1  0.2752140000000  0.3920590000000  0.5023430000000 1.0
C      1  0.7057950000000  0.4052470000000  0.4218090000000 1.0
C      1  0.2831210000000  0.4646370000000  0.3859410000000 1.0
C      1  0.3839480000000  0.3353440000000  0.6293890000000 1.0
C      1  0.6163630000000  0.2879270000000  0.5139390000000 1.0
C      1  0.3997050000000  0.3268670000000  0.4299200000000 1.0
C      1  0.5945360000000  0.4310740000000  0.2981080000000 1.0
C      1  0.3984020000000  0.5473170000000  0.2873180000000 1.0
C      1  0.6152720000000  0.6695100000000  0.3698370000000 1.0
C      1  0.3870820000000  0.7122480000000  0.4854190000000 1.0
C      1  0.6017690000000  0.6755420000000  0.5756450000000 1.0
C      1  0.4047460000000  0.5690600000000  0.7004310000000 1.0
C      1  0.6015370000000  0.4546560000000  0.7156280000000 1.0
C      1  0.5474190000000  0.7117960000000  0.4242770000000 1.0
C      1  0.4480560000000  0.7318440000000  0.5539590000000 1.0
C      1  0.5083350000000  0.6914350000000  0.6146070000000 1.0
C      1  0.4810560000000  0.5226440000000  0.7365650000000 1.0
C      1  0.5067210000000  0.4256020000000  0.7250130000000 1.0
C      1  0.4527520000000  0.2881070000000  0.5756630000000 1.0
C      1  0.5554600000000  0.2656140000000  0.4455890000000 1.0
C      1  0.4938370000000  0.3061640000000  0.3867230000000 1.0
C      1  0.5185430000000  0.4794460000000  0.2645610000000 1.0
C      1  0.4928840000000  0.5764800000000  0.2743600000000 1.0
END
