TITL C-1525613-7943-5081 -0.0836449449562981 3375 -8270.23007559064 0 0 60 (C10) n - 1
REM
REM in /home/nfs/bkarasulu/CARBON/AIRSS/Generating-Clusters/ReaxFF-fromJPCA2015/Units_Real/Try2-Higher-symm/Only-C60
REM
REM
REM
REM
REM
REM ./C.cell (863b2abdce7293c0672fb3ba77bf323a)
REM AIRSS Version 0.9.1 bugfix July 2018 build 013d7b7c2542+ Fri, 06 Jul 2018 19:26:36 +0100
REM compiler GCC version 9.2.1 20190827 (Red Hat 9.2.1-1)
REM options -cpp -mtune=generic -march=x86-64 -g -O0 -fpre-include=/usr/include/finclude/math-vector-fortran.h
REM seed 1367771083 -906440561 -1088311193 1877185571 -2072492663 750547369 -2073095051 1485128810 -1660167286 323948237 -1072278606 1954709239 1151278042 1330524443 -222973110 667285898 580985755 1351220202 -395750734 -432372196 -197002544 20185308 -589572823 2108304159 899527247 -700671345 1108376071 1820434448 -669149605 -2067400489 -719851353 -433921017 -1540172160
REM
CELL 1.54180   15.00000   15.00000   15.00000   90.00000   90.00000   90.00000
LATT -1
SFAC C  
C      1  0.3701850000000  0.3450810000000  0.4661330000000 1.0
C      1  0.3689160000000  0.3939500000000  0.3805460000000 1.0
C      1  0.3703250000000  0.4846340000000  0.3424250000000 1.0
C      1  0.3698100000000  0.5803400000000  0.3631880000000 1.0
C      1  0.3696970000000  0.6456600000000  0.4363820000000 1.0
C      1  0.3703040000000  0.6548710000000  0.5338500000000 1.0
C      1  0.3690470000000  0.6060940000000  0.6194650000000 1.0
C      1  0.3703960000000  0.5154750000000  0.6576500000000 1.0
C      1  0.3698980000000  0.4198120000000  0.6366700000000 1.0
C      1  0.3697600000000  0.3544080000000  0.5635600000000 1.0
C      1  0.5160380000000  0.4908960000000  0.3628640000000 1.0
C      1  0.5160300000000  0.5712800000000  0.3844860000000 1.0
C      1  0.5164170000000  0.6243410000000  0.4506350000000 1.0
C      1  0.5151140000000  0.6342050000000  0.5340820000000 1.0
C      1  0.5174030000000  0.5863040000000  0.6026510000000 1.0
C      1  0.5159210000000  0.5083970000000  0.6367360000000 1.0
C      1  0.5161760000000  0.4281690000000  0.6158800000000 1.0
C      1  0.5164450000000  0.3755040000000  0.5500810000000 1.0
C      1  0.5154180000000  0.3662170000000  0.4657880000000 1.0
C      1  0.5175680000000  0.4137980000000  0.3969210000000 1.0
C      1  0.4272980000000  0.3836680000000  0.7110320000000 1.0
C      1  0.4273250000000  0.2812010000000  0.6022190000000 1.0
C      1  0.4277690000000  0.2642220000000  0.4541590000000 1.0
C      1  0.4247670000000  0.3355230000000  0.3235090000000 1.0
C      1  0.4276500000000  0.4697640000000  0.2617580000000 1.0
C      1  0.4273000000000  0.6164480000000  0.2888210000000 1.0
C      1  0.4273160000000  0.7187940000000  0.3976230000000 1.0
C      1  0.4280010000000  0.7356380000000  0.5458630000000 1.0
C      1  0.4249360000000  0.6645850000000  0.6765430000000 1.0
C      1  0.4277650000000  0.5301770000000  0.7383800000000 1.0
C      1  0.6447960000000  0.4012100000000  0.3700670000000 1.0
C      1  0.6425770000000  0.4972190000000  0.3363050000000 1.0
C      1  0.6434530000000  0.5934950000000  0.3657160000000 1.0
C      1  0.6438280000000  0.6547450000000  0.4461580000000 1.0
C      1  0.6421360000000  0.6565890000000  0.5467400000000 1.0
C      1  0.6444440000000  0.5995320000000  0.6297510000000 1.0
C      1  0.6426030000000  0.5029000000000  0.6636530000000 1.0
C      1  0.6434480000000  0.4066980000000  0.6343280000000 1.0
C      1  0.6439590000000  0.3453990000000  0.5541980000000 1.0
C      1  0.6421210000000  0.3431120000000  0.4529020000000 1.0
C      1  0.5620960000000  0.3720870000000  0.6848970000000 1.0
C      1  0.5623850000000  0.2878240000000  0.5733920000000 1.0
C      1  0.5617330000000  0.2841200000000  0.4344420000000 1.0
C      1  0.5637820000000  0.3657200000000  0.3230580000000 1.0
C      1  0.5615870000000  0.4950210000000  0.2743940000000 1.0
C      1  0.5623140000000  0.6276500000000  0.3153900000000 1.0
C      1  0.5621830000000  0.7123850000000  0.4266570000000 1.0
C      1  0.5620560000000  0.7156840000000  0.5653980000000 1.0
C      1  0.5635270000000  0.6343930000000  0.6772050000000 1.0
C      1  0.5616260000000  0.5047570000000  0.7252570000000 1.0
C      1  0.4809130000000  0.3083210000000  0.6817460000000 1.0
C      1  0.4816270000000  0.2377430000000  0.5340710000000 1.0
C      1  0.4808410000000  0.2698980000000  0.3724860000000 1.0
C      1  0.4814940000000  0.3856910000000  0.2631810000000 1.0
C      1  0.4811610000000  0.5479270000000  0.2396560000000 1.0
C      1  0.4809780000000  0.6916380000000  0.3183240000000 1.0
C      1  0.4819400000000  0.7621960000000  0.4656600000000 1.0
C      1  0.4805340000000  0.7302940000000  0.6277030000000 1.0
C      1  0.4817960000000  0.6143620000000  0.7369060000000 1.0
C      1  0.4810650000000  0.4519340000000  0.7604580000000 1.0
END
