TITL C-1525613-7943-653 0.0141009603936299 3375 -8220.9279651118 0 0 60 (C1) n - 1
REM
REM in /home/nfs/bkarasulu/CARBON/AIRSS/Generating-Clusters/ReaxFF-fromJPCA2015/Units_Real/Try2-Higher-symm/Only-C60
REM
REM
REM
REM
REM
REM ./C.cell (863b2abdce7293c0672fb3ba77bf323a)
REM AIRSS Version 0.9.1 bugfix July 2018 build 013d7b7c2542+ Fri, 06 Jul 2018 19:26:36 +0100
REM compiler GCC version 9.2.1 20190827 (Red Hat 9.2.1-1)
REM options -cpp -mtune=generic -march=x86-64 -g -O0 -fpre-include=/usr/include/finclude/math-vector-fortran.h
REM seed 591937167 370118172 -1404022565 470742525 781896786 -1387958151 251714051 937971749 1026190405 -1716726433 1492704011 1980067436 -238252698 304436058 435252405 -1074172115 -410037961 -1995680608 -896348971 -2027324103 -1377580926 1264514533 894898428 1802843730 409779033 -84296246 1294863443 -1052570266 1097943747 1536970571 463657491 -246546688 773171700
REM
CELL 1.54180   15.00000   15.00000   15.00000   90.00000   90.00000   90.00000
LATT -1
SFAC C  
C      1  0.3585750000000  0.3153930000000  0.4972340000000 1.0
C      1  0.6188880000000  0.3604520000000  0.5952870000000 1.0
C      1  0.3642100000000  0.4234150000000  0.6330360000000 1.0
C      1  0.6286110000000  0.5404130000000  0.6587620000000 1.0
C      1  0.3962780000000  0.5870270000000  0.5686330000000 1.0
C      1  0.6416990000000  0.6862920000000  0.5020940000000 1.0
C      1  0.3910330000000  0.6390850000000  0.4057740000000 1.0
C      1  0.6374420000000  0.5773950000000  0.3661250000000 1.0
C      1  0.3737020000000  0.4597590000000  0.3417070000000 1.0
C      1  0.6061650000000  0.4123860000000  0.4288260000000 1.0
C      1  0.5001120000000  0.5015140000000  0.1205840000000 1.0
C      1  0.4923950000000  0.2897260000000  0.2321050000000 1.0
C      1  0.4964560000000  0.1339180000000  0.3609470000000 1.0
C      1  0.4949230000000  0.1202860000000  0.6270720000000 1.0
C      1  0.5121120000000  0.2981970000000  0.7972110000000 1.0
C      1  0.4995080000000  0.4984250000000  0.8784280000000 1.0
C      1  0.5077900000000  0.7100940000000  0.7670110000000 1.0
C      1  0.5004800000000  0.8685820000000  0.6368630000000 1.0
C      1  0.4979570000000  0.8791070000000  0.3767640000000 1.0
C      1  0.4795000000000  0.6995300000000  0.2052980000000 1.0
C      1  0.5009440000000  0.5187230000000  0.7936490000000 1.0
C      1  0.5037040000000  0.6717150000000  0.6926560000000 1.0
C      1  0.5233320000000  0.8128660000000  0.5760510000000 1.0
C      1  0.4896600000000  0.7898240000000  0.3743580000000 1.0
C      1  0.5068290000000  0.6498590000000  0.2675610000000 1.0
C      1  0.4989880000000  0.4809690000000  0.2050590000000 1.0
C      1  0.4967150000000  0.3278440000000  0.3064820000000 1.0
C      1  0.4765250000000  0.1864610000000  0.4263760000000 1.0
C      1  0.5094650000000  0.2048910000000  0.6195210000000 1.0
C      1  0.4893540000000  0.3506940000000  0.7360850000000 1.0
C      1  0.3909990000000  0.2246900000000  0.4860710000000 1.0
C      1  0.5952970000000  0.2736970000000  0.6283540000000 1.0
C      1  0.4024040000000  0.4098320000000  0.7221940000000 1.0
C      1  0.5932170000000  0.5395640000000  0.7490050000000 1.0
C      1  0.4238310000000  0.6683720000000  0.6137810000000 1.0
C      1  0.6074430000000  0.7765070000000  0.5126250000000 1.0
C      1  0.4076430000000  0.7238810000000  0.3752830000000 1.0
C      1  0.5968610000000  0.5915810000000  0.2785220000000 1.0
C      1  0.4076460000000  0.4606360000000  0.2508930000000 1.0
C      1  0.5767390000000  0.3307700000000  0.3848580000000 1.0
C      1  0.5849750000000  0.3441140000000  0.6888680000000 1.0
C      1  0.4156330000000  0.5037510000000  0.7327040000000 1.0
C      1  0.5958660000000  0.6223810000000  0.7033140000000 1.0
C      1  0.4458600000000  0.7543300000000  0.5947550000000 1.0
C      1  0.5721800000000  0.7801710000000  0.4302610000000 1.0
C      1  0.4152710000000  0.6552160000000  0.3169110000000 1.0
C      1  0.5850880000000  0.4979680000000  0.2658670000000 1.0
C      1  0.4047940000000  0.3777580000000  0.2969040000000 1.0
C      1  0.5526750000000  0.2463240000000  0.4070000000000 1.0
C      1  0.4249690000000  0.2194450000000  0.5689630000000 1.0
C      1  0.6155420000000  0.4807230000000  0.3593380000000 1.0
C      1  0.4054960000000  0.3983140000000  0.4795020000000 1.0
C      1  0.6085790000000  0.4299710000000  0.5258610000000 1.0
C      1  0.3970610000000  0.3711250000000  0.5643930000000 1.0
C      1  0.6101920000000  0.5188590000000  0.5643650000000 1.0
C      1  0.3869810000000  0.5196530000000  0.6386100000000 1.0
C      1  0.5933630000000  0.6033670000000  0.5203500000000 1.0
C      1  0.3945530000000  0.5694130000000  0.4727500000000 1.0
C      1  0.6044510000000  0.6311190000000  0.4346470000000 1.0
C      1  0.3910410000000  0.4816250000000  0.4354920000000 1.0
END
