TITL C-1525613-7943-1113 0.0270184018057284 3375 -8540.40894365685 0 0 60 (Ci) n - 1
REM
REM in /home/nfs/bkarasulu/CARBON/AIRSS/Generating-Clusters/ReaxFF-fromJPCA2015/Units_Real/Try2-Higher-symm/Only-C60
REM
REM
REM
REM
REM
REM ./C.cell (863b2abdce7293c0672fb3ba77bf323a)
REM AIRSS Version 0.9.1 bugfix July 2018 build 013d7b7c2542+ Fri, 06 Jul 2018 19:26:36 +0100
REM compiler GCC version 9.2.1 20190827 (Red Hat 9.2.1-1)
REM options -cpp -mtune=generic -march=x86-64 -g -O0 -fpre-include=/usr/include/finclude/math-vector-fortran.h
REM seed 1984044337 -1948913797 2037145762 846275457 -1178873424 -1641294529 261585386 -491216118 -723246222 2062819113 -1221127777 530887854 1339691048 573251784 1520258696 -1292116302 566685767 99160106 -1395973588 -1985001469 1994106373 -523858594 -249500634 -937657241 1907831283 1760460082 321338569 1256386299 -127020396 2042364039 625361549 901548021 -1659953163
REM
CELL 1.54180   15.00000   15.00000   15.00000   90.00000   90.00000   90.00000
LATT -1
SFAC C  
C      1  0.6123960000000  0.6379040000000  0.3602010000000 1.0
C      1  0.5120500000000  0.6735850000000  0.6346290000000 1.0
C      1  0.4067920000000  0.6474510000000  0.3584490000000 1.0
C      1  0.3305690000000  0.5578220000000  0.6382390000000 1.0
C      1  0.3307920000000  0.4594680000000  0.3498300000000 1.0
C      1  0.3880150000000  0.3626260000000  0.6406800000000 1.0
C      1  0.4884780000000  0.3268090000000  0.3662670000000 1.0
C      1  0.5936700000000  0.3524050000000  0.6408970000000 1.0
C      1  0.6696330000000  0.4422290000000  0.3621960000000 1.0
C      1  0.6714100000000  0.5383430000000  0.6511350000000 1.0
C      1  0.4364840000000  0.5622250000000  0.5424250000000 1.0
C      1  0.4128230000000  0.5448420000000  0.4471160000000 1.0
C      1  0.4288180000000  0.4661150000000  0.5521600000000 1.0
C      1  0.4002740000000  0.4521610000000  0.4644860000000 1.0
C      1  0.5038290000000  0.4106770000000  0.5390210000000 1.0
C      1  0.5620010000000  0.4367830000000  0.4550560000000 1.0
C      1  0.5868590000000  0.4558220000000  0.5471890000000 1.0
C      1  0.5728890000000  0.5349180000000  0.4445090000000 1.0
C      1  0.5989170000000  0.5502130000000  0.5373390000000 1.0
C      1  0.4951790000000  0.5887440000000  0.4591490000000 1.0
C      1  0.4995980000000  0.4175660000000  0.3219610000000 1.0
C      1  0.5440250000000  0.4309530000000  0.6844480000000 1.0
C      1  0.5813490000000  0.4711930000000  0.3178650000000 1.0
C      1  0.5781900000000  0.5224840000000  0.6858260000000 1.0
C      1  0.5521330000000  0.5654600000000  0.3171860000000 1.0
C      1  0.5008740000000  0.5815040000000  0.6785120000000 1.0
C      1  0.4546030000000  0.5691520000000  0.3158600000000 1.0
C      1  0.4188150000000  0.5276520000000  0.6835700000000 1.0
C      1  0.4221170000000  0.4772430000000  0.3139940000000 1.0
C      1  0.4474160000000  0.4334900000000  0.6861350000000 1.0
C      1  0.5932010000000  0.6963700000000  0.5992480000000 1.0
C      1  0.4639970000000  0.7089190000000  0.3958390000000 1.0
C      1  0.3702810000000  0.6365930000000  0.6047380000000 1.0
C      1  0.2965590000000  0.5376280000000  0.3902760000000 1.0
C      1  0.3138700000000  0.4035250000000  0.6038100000000 1.0
C      1  0.4047240000000  0.3046500000000  0.3996320000000 1.0
C      1  0.5362240000000  0.2909970000000  0.6038420000000 1.0
C      1  0.6277890000000  0.3648270000000  0.3971840000000 1.0
C      1  0.7034170000000  0.4641440000000  0.6067720000000 1.0
C      1  0.6865680000000  0.5963590000000  0.3958520000000 1.0
C      1  0.5318180000000  0.2778860000000  0.4473160000000 1.0
C      1  0.6556700000000  0.3443540000000  0.5583280000000 1.0
C      1  0.7213090000000  0.4691120000000  0.4418270000000 1.0
C      1  0.6849870000000  0.5983580000000  0.5544430000000 1.0
C      1  0.6012810000000  0.6996960000000  0.4392490000000 1.0
C      1  0.4680600000000  0.7220740000000  0.5534130000000 1.0
C      1  0.3446780000000  0.6565940000000  0.4425410000000 1.0
C      1  0.2793150000000  0.5309630000000  0.5579580000000 1.0
C      1  0.3144170000000  0.3998150000000  0.4444600000000 1.0
C      1  0.3987540000000  0.2992860000000  0.5620500000000 1.0
C      1  0.2829330000000  0.5852300000000  0.4710890000000 1.0
C      1  0.2682400000000  0.4390450000000  0.5328250000000 1.0
C      1  0.3504120000000  0.3090080000000  0.4746380000000 1.0
C      1  0.4838320000000  0.2573210000000  0.5352190000000 1.0
C      1  0.6232350000000  0.3035200000000  0.4707830000000 1.0
C      1  0.7183280000000  0.4152670000000  0.5306170000000 1.0
C      1  0.7321340000000  0.5616130000000  0.4677150000000 1.0
C      1  0.6503590000000  0.6900890000000  0.5270860000000 1.0
C      1  0.5160880000000  0.7418820000000  0.4652670000000 1.0
C      1  0.3765220000000  0.6970370000000  0.5296510000000 1.0
END
