TITL C-1525613-7943-27 0.304701031838276 3375 -8375.03597478766 0 0 60 (Ci) n - 1
REM
REM in /home/nfs/bkarasulu/CARBON/AIRSS/Generating-Clusters/ReaxFF-fromJPCA2015/Units_Real/Try2-Higher-symm/Only-C60
REM
REM
REM
REM
REM
REM ./C.cell (863b2abdce7293c0672fb3ba77bf323a)
REM AIRSS Version 0.9.1 bugfix July 2018 build 013d7b7c2542+ Fri, 06 Jul 2018 19:26:36 +0100
REM compiler GCC version 9.2.1 20190827 (Red Hat 9.2.1-1)
REM options -cpp -mtune=generic -march=x86-64 -g -O0 -fpre-include=/usr/include/finclude/math-vector-fortran.h
REM seed 456863156 1566014205 1929998332 1094522833 -1923625322 -658175519 -2031859242 548361459 -1844476966 -1058606303 -1582774087 1430301129 691370230 926338359 2010601350 -53686120 837198891 -751491745 -1052939340 104749886 370052331 -740892374 -921546232 -1684836085 -634256379 2112259307 365116479 -1206826229 1006085531 -1949983956 -1276384365 893983714 -2051207915
REM
CELL 1.54180   15.00000   15.00000   15.00000   90.00000   90.00000   90.00000
LATT -1
SFAC C  
C      1  0.4249160000000  0.7429300000000  0.4653130000000 1.0
C      1  0.4177610000000  0.2570250000000  0.5145430000000 1.0
C      1  0.4429420000000  0.7414310000000  0.5623760000000 1.0
C      1  0.4890420000000  0.2575420000000  0.5821860000000 1.0
C      1  0.5402740000000  0.7435300000000  0.5750190000000 1.0
C      1  0.5746950000000  0.2575530000000  0.5347960000000 1.0
C      1  0.5814280000000  0.7425350000000  0.4856310000000 1.0
C      1  0.5562070000000  0.2598150000000  0.4377920000000 1.0
C      1  0.5105300000000  0.7423760000000  0.4176780000000 1.0
C      1  0.4592620000000  0.2564980000000  0.4248500000000 1.0
C      1  0.6380880000000  0.4832080000000  0.4215700000000 1.0
C      1  0.5644000000000  0.5193950000000  0.3560790000000 1.0
C      1  0.4683360000000  0.4802080000000  0.3441370000000 1.0
C      1  0.3802300000000  0.5170220000000  0.3916000000000 1.0
C      1  0.3381460000000  0.4799130000000  0.4813750000000 1.0
C      1  0.3606920000000  0.5165660000000  0.5785120000000 1.0
C      1  0.4355230000000  0.4807290000000  0.6451720000000 1.0
C      1  0.5323630000000  0.5189460000000  0.6566480000000 1.0
C      1  0.6189870000000  0.4828480000000  0.6080380000000 1.0
C      1  0.6598170000000  0.5207360000000  0.5187620000000 1.0
C      1  0.6819620000000  0.3719030000000  0.5017830000000 1.0
C      1  0.6461690000000  0.6247550000000  0.3953290000000 1.0
C      1  0.5593690000000  0.3741180000000  0.3276520000000 1.0
C      1  0.4448330000000  0.6256880000000  0.3298220000000 1.0
C      1  0.3527180000000  0.3695490000000  0.3956760000000 1.0
C      1  0.3179730000000  0.6290740000000  0.4983270000000 1.0
C      1  0.3542360000000  0.3734800000000  0.6040440000000 1.0
C      1  0.4408940000000  0.6256960000000  0.6716530000000 1.0
C      1  0.5550700000000  0.3746410000000  0.6702560000000 1.0
C      1  0.6476770000000  0.6303200000000  0.6050210000000 1.0
C      1  0.3552150000000  0.6144140000000  0.3662280000000 1.0
C      1  0.3005940000000  0.3813980000000  0.4760610000000 1.0
C      1  0.3260460000000  0.6147030000000  0.5930770000000 1.0
C      1  0.4166710000000  0.3860640000000  0.6778950000000 1.0
C      1  0.5351400000000  0.6129670000000  0.6927750000000 1.0
C      1  0.6448230000000  0.3862410000000  0.6336460000000 1.0
C      1  0.6985490000000  0.6165640000000  0.5240180000000 1.0
C      1  0.6738810000000  0.3864130000000  0.4070190000000 1.0
C      1  0.5823190000000  0.6128580000000  0.3227260000000 1.0
C      1  0.4650860000000  0.3871650000000  0.3076750000000 1.0
C      1  0.5642420000000  0.6077570000000  0.5470740000000 1.0
C      1  0.5759880000000  0.3975080000000  0.5017790000000 1.0
C      1  0.5670970000000  0.6066290000000  0.4548610000000 1.0
C      1  0.5251020000000  0.3915100000000  0.4237570000000 1.0
C      1  0.4815420000000  0.6034800000000  0.4241120000000 1.0
C      1  0.4370690000000  0.3927060000000  0.4526740000000 1.0
C      1  0.4242100000000  0.6020910000000  0.4980860000000 1.0
C      1  0.4349890000000  0.3962460000000  0.5454520000000 1.0
C      1  0.4763880000000  0.6067840000000  0.5755160000000 1.0
C      1  0.5200440000000  0.3963350000000  0.5762800000000 1.0
C      1  0.5834850000000  0.6896570000000  0.6476690000000 1.0
C      1  0.6522000000000  0.3100580000000  0.5690140000000 1.0
C      1  0.6651430000000  0.6908210000000  0.4664460000000 1.0
C      1  0.6164930000000  0.3110050000000  0.3761860000000 1.0
C      1  0.5189610000000  0.6896380000000  0.3324210000000 1.0
C      1  0.4162430000000  0.3104850000000  0.3517550000000 1.0
C      1  0.3475990000000  0.6904800000000  0.4310330000000 1.0
C      1  0.3352600000000  0.3087460000000  0.5333250000000 1.0
C      1  0.3845850000000  0.6888830000000  0.6230870000000 1.0
C      1  0.4805000000000  0.3103650000000  0.6667140000000 1.0
END
