TITL C-1525613-7943-5511 0.0277954386097588 3375 -8587.28418429219 0 0 60 (C5) n - 1
REM
REM in /home/nfs/bkarasulu/CARBON/AIRSS/Generating-Clusters/ReaxFF-fromJPCA2015/Units_Real/Try2-Higher-symm/Only-C60
REM
REM
REM
REM
REM
REM ./C.cell (863b2abdce7293c0672fb3ba77bf323a)
REM AIRSS Version 0.9.1 bugfix July 2018 build 013d7b7c2542+ Fri, 06 Jul 2018 19:26:36 +0100
REM compiler GCC version 9.2.1 20190827 (Red Hat 9.2.1-1)
REM options -cpp -mtune=generic -march=x86-64 -g -O0 -fpre-include=/usr/include/finclude/math-vector-fortran.h
REM seed -1074072885 1683941312 -1606233605 134178626 1152528100 1307010970 168558220 -1352888850 343467895 1169981900 226429171 1694070868 13394535 1143245126 1265281209 -1150982199 -756082723 254435746 -1122854923 -1803421366 -503040313 2070099222 -872073960 805210212 251213835 1321945266 -1314429811 349046129 121176383 1070273360 488395728 -870452157 1483826742
REM
CELL 1.54180   15.00000   15.00000   15.00000   90.00000   90.00000   90.00000
LATT -1
SFAC C  
C      1  0.6386330000000  0.6061350000000  0.6451190000000 1.0
C      1  0.6437320000000  0.4010320000000  0.6450230000000 1.0
C      1  0.4501520000000  0.3326750000000  0.6451350000000 1.0
C      1  0.3254880000000  0.4955780000000  0.6450640000000 1.0
C      1  0.4419510000000  0.6646020000000  0.6451020000000 1.0
C      1  0.3614350000000  0.6060830000000  0.6450470000000 1.0
C      1  0.3562480000000  0.4009000000000  0.6451500000000 1.0
C      1  0.5497010000000  0.3326870000000  0.6450550000000 1.0
C      1  0.6745100000000  0.4956830000000  0.6451130000000 1.0
C      1  0.5581050000000  0.6646280000000  0.6451050000000 1.0
C      1  0.7353060000000  0.3707500000000  0.6811130000000 1.0
C      1  0.4497430000000  0.2362120000000  0.6811520000000 1.0
C      1  0.2336240000000  0.4662620000000  0.6811680000000 1.0
C      1  0.3856160000000  0.7429100000000  0.6811310000000 1.0
C      1  0.6956910000000  0.6839000000000  0.6812100000000 1.0
C      1  0.2646430000000  0.3706930000000  0.6811850000000 1.0
C      1  0.5502220000000  0.2362550000000  0.6811320000000 1.0
C      1  0.7663970000000  0.4662830000000  0.6811310000000 1.0
C      1  0.6144090000000  0.7429400000000  0.6811970000000 1.0
C      1  0.3043570000000  0.6838270000000  0.6811400000000 1.0
C      1  0.5494580000000  0.3489520000000  0.3081280000000 1.0
C      1  0.3716010000000  0.4062580000000  0.3080830000000 1.0
C      1  0.3712080000000  0.5931170000000  0.3080990000000 1.0
C      1  0.5487980000000  0.6513020000000  0.3080860000000 1.0
C      1  0.6589430000000  0.5003660000000  0.3080970000000 1.0
C      1  0.4505270000000  0.3489120000000  0.3080820000000 1.0
C      1  0.6283750000000  0.4062970000000  0.3081230000000 1.0
C      1  0.6288240000000  0.5931650000000  0.3080800000000 1.0
C      1  0.4512450000000  0.6512690000000  0.3080880000000 1.0
C      1  0.3410580000000  0.5003330000000  0.3081060000000 1.0
C      1  0.3297250000000  0.3464770000000  0.4604690000000 1.0
C      1  0.3014430000000  0.6144510000000  0.4605010000000 1.0
C      1  0.5475150000000  0.7242610000000  0.4604740000000 1.0
C      1  0.7279340000000  0.5241250000000  0.4604750000000 1.0
C      1  0.5933610000000  0.2906830000000  0.4605180000000 1.0
C      1  0.6702200000000  0.3465420000000  0.4605170000000 1.0
C      1  0.6986200000000  0.6144940000000  0.4604700000000 1.0
C      1  0.4524930000000  0.7242010000000  0.4604780000000 1.0
C      1  0.2720520000000  0.5240990000000  0.4604930000000 1.0
C      1  0.4066080000000  0.2906360000000  0.4604670000000 1.0
C      1  0.6721740000000  0.6533470000000  0.3750400000000 1.0
C      1  0.6989960000000  0.3836670000000  0.3750800000000 1.0
C      1  0.4508300000000  0.2747440000000  0.3750440000000 1.0
C      1  0.2706200000000  0.4771340000000  0.3750560000000 1.0
C      1  0.4073950000000  0.7111040000000  0.3750370000000 1.0
C      1  0.3278620000000  0.6532980000000  0.3750710000000 1.0
C      1  0.3009750000000  0.3836290000000  0.3750290000000 1.0
C      1  0.5491510000000  0.2747790000000  0.3750890000000 1.0
C      1  0.7294080000000  0.4771660000000  0.3750370000000 1.0
C      1  0.5926240000000  0.7111210000000  0.3750400000000 1.0
C      1  0.4502360000000  0.6523780000000  0.5301210000000 1.0
C      1  0.6296070000000  0.5945110000000  0.5301180000000 1.0
C      1  0.6298190000000  0.4060320000000  0.5301330000000 1.0
C      1  0.4506590000000  0.3474310000000  0.5300950000000 1.0
C      1  0.3396730000000  0.4996760000000  0.5301140000000 1.0
C      1  0.5498360000000  0.6524410000000  0.5301280000000 1.0
C      1  0.3704900000000  0.5944050000000  0.5301210000000 1.0
C      1  0.3701120000000  0.4059280000000  0.5301060000000 1.0
C      1  0.5492300000000  0.3474530000000  0.5301300000000 1.0
C      1  0.6603300000000  0.4997820000000  0.5301100000000 1.0
END
