TITL C-1525613-7943-1155 1.31251018667058 3375 -7891.89307681558 0 0 60 (C5) n - 1
REM
REM in /home/nfs/bkarasulu/CARBON/AIRSS/Generating-Clusters/ReaxFF-fromJPCA2015/Units_Real/Try2-Higher-symm/Only-C60
REM
REM
REM
REM
REM
REM ./C.cell (863b2abdce7293c0672fb3ba77bf323a)
REM AIRSS Version 0.9.1 bugfix July 2018 build 013d7b7c2542+ Fri, 06 Jul 2018 19:26:36 +0100
REM compiler GCC version 9.2.1 20190827 (Red Hat 9.2.1-1)
REM options -cpp -mtune=generic -march=x86-64 -g -O0 -fpre-include=/usr/include/finclude/math-vector-fortran.h
REM seed -978028 -420250937 -954926309 648050858 -1447203778 226527971 -1109965298 1002104336 1346677340 -45725182 1784801359 363207482 -17637858 -1341892748 1633741561 1984389184 581651797 1221236869 -210886759 -105026932 -1840072667 -1506107990 1645068358 249911996 832101258 -2136685813 1420993389 -1609794644 -1112221899 -2123406273 -800770176 -146775257 1796440994
REM
CELL 1.54180   15.00000   15.00000   15.00000   90.00000   90.00000   90.00000
LATT -1
SFAC C  
C      1  0.6534020000000  0.6718570000000  0.5500510000000 1.0
C      1  0.3839900000000  0.6990470000000  0.5501040000000 1.0
C      1  0.2753000000000  0.4507140000000  0.5502830000000 1.0
C      1  0.4774960000000  0.2712440000000  0.5503490000000 1.0
C      1  0.7108210000000  0.4072250000000  0.5501140000000 1.0
C      1  0.6534010000000  0.6718570000000  0.4499480000000 1.0
C      1  0.3839790000000  0.6990090000000  0.4499070000000 1.0
C      1  0.2753860000000  0.4513870000000  0.4494390000000 1.0
C      1  0.4772030000000  0.2714400000000  0.4494140000000 1.0
C      1  0.7108150000000  0.4072320000000  0.4498920000000 1.0
C      1  0.6441110000000  0.4555140000000  0.6787650000000 1.0
C      1  0.5868010000000  0.6233010000000  0.6788180000000 1.0
C      1  0.4095390000000  0.6206800000000  0.6787640000000 1.0
C      1  0.3568700000000  0.4514850000000  0.6787670000000 1.0
C      1  0.5024670000000  0.3494110000000  0.6786250000000 1.0
C      1  0.6440980000000  0.4555110000000  0.3212510000000 1.0
C      1  0.5867980000000  0.6232980000000  0.3211890000000 1.0
C      1  0.4095540000000  0.6206630000000  0.3212130000000 1.0
C      1  0.3576100000000  0.4512370000000  0.3213940000000 1.0
C      1  0.5025830000000  0.3496780000000  0.3214510000000 1.0
C      1  0.3626600000000  0.4141770000000  0.5420380000000 1.0
C      1  0.5394740000000  0.3424440000000  0.5426470000000 1.0
C      1  0.6618060000000  0.4896600000000  0.5418880000000 1.0
C      1  0.5598190000000  0.6506950000000  0.5419120000000 1.0
C      1  0.3751370000000  0.6034420000000  0.5418910000000 1.0
C      1  0.3629010000000  0.4130430000000  0.4577890000000 1.0
C      1  0.5399020000000  0.3424870000000  0.4572260000000 1.0
C      1  0.6617960000000  0.4896630000000  0.4580980000000 1.0
C      1  0.5598190000000  0.6506960000000  0.4580890000000 1.0
C      1  0.3751710000000  0.6034430000000  0.4580900000000 1.0
C      1  0.4328430000000  0.7082020000000  0.3602020000000 1.0
C      1  0.2810540000000  0.5002830000000  0.3606760000000 1.0
C      1  0.4317020000000  0.2917360000000  0.3605190000000 1.0
C      1  0.6766930000000  0.3710590000000  0.3602010000000 1.0
C      1  0.6773030000000  0.6282110000000  0.3601530000000 1.0
C      1  0.4328350000000  0.7082030000000  0.6397840000000 1.0
C      1  0.2815180000000  0.5003590000000  0.6400140000000 1.0
C      1  0.4315520000000  0.2919170000000  0.6399420000000 1.0
C      1  0.6766950000000  0.3710580000000  0.6398010000000 1.0
C      1  0.6773020000000  0.6282100000000  0.6398470000000 1.0
C      1  0.5183100000000  0.4148590000000  0.4014720000000 1.0
C      1  0.5867310000000  0.4909440000000  0.4020550000000 1.0
C      1  0.5353230000000  0.5798340000000  0.4020090000000 1.0
C      1  0.4350060000000  0.5582510000000  0.4020020000000 1.0
C      1  0.4244870000000  0.4560850000000  0.4018150000000 1.0
C      1  0.5185940000000  0.4146140000000  0.5982470000000 1.0
C      1  0.5868060000000  0.4910280000000  0.5979390000000 1.0
C      1  0.5353280000000  0.5798470000000  0.5979870000000 1.0
C      1  0.4350270000000  0.5583740000000  0.5980120000000 1.0
C      1  0.4242680000000  0.4557190000000  0.5976770000000 1.0
C      1  0.5450680000000  0.5696160000000  0.2515380000000 1.0
C      1  0.4477290000000  0.5644840000000  0.2515740000000 1.0
C      1  0.4224170000000  0.4701190000000  0.2516210000000 1.0
C      1  0.5045390000000  0.4169540000000  0.2517750000000 1.0
C      1  0.5801600000000  0.4786220000000  0.2515480000000 1.0
C      1  0.5450880000000  0.5696120000000  0.7484570000000 1.0
C      1  0.4477120000000  0.5643970000000  0.7484560000000 1.0
C      1  0.4225630000000  0.4701770000000  0.7485010000000 1.0
C      1  0.5044650000000  0.4170460000000  0.7483160000000 1.0
C      1  0.5801710000000  0.4786370000000  0.7484510000000 1.0
END
