TITL C-1525613-7943-5018 -0.000558840264713667 3375 -9053.25166391726 0 0 60 (C10) n - 1
REM
REM in /home/nfs/bkarasulu/CARBON/AIRSS/Generating-Clusters/ReaxFF-fromJPCA2015/Units_Real/Try2-Higher-symm/Only-C60
REM
REM
REM
REM
REM
REM ./C.cell (863b2abdce7293c0672fb3ba77bf323a)
REM AIRSS Version 0.9.1 bugfix July 2018 build 013d7b7c2542+ Fri, 06 Jul 2018 19:26:36 +0100
REM compiler GCC version 9.2.1 20190827 (Red Hat 9.2.1-1)
REM options -cpp -mtune=generic -march=x86-64 -g -O0 -fpre-include=/usr/include/finclude/math-vector-fortran.h
REM seed 1473104959 1169086929 -654235182 473542627 -127312780 1838559272 -258388654 848893221 118801202 154644899 992090986 806567323 1037737333 -617070989 -1029725903 -2099019725 -952780802 1116524843 1804051881 623203675 338834894 -624241674 1408686700 2030004582 1821643390 -522941883 -2110663975 1858387415 -2044832209 -1607274491 486024486 -1812191234 -247335298
REM
CELL 1.54180   15.00000   15.00000   15.00000   90.00000   90.00000   90.00000
LATT -1
SFAC C  
C      1  0.4524880000000  0.3719890000000  0.7396980000000 1.0
C      1  0.3206640000000  0.3719940000000  0.6659980000000 1.0
C      1  0.2573340000000  0.3719980000000  0.5288890000000 1.0
C      1  0.2867010000000  0.3719980000000  0.3807440000000 1.0
C      1  0.3975370000000  0.3719950000000  0.2781540000000 1.0
C      1  0.5475040000000  0.3719910000000  0.2603000000000 1.0
C      1  0.6793280000000  0.3719870000000  0.3340000000000 1.0
C      1  0.7426590000000  0.3719840000000  0.4711080000000 1.0
C      1  0.7132930000000  0.3719830000000  0.6192540000000 1.0
C      1  0.6024550000000  0.3719850000000  0.7218420000000 1.0
C      1  0.2381150000000  0.4746160000000  0.5311780000000 1.0
C      1  0.2698090000000  0.4746170000000  0.3712980000000 1.0
C      1  0.3894230000000  0.4746130000000  0.2605790000000 1.0
C      1  0.5512710000000  0.4746080000000  0.2413080000000 1.0
C      1  0.6935350000000  0.4746050000000  0.3208520000000 1.0
C      1  0.7618830000000  0.4746010000000  0.4688210000000 1.0
C      1  0.7301910000000  0.4746010000000  0.6287010000000 1.0
C      1  0.6105750000000  0.4746020000000  0.7394200000000 1.0
C      1  0.4487280000000  0.4746060000000  0.7586920000000 1.0
C      1  0.3064630000000  0.4746130000000  0.6791480000000 1.0
C      1  0.6239110000000  0.6262530000000  0.2783920000000 1.0
C      1  0.7305090000000  0.6262500000000  0.3935450000000 1.0
C      1  0.7490630000000  0.6262480000000  0.5493630000000 1.0
C      1  0.6724800000000  0.6262480000000  0.6863250000000 1.0
C      1  0.5300210000000  0.6262520000000  0.7521180000000 1.0
C      1  0.3760970000000  0.6262560000000  0.7216100000000 1.0
C      1  0.2694980000000  0.6262610000000  0.6064580000000 1.0
C      1  0.2509440000000  0.6262640000000  0.4506390000000 1.0
C      1  0.3275270000000  0.6262620000000  0.3136770000000 1.0
C      1  0.4699870000000  0.6262580000000  0.2478850000000 1.0
C      1  0.7609430000000  0.5204690000000  0.5517160000000 1.0
C      1  0.6807040000000  0.5204680000000  0.6952110000000 1.0
C      1  0.5314490000000  0.5204720000000  0.7641450000000 1.0
C      1  0.3701830000000  0.5204770000000  0.7321810000000 1.0
C      1  0.2584980000000  0.5204830000000  0.6115340000000 1.0
C      1  0.2390590000000  0.5204850000000  0.4482840000000 1.0
C      1  0.3192970000000  0.5204830000000  0.3047890000000 1.0
C      1  0.4685520000000  0.5204790000000  0.2358550000000 1.0
C      1  0.6298180000000  0.5204740000000  0.2678200000000 1.0
C      1  0.7415030000000  0.5204710000000  0.3884660000000 1.0
C      1  0.4099470000000  0.6692520000000  0.3050070000000 1.0
C      1  0.5417620000000  0.6692480000000  0.2893150000000 1.0
C      1  0.6576290000000  0.6692440000000  0.3540960000000 1.0
C      1  0.7132910000000  0.6692420000000  0.4746090000000 1.0
C      1  0.6874820000000  0.6692410000000  0.6048220000000 1.0
C      1  0.5900640000000  0.6692430000000  0.6949960000000 1.0
C      1  0.4582480000000  0.6692470000000  0.7106890000000 1.0
C      1  0.3423810000000  0.6692510000000  0.6459070000000 1.0
C      1  0.2867190000000  0.6692550000000  0.5253940000000 1.0
C      1  0.3125270000000  0.6692540000000  0.3951810000000 1.0
C      1  0.5254790000000  0.3374200000000  0.7140440000000 1.0
C      1  0.3947940000000  0.3374240000000  0.6881460000000 1.0
C      1  0.3042860000000  0.3374270000000  0.5903830000000 1.0
C      1  0.2885340000000  0.3374290000000  0.4580900000000 1.0
C      1  0.3535590000000  0.3374290000000  0.3418090000000 1.0
C      1  0.4745110000000  0.3374250000000  0.2859510000000 1.0
C      1  0.6051960000000  0.3374210000000  0.3118510000000 1.0
C      1  0.6957040000000  0.3374170000000  0.4096150000000 1.0
C      1  0.7114580000000  0.3374150000000  0.5419070000000 1.0
C      1  0.6464320000000  0.3374170000000  0.6581870000000 1.0
END
