TITL C-1525613-7943-3453 0.378291094023383 3375 -8428.78585325769 0 0 60 (C2) n - 1
REM
REM in /home/nfs/bkarasulu/CARBON/AIRSS/Generating-Clusters/ReaxFF-fromJPCA2015/Units_Real/Try2-Higher-symm/Only-C60
REM
REM
REM
REM
REM
REM ./C.cell (863b2abdce7293c0672fb3ba77bf323a)
REM AIRSS Version 0.9.1 bugfix July 2018 build 013d7b7c2542+ Fri, 06 Jul 2018 19:26:36 +0100
REM compiler GCC version 9.2.1 20190827 (Red Hat 9.2.1-1)
REM options -cpp -mtune=generic -march=x86-64 -g -O0 -fpre-include=/usr/include/finclude/math-vector-fortran.h
REM seed 914950201 -712655122 -1795477295 -1042271128 1973379231 -732512602 1659623360 723385868 122332033 -233390318 -781209498 17644427 968778870 -964383945 158325845 2107694276 904464842 -769573980 266779859 1544702472 2142738289 -1386265837 -778548487 -912954774 778611269 707791185 1473581534 -1762677914 -1772016522 800638603 1810702950 611102045 488307326
REM
CELL 1.54180   15.00000   15.00000   15.00000   90.00000   90.00000   90.00000
LATT -1
SFAC C  
C      1  0.4731340000000  0.6146650000000  0.7426940000000 1.0
C      1  0.3356800000000  0.6145450000000  0.6805620000000 1.0
C      1  0.2607090000000  0.6145610000000  0.5495230000000 1.0
C      1  0.2772770000000  0.6143450000000  0.3994460000000 1.0
C      1  0.3788500000000  0.6144490000000  0.2877730000000 1.0
C      1  0.5268660000000  0.6146650000000  0.2573060000000 1.0
C      1  0.6643200000000  0.6145450000000  0.3194380000000 1.0
C      1  0.7392910000000  0.6145610000000  0.4504770000000 1.0
C      1  0.7227230000000  0.6143450000000  0.6005540000000 1.0
C      1  0.6211500000000  0.6144490000000  0.7122270000000 1.0
C      1  0.6043400000000  0.6617690000000  0.3851650000000 1.0
C      1  0.6519550000000  0.6618300000000  0.4684310000000 1.0
C      1  0.6414810000000  0.6616050000000  0.5639480000000 1.0
C      1  0.5767960000000  0.6618480000000  0.6349790000000 1.0
C      1  0.4827990000000  0.6619050000000  0.6542660000000 1.0
C      1  0.3956600000000  0.6617690000000  0.6148350000000 1.0
C      1  0.3480450000000  0.6618300000000  0.5315690000000 1.0
C      1  0.3585190000000  0.6616050000000  0.4360520000000 1.0
C      1  0.4232040000000  0.6618480000000  0.3650210000000 1.0
C      1  0.5172010000000  0.6619050000000  0.3457340000000 1.0
C      1  0.5584810000000  0.5786570000000  0.7823790000000 1.0
C      1  0.3812940000000  0.5787030000000  0.7628530000000 1.0
C      1  0.2494240000000  0.5786490000000  0.6428750000000 1.0
C      1  0.2129580000000  0.5787890000000  0.4683570000000 1.0
C      1  0.2865860000000  0.5783010000000  0.3058940000000 1.0
C      1  0.4415190000000  0.5786570000000  0.2176210000000 1.0
C      1  0.6187060000000  0.5787030000000  0.2371470000000 1.0
C      1  0.7505760000000  0.5786490000000  0.3571250000000 1.0
C      1  0.7870420000000  0.5787890000000  0.5316430000000 1.0
C      1  0.7134140000000  0.5783010000000  0.6941060000000 1.0
C      1  0.4391340000000  0.2946670000000  0.6513290000000 1.0
C      1  0.3639390000000  0.2950030000000  0.5856500000000 1.0
C      1  0.3417440000000  0.2977250000000  0.4893850000000 1.0
C      1  0.3776730000000  0.2962150000000  0.3993350000000 1.0
C      1  0.4606610000000  0.2970360000000  0.3450670000000 1.0
C      1  0.5608660000000  0.2946670000000  0.3486710000000 1.0
C      1  0.6360610000000  0.2950030000000  0.4143500000000 1.0
C      1  0.6582560000000  0.2977250000000  0.5106150000000 1.0
C      1  0.6223270000000  0.2962150000000  0.6006650000000 1.0
C      1  0.5393390000000  0.2970360000000  0.6549330000000 1.0
C      1  0.4329510000000  0.3826730000000  0.6870120000000 1.0
C      1  0.3150300000000  0.3802790000000  0.5998010000000 1.0
C      1  0.2898260000000  0.3823310000000  0.5052220000000 1.0
C      1  0.3475200000000  0.3810120000000  0.3560580000000 1.0
C      1  0.4304650000000  0.3825210000000  0.3033880000000 1.0
C      1  0.5670490000000  0.3826730000000  0.3129880000000 1.0
C      1  0.6849700000000  0.3802790000000  0.4001990000000 1.0
C      1  0.7101740000000  0.3823310000000  0.4947770000000 1.0
C      1  0.6524800000000  0.3810120000000  0.6439420000000 1.0
C      1  0.5695350000000  0.3825210000000  0.6966120000000 1.0
C      1  0.5565310000000  0.4707430000000  0.3472130000000 1.0
C      1  0.6323830000000  0.4645610000000  0.4109640000000 1.0
C      1  0.6578370000000  0.4673460000000  0.5066660000000 1.0
C      1  0.6242760000000  0.4643980000000  0.5972680000000 1.0
C      1  0.5436430000000  0.4688670000000  0.6535890000000 1.0
C      1  0.4434690000000  0.4707430000000  0.6527870000000 1.0
C      1  0.3676170000000  0.4645610000000  0.5890360000000 1.0
C      1  0.3421630000000  0.4673460000000  0.4933340000000 1.0
C      1  0.3757240000000  0.4643980000000  0.4027320000000 1.0
C      1  0.4563570000000  0.4688670000000  0.3464110000000 1.0
END
