TITL C-1525613-7943-4679 0.057340526867715 3375 -8402.1546586976 0 0 60 (C5) n - 1
REM
REM in /home/nfs/bkarasulu/CARBON/AIRSS/Generating-Clusters/ReaxFF-fromJPCA2015/Units_Real/Try2-Higher-symm/Only-C60
REM
REM
REM
REM
REM
REM ./C.cell (863b2abdce7293c0672fb3ba77bf323a)
REM AIRSS Version 0.9.1 bugfix July 2018 build 013d7b7c2542+ Fri, 06 Jul 2018 19:26:36 +0100
REM compiler GCC version 9.2.1 20190827 (Red Hat 9.2.1-1)
REM options -cpp -mtune=generic -march=x86-64 -g -O0 -fpre-include=/usr/include/finclude/math-vector-fortran.h
REM seed -1978803975 -116204336 -1363616389 1996163859 -1867136897 343103652 437455519 1102405908 1348806539 886239492 1283978906 -1926038191 1432479805 1879258704 -1284265447 1777744509 540194697 -455928735 1782789218 -1101752492 204996076 -688086751 875421951 -111883474 168692894 -956195904 277075811 649570203 546628990 1232214846 -1432063140 1524305389 -453791545
REM
CELL 1.54180   15.00000   15.00000   15.00000   90.00000   90.00000   90.00000
LATT -1
SFAC C  
C      1  0.3691140000000  0.4115590000000  0.7437210000000 1.0
C      1  0.2266670000000  0.4113730000000  0.4516490000000 1.0
C      1  0.4626500000000  0.4120300000000  0.2277410000000 1.0
C      1  0.7492080000000  0.4106080000000  0.3793440000000 1.0
C      1  0.6922070000000  0.4110560000000  0.6996900000000 1.0
C      1  0.3698270000000  0.4113720000000  0.2566200000000 1.0
C      1  0.2265350000000  0.4115360000000  0.5486250000000 1.0
C      1  0.4618900000000  0.4120410000000  0.7726110000000 1.0
C      1  0.7480920000000  0.4114830000000  0.6202590000000 1.0
C      1  0.6918570000000  0.4110720000000  0.3009140000000 1.0
C      1  0.7443360000000  0.4781390000000  0.5491540000000 1.0
C      1  0.5288690000000  0.4783850000000  0.7475220000000 1.0
C      1  0.2713350000000  0.4783790000000  0.6039020000000 1.0
C      1  0.3298000000000  0.4768620000000  0.3166430000000 1.0
C      1  0.6238320000000  0.4782080000000  0.2813010000000 1.0
C      1  0.7459030000000  0.4769650000000  0.4506680000000 1.0
C      1  0.5293560000000  0.4784910000000  0.2529070000000 1.0
C      1  0.2718560000000  0.4779870000000  0.3963460000000 1.0
C      1  0.3289290000000  0.4772870000000  0.6839060000000 1.0
C      1  0.6233500000000  0.4772760000000  0.7192700000000 1.0
C      1  0.5029440000000  0.5194890000000  0.6639890000000 1.0
C      1  0.3434540000000  0.5174220000000  0.5516830000000 1.0
C      1  0.4034370000000  0.5162820000000  0.3710680000000 1.0
C      1  0.5951030000000  0.5197640000000  0.3658260000000 1.0
C      1  0.6565880000000  0.5193330000000  0.5486450000000 1.0
C      1  0.5032960000000  0.5199540000000  0.3365460000000 1.0
C      1  0.3436470000000  0.5172090000000  0.4487540000000 1.0
C      1  0.4025010000000  0.5162680000000  0.6295890000000 1.0
C      1  0.5946560000000  0.5164210000000  0.6324630000000 1.0
C      1  0.6545960000000  0.5166540000000  0.4508910000000 1.0
C      1  0.2246190000000  0.3082170000000  0.5504560000000 1.0
C      1  0.3680620000000  0.3079400000000  0.2530710000000 1.0
C      1  0.6922230000000  0.3076740000000  0.2979770000000 1.0
C      1  0.7518270000000  0.3081960000000  0.6200950000000 1.0
C      1  0.4629240000000  0.3088370000000  0.7772180000000 1.0
C      1  0.2247200000000  0.3080570000000  0.4500900000000 1.0
C      1  0.3672700000000  0.3081250000000  0.7469940000000 1.0
C      1  0.6938450000000  0.3076020000000  0.7019380000000 1.0
C      1  0.7513010000000  0.3071160000000  0.3789890000000 1.0
C      1  0.4637280000000  0.3087530000000  0.2230100000000 1.0
C      1  0.5003200000000  0.6827200000000  0.3411530000000 1.0
C      1  0.6516840000000  0.6818160000000  0.4505000000000 1.0
C      1  0.5939330000000  0.6816700000000  0.6283840000000 1.0
C      1  0.4068750000000  0.6817270000000  0.6286400000000 1.0
C      1  0.3485120000000  0.6820240000000  0.4511400000000 1.0
C      1  0.4999890000000  0.6827590000000  0.6588030000000 1.0
C      1  0.6516390000000  0.6827900000000  0.5492820000000 1.0
C      1  0.5942660000000  0.6830480000000  0.3709540000000 1.0
C      1  0.4071880000000  0.6817110000000  0.3714200000000 1.0
C      1  0.3482770000000  0.6822070000000  0.5488670000000 1.0
C      1  0.6416000000000  0.6032640000000  0.3363560000000 1.0
C      1  0.6984760000000  0.6028200000000  0.5834010000000 1.0
C      1  0.4819570000000  0.6026400000000  0.7137700000000 1.0
C      1  0.2895310000000  0.6029760000000  0.5488650000000 1.0
C      1  0.3889540000000  0.6021620000000  0.3166540000000 1.0
C      1  0.6413310000000  0.6024060000000  0.6628070000000 1.0
C      1  0.6985840000000  0.6023130000000  0.4159790000000 1.0
C      1  0.4819700000000  0.6025140000000  0.2861960000000 1.0
C      1  0.2897190000000  0.6028380000000  0.4510950000000 1.0
C      1  0.3888440000000  0.6021720000000  0.6836490000000 1.0
END
