TITL C-1525613-7943-321 0.644678662783629 3375 -8463.48763129086 0 0 60 (Cs) n - 1
REM
REM in /home/nfs/bkarasulu/CARBON/AIRSS/Generating-Clusters/ReaxFF-fromJPCA2015/Units_Real/Try2-Higher-symm/Only-C60
REM
REM
REM
REM
REM
REM ./C.cell (863b2abdce7293c0672fb3ba77bf323a)
REM AIRSS Version 0.9.1 bugfix July 2018 build 013d7b7c2542+ Fri, 06 Jul 2018 19:26:36 +0100
REM compiler GCC version 9.2.1 20190827 (Red Hat 9.2.1-1)
REM options -cpp -mtune=generic -march=x86-64 -g -O0 -fpre-include=/usr/include/finclude/math-vector-fortran.h
REM seed 268298388 1959920030 450340412 478645577 806259331 -1981118885 -2013207706 -1457773577 573783559 -1499509912 -1046354673 1210228616 1594712011 -166321444 -2049975086 -960450540 1282334413 -1828325628 239767740 -61752355 925796667 -1305061720 651637659 -1921326980 -471471494 -1375071922 -1708906559 -359326003 432559195 498205480 -266137810 -453545450 1612364084
REM
CELL 1.54180   15.00000   15.00000   15.00000   90.00000   90.00000   90.00000
LATT -1
SFAC C  
C      1  0.5660630000000  0.4715810000000  0.4280310000000 1.0
C      1  0.5482830000000  0.4123550000000  0.4987650000000 1.0
C      1  0.5517110000000  0.4810720000000  0.5889380000000 1.0
C      1  0.5682880000000  0.5688260000000  0.5501440000000 1.0
C      1  0.5510240000000  0.5616110000000  0.4540430000000 1.0
C      1  0.4346990000000  0.4715460000000  0.4279710000000 1.0
C      1  0.4521220000000  0.4120280000000  0.4982700000000 1.0
C      1  0.4486890000000  0.4814360000000  0.5891930000000 1.0
C      1  0.4337310000000  0.5677090000000  0.5500140000000 1.0
C      1  0.4493410000000  0.5616420000000  0.4551390000000 1.0
C      1  0.6106050000000  0.3609400000000  0.6604760000000 1.0
C      1  0.6137940000000  0.6131930000000  0.6853350000000 1.0
C      1  0.6031180000000  0.7047080000000  0.4455630000000 1.0
C      1  0.6040070000000  0.5182780000000  0.2908230000000 1.0
C      1  0.6096180000000  0.3031290000000  0.4159470000000 1.0
C      1  0.3894140000000  0.3610990000000  0.6604060000000 1.0
C      1  0.3862140000000  0.6129890000000  0.6846790000000 1.0
C      1  0.3958230000000  0.7044910000000  0.4456060000000 1.0
C      1  0.3959540000000  0.5182990000000  0.2907840000000 1.0
C      1  0.3902560000000  0.3032700000000  0.4158940000000 1.0
C      1  0.6579110000000  0.5268030000000  0.6691900000000 1.0
C      1  0.6473330000000  0.6721380000000  0.5217880000000 1.0
C      1  0.6397270000000  0.5815590000000  0.3474960000000 1.0
C      1  0.6423720000000  0.3805050000000  0.3735520000000 1.0
C      1  0.6506120000000  0.3521210000000  0.5717780000000 1.0
C      1  0.3419010000000  0.5267310000000  0.6690860000000 1.0
C      1  0.3518680000000  0.6726610000000  0.5210150000000 1.0
C      1  0.3602680000000  0.5814470000000  0.3478630000000 1.0
C      1  0.3574830000000  0.3808050000000  0.3737820000000 1.0
C      1  0.3493860000000  0.3524170000000  0.5717030000000 1.0
C      1  0.4540330000000  0.5719180000000  0.7357430000000 1.0
C      1  0.4609620000000  0.7471860000000  0.4881910000000 1.0
C      1  0.4614450000000  0.5668880000000  0.2572500000000 1.0
C      1  0.4615110000000  0.2924870000000  0.3631710000000 1.0
C      1  0.4618440000000  0.2983000000000  0.6710240000000 1.0
C      1  0.5459260000000  0.5716250000000  0.7361350000000 1.0
C      1  0.5380260000000  0.7470250000000  0.4876040000000 1.0
C      1  0.5385390000000  0.5669300000000  0.2570910000000 1.0
C      1  0.5383420000000  0.2923520000000  0.3631250000000 1.0
C      1  0.5381680000000  0.2983570000000  0.6710270000000 1.0
C      1  0.4120950000000  0.6468070000000  0.5952420000000 1.0
C      1  0.4308710000000  0.6360590000000  0.3899820000000 1.0
C      1  0.4306030000000  0.4406730000000  0.3375750000000 1.0
C      1  0.4121830000000  0.3222010000000  0.5053820000000 1.0
C      1  0.4091540000000  0.4561790000000  0.6794420000000 1.0
C      1  0.5872150000000  0.6483870000000  0.5971240000000 1.0
C      1  0.5690210000000  0.6363900000000  0.3892070000000 1.0
C      1  0.5693910000000  0.4407270000000  0.3376500000000 1.0
C      1  0.5877540000000  0.3222100000000  0.5053500000000 1.0
C      1  0.5906440000000  0.4562240000000  0.6791520000000 1.0
C      1  0.6999640000000  0.5166350000000  0.5779620000000 1.0
C      1  0.6972380000000  0.5833320000000  0.5077810000000 1.0
C      1  0.6948660000000  0.5386400000000  0.4216550000000 1.0
C      1  0.6945500000000  0.4424330000000  0.4355290000000 1.0
C      1  0.6974310000000  0.4294650000000  0.5322000000000 1.0
C      1  0.3005850000000  0.5170710000000  0.5776210000000 1.0
C      1  0.3033880000000  0.5847510000000  0.5078920000000 1.0
C      1  0.3052900000000  0.5386950000000  0.4219640000000 1.0
C      1  0.3047770000000  0.4427460000000  0.4354630000000 1.0
C      1  0.3025670000000  0.4299140000000  0.5321900000000 1.0
END
