TITL C-1525613-7943-297 0.0490336801143121 3375 -9064.78977637802 0 0 60 (C1) n - 1
REM
REM in /home/nfs/bkarasulu/CARBON/AIRSS/Generating-Clusters/ReaxFF-fromJPCA2015/Units_Real/Try2-Higher-symm/Only-C60
REM
REM
REM
REM
REM
REM ./C.cell (863b2abdce7293c0672fb3ba77bf323a)
REM AIRSS Version 0.9.1 bugfix July 2018 build 013d7b7c2542+ Fri, 06 Jul 2018 19:26:36 +0100
REM compiler GCC version 9.2.1 20190827 (Red Hat 9.2.1-1)
REM options -cpp -mtune=generic -march=x86-64 -g -O0 -fpre-include=/usr/include/finclude/math-vector-fortran.h
REM seed 216921095 1819015967 699282933 -1558359801 -1886194758 1589350080 -75389071 2086350919 1898229370 1277978758 -128392450 1649267258 1386284393 131030646 2114009833 -1041997922 -1603693570 -1703130103 743123534 1172516379 1481333193 1407560710 1862565799 -406558079 634314960 -341036303 -2020038760 1253642743 -588454983 -1145651562 1896392022 668473638 -1345086596
REM
CELL 1.54180   15.00000   15.00000   15.00000   90.00000   90.00000   90.00000
LATT -1
SFAC C  
C      1  0.6594860000000  0.5562420000000  0.6904060000000 1.0
C      1  0.6528860000000  0.6867930000000  0.4976780000000 1.0
C      1  0.6846230000000  0.5613460000000  0.2919160000000 1.0
C      1  0.6809030000000  0.3345700000000  0.3715890000000 1.0
C      1  0.6263950000000  0.3472050000000  0.6058000000000 1.0
C      1  0.3399040000000  0.5581440000000  0.3100290000000 1.0
C      1  0.3455620000000  0.6880030000000  0.5021550000000 1.0
C      1  0.3145230000000  0.5638330000000  0.7080710000000 1.0
C      1  0.3207390000000  0.3361870000000  0.6295690000000 1.0
C      1  0.3755020000000  0.3475220000000  0.3950540000000 1.0
C      1  0.4445320000000  0.4250180000000  0.5059730000000 1.0
C      1  0.4278310000000  0.4603910000000  0.6022050000000 1.0
C      1  0.4534350000000  0.5515280000000  0.6195200000000 1.0
C      1  0.4731130000000  0.5824290000000  0.4483020000000 1.0
C      1  0.4236120000000  0.4954740000000  0.4373280000000 1.0
C      1  0.5568240000000  0.4244000000000  0.4947380000000 1.0
C      1  0.5718160000000  0.4588170000000  0.3979610000000 1.0
C      1  0.5452550000000  0.5497720000000  0.3800320000000 1.0
C      1  0.5264330000000  0.5819150000000  0.5513720000000 1.0
C      1  0.5759550000000  0.4949150000000  0.5633860000000 1.0
C      1  0.6243550000000  0.4082880000000  0.3354520000000 1.0
C      1  0.6001430000000  0.3311820000000  0.5189460000000 1.0
C      1  0.6070070000000  0.4798640000000  0.6540150000000 1.0
C      1  0.5940110000000  0.6563870000000  0.5682890000000 1.0
C      1  0.6122530000000  0.6075520000000  0.3406940000000 1.0
C      1  0.3761420000000  0.4104070000000  0.6659580000000 1.0
C      1  0.4032030000000  0.3314270000000  0.4816880000000 1.0
C      1  0.3907260000000  0.4811950000000  0.3472890000000 1.0
C      1  0.4053300000000  0.6570950000000  0.4323700000000 1.0
C      1  0.3865270000000  0.6097590000000  0.6585260000000 1.0
C      1  0.7496070000000  0.6202440000000  0.6050260000000 1.0
C      1  0.7511700000000  0.6279760000000  0.4156100000000 1.0
C      1  0.7716010000000  0.4596080000000  0.3347540000000 1.0
C      1  0.7664950000000  0.3491770000000  0.4833000000000 1.0
C      1  0.7557620000000  0.4394050000000  0.6412270000000 1.0
C      1  0.2493470000000  0.6230090000000  0.3944560000000 1.0
C      1  0.2466250000000  0.6301860000000  0.5841540000000 1.0
C      1  0.2288720000000  0.4613850000000  0.6644320000000 1.0
C      1  0.2381970000000  0.3510040000000  0.5155800000000 1.0
C      1  0.2421360000000  0.4425100000000  0.3569160000000 1.0
C      1  0.7697030000000  0.3998380000000  0.5611820000000 1.0
C      1  0.7510450000000  0.5381150000000  0.6594080000000 1.0
C      1  0.7447080000000  0.6503900000000  0.5119610000000 1.0
C      1  0.7664580000000  0.5583630000000  0.3478150000000 1.0
C      1  0.7689180000000  0.3762080000000  0.3855850000000 1.0
C      1  0.2350620000000  0.4006680000000  0.4364150000000 1.0
C      1  0.2473880000000  0.5412610000000  0.3393270000000 1.0
C      1  0.2534880000000  0.6522620000000  0.4877180000000 1.0
C      1  0.2328070000000  0.5602550000000  0.6519310000000 1.0
C      1  0.2332860000000  0.3782550000000  0.6132000000000 1.0
C      1  0.6765080000000  0.3050470000000  0.4639290000000 1.0
C      1  0.6641630000000  0.3999580000000  0.6706700000000 1.0
C      1  0.6576190000000  0.6409640000000  0.6399460000000 1.0
C      1  0.6618400000000  0.6677640000000  0.4005870000000 1.0
C      1  0.6870120000000  0.4635160000000  0.2825810000000 1.0
C      1  0.3268290000000  0.3060220000000  0.5373860000000 1.0
C      1  0.3336600000000  0.4001730000000  0.3312620000000 1.0
C      1  0.3419080000000  0.6428530000000  0.3604580000000 1.0
C      1  0.3360260000000  0.6698900000000  0.5992810000000 1.0
C      1  0.3127330000000  0.4660350000000  0.7175950000000 1.0
END
