TITL C-1525613-7943-1119 -0.0940205365202034 3375 -8616.32555717153 0 0 60 (Cs) n - 1
REM
REM in /home/nfs/bkarasulu/CARBON/AIRSS/Generating-Clusters/ReaxFF-fromJPCA2015/Units_Real/Try2-Higher-symm/Only-C60
REM
REM
REM
REM
REM
REM ./C.cell (863b2abdce7293c0672fb3ba77bf323a)
REM AIRSS Version 0.9.1 bugfix July 2018 build 013d7b7c2542+ Fri, 06 Jul 2018 19:26:36 +0100
REM compiler GCC version 9.2.1 20190827 (Red Hat 9.2.1-1)
REM options -cpp -mtune=generic -march=x86-64 -g -O0 -fpre-include=/usr/include/finclude/math-vector-fortran.h
REM seed -1458415247 -2058178888 425000396 499773722 -1324568342 -495561921 511202386 460248960 907693333 1787321601 545387863 -185857844 1441082486 176532508 910879460 271902596 -1792324823 -838963782 446531807 -686730998 -1142506625 -1899721186 1261175473 1577190037 -429651270 -1109298179 56974448 -1768161629 1557262154 -1152036468 429765417 -1489285436 1566349360
REM
CELL 1.54180   15.00000   15.00000   15.00000   90.00000   90.00000   90.00000
LATT -1
SFAC C  
C      1  0.4560940000000  0.4095220000000  0.5757720000000 1.0
C      1  0.5583290000000  0.4122660000000  0.5658120000000 1.0
C      1  0.5811710000000  0.4102480000000  0.4637790000000 1.0
C      1  0.4910320000000  0.4133020000000  0.4086420000000 1.0
C      1  0.4146770000000  0.4098630000000  0.4805880000000 1.0
C      1  0.4560940000000  0.5904780000000  0.5757720000000 1.0
C      1  0.5583280000000  0.5877340000000  0.5658120000000 1.0
C      1  0.5811730000000  0.5897510000000  0.4637810000000 1.0
C      1  0.4910340000000  0.5866990000000  0.4086430000000 1.0
C      1  0.4146720000000  0.5901400000000  0.4805870000000 1.0
C      1  0.3790100000000  0.6896670000000  0.3920810000000 1.0
C      1  0.3556730000000  0.6871340000000  0.5842000000000 1.0
C      1  0.5327490000000  0.6911000000000  0.6606310000000 1.0
C      1  0.6645350000000  0.6908910000000  0.5188880000000 1.0
C      1  0.5666850000000  0.6907410000000  0.3525320000000 1.0
C      1  0.3790100000000  0.3103300000000  0.3920790000000 1.0
C      1  0.3556740000000  0.3128670000000  0.5841970000000 1.0
C      1  0.5327480000000  0.3089000000000  0.6606320000000 1.0
C      1  0.6645340000000  0.3091080000000  0.5188890000000 1.0
C      1  0.5666820000000  0.3092600000000  0.3525340000000 1.0
C      1  0.3196440000000  0.6119640000000  0.3659470000000 1.0
C      1  0.3173090000000  0.6042700000000  0.6272580000000 1.0
C      1  0.5629590000000  0.6117140000000  0.7155780000000 1.0
C      1  0.7259430000000  0.6119300000000  0.5052080000000 1.0
C      1  0.5772900000000  0.6116360000000  0.2897100000000 1.0
C      1  0.3196450000000  0.3880340000000  0.3659500000000 1.0
C      1  0.3173090000000  0.3957290000000  0.6272580000000 1.0
C      1  0.5629590000000  0.3882860000000  0.7155780000000 1.0
C      1  0.7259420000000  0.3880690000000  0.5052090000000 1.0
C      1  0.5772900000000  0.3883640000000  0.2897110000000 1.0
C      1  0.6040250000000  0.3123680000000  0.4425790000000 1.0
C      1  0.4713290000000  0.3235280000000  0.3640340000000 1.0
C      1  0.3801490000000  0.3131210000000  0.4892610000000 1.0
C      1  0.4480730000000  0.3116000000000  0.6130690000000 1.0
C      1  0.5927630000000  0.3167640000000  0.5841430000000 1.0
C      1  0.6040270000000  0.6876320000000  0.4425770000000 1.0
C      1  0.4713330000000  0.6764770000000  0.3640430000000 1.0
C      1  0.3801440000000  0.6868810000000  0.4892630000000 1.0
C      1  0.4480730000000  0.6883990000000  0.6130700000000 1.0
C      1  0.5927630000000  0.6832360000000  0.5841410000000 1.0
C      1  0.5999880000000  0.4516280000000  0.6507710000000 1.0
C      1  0.6738310000000  0.4514290000000  0.4514230000000 1.0
C      1  0.5090990000000  0.4519550000000  0.3183820000000 1.0
C      1  0.3305850000000  0.4513570000000  0.4398430000000 1.0
C      1  0.3938220000000  0.4539160000000  0.6337150000000 1.0
C      1  0.5999890000000  0.5483720000000  0.6507710000000 1.0
C      1  0.6738320000000  0.5485690000000  0.4514230000000 1.0
C      1  0.5090980000000  0.5480450000000  0.3183800000000 1.0
C      1  0.3305850000000  0.5486420000000  0.4398400000000 1.0
C      1  0.3938230000000  0.5460840000000  0.6337150000000 1.0
C      1  0.2467710000000  0.5426840000000  0.6161030000000 1.0
C      1  0.5309120000000  0.5416750000000  0.7674090000000 1.0
C      1  0.7657530000000  0.5416630000000  0.5512260000000 1.0
C      1  0.6339480000000  0.5418200000000  0.2663090000000 1.0
C      1  0.3158520000000  0.5417060000000  0.3051010000000 1.0
C      1  0.2467710000000  0.4573150000000  0.6161030000000 1.0
C      1  0.5309120000000  0.4583250000000  0.7674090000000 1.0
C      1  0.7657530000000  0.4583370000000  0.5512260000000 1.0
C      1  0.6339490000000  0.4581780000000  0.2663090000000 1.0
C      1  0.3158530000000  0.4582910000000  0.3051030000000 1.0
END
