TITL C-1525613-7943-6372 0.174408056330306 3375 -8450.67082899951 0 0 60 (D5) n - 1
REM
REM in /home/nfs/bkarasulu/CARBON/AIRSS/Generating-Clusters/ReaxFF-fromJPCA2015/Units_Real/Try2-Higher-symm/Only-C60
REM
REM
REM
REM
REM
REM ./C.cell (863b2abdce7293c0672fb3ba77bf323a)
REM AIRSS Version 0.9.1 bugfix July 2018 build 013d7b7c2542+ Fri, 06 Jul 2018 19:26:36 +0100
REM compiler GCC version 9.2.1 20190827 (Red Hat 9.2.1-1)
REM options -cpp -mtune=generic -march=x86-64 -g -O0 -fpre-include=/usr/include/finclude/math-vector-fortran.h
REM seed 976181733 2062656696 -976129189 -720561637 1570817289 -1950140393 -747141852 -1604322261 -274426201 1982969397 1495937680 1745316578 2053223330 -2055321003 791331213 733433956 -1782035892 -1029728131 -535567761 -93512989 -1572065085 -764747527 170665457 353799327 -759022008 -398506462 -2132751781 -843662403 -785551392 617684500 687474764 -1492549686 -1387157328
REM
CELL 1.54180   15.00000   15.00000   15.00000   90.00000   90.00000   90.00000
LATT -1
SFAC C  
C      1  0.4171410000000  0.6459130000000  0.7093730000000 1.0
C      1  0.6734840000000  0.6459370000000  0.6435110000000 1.0
C      1  0.6901470000000  0.6458480000000  0.3793140000000 1.0
C      1  0.4440040000000  0.6458790000000  0.2819050000000 1.0
C      1  0.2752710000000  0.6459340000000  0.4858800000000 1.0
C      1  0.4171410000000  0.3540870000000  0.2906270000000 1.0
C      1  0.6734840000000  0.3540630000000  0.3564890000000 1.0
C      1  0.6901470000000  0.3541520000000  0.6206860000000 1.0
C      1  0.4440040000000  0.3541210000000  0.7180950000000 1.0
C      1  0.2752710000000  0.3540660000000  0.5141200000000 1.0
C      1  0.4172510000000  0.4142110000000  0.4952010000000 1.0
C      1  0.4698610000000  0.4141160000000  0.5772210000000 1.0
C      1  0.5641010000000  0.4142480000000  0.5525080000000 1.0
C      1  0.5697230000000  0.4141350000000  0.4552630000000 1.0
C      1  0.4789840000000  0.4142030000000  0.4197990000000 1.0
C      1  0.4172510000000  0.5857890000000  0.5047990000000 1.0
C      1  0.4698610000000  0.5858840000000  0.4227790000000 1.0
C      1  0.5641010000000  0.5857520000000  0.4474920000000 1.0
C      1  0.5697230000000  0.5858650000000  0.5447370000000 1.0
C      1  0.4789840000000  0.5857970000000  0.5802010000000 1.0
C      1  0.4214990000000  0.4505740000000  0.6706060000000 1.0
C      1  0.6380520000000  0.4505800000000  0.6274250000000 1.0
C      1  0.6638290000000  0.4505840000000  0.4081290000000 1.0
C      1  0.4632400000000  0.4505500000000  0.3157610000000 1.0
C      1  0.3134650000000  0.4505670000000  0.4780170000000 1.0
C      1  0.4214990000000  0.5494260000000  0.3293940000000 1.0
C      1  0.6380520000000  0.5494200000000  0.3725750000000 1.0
C      1  0.6638290000000  0.5494160000000  0.5918710000000 1.0
C      1  0.4632400000000  0.5494500000000  0.6842390000000 1.0
C      1  0.3134650000000  0.5494330000000  0.5219830000000 1.0
C      1  0.2816580000000  0.5356650000000  0.6170950000000 1.0
C      1  0.5438850000000  0.5356280000000  0.7438210000000 1.0
C      1  0.7454640000000  0.5356410000000  0.5336140000000 1.0
C      1  0.6078120000000  0.5356590000000  0.2769320000000 1.0
C      1  0.3211330000000  0.5356540000000  0.3285330000000 1.0
C      1  0.2816580000000  0.4643350000000  0.3829050000000 1.0
C      1  0.5438850000000  0.4643720000000  0.2561790000000 1.0
C      1  0.7454640000000  0.4643590000000  0.4663860000000 1.0
C      1  0.6078120000000  0.4643410000000  0.7230680000000 1.0
C      1  0.3211330000000  0.4643460000000  0.6714670000000 1.0
C      1  0.6191750000000  0.6790890000000  0.4313660000000 1.0
C      1  0.4715210000000  0.6792530000000  0.3654760000000 1.0
C      1  0.3632660000000  0.6791870000000  0.4854560000000 1.0
C      1  0.4439320000000  0.6791830000000  0.6255210000000 1.0
C      1  0.6020920000000  0.6792110000000  0.5920540000000 1.0
C      1  0.6191750000000  0.3209110000000  0.5686340000000 1.0
C      1  0.4715210000000  0.3207470000000  0.6345240000000 1.0
C      1  0.3632660000000  0.3208130000000  0.5145440000000 1.0
C      1  0.4439320000000  0.3208170000000  0.3744790000000 1.0
C      1  0.6020920000000  0.3207890000000  0.4079460000000 1.0
C      1  0.5594020000000  0.2363870000000  0.4432900000000 1.0
C      1  0.4642760000000  0.2362810000000  0.4258910000000 1.0
C      1  0.4184550000000  0.2362880000000  0.5108990000000 1.0
C      1  0.4853720000000  0.2364040000000  0.5807490000000 1.0
C      1  0.5725030000000  0.2361970000000  0.5390250000000 1.0
C      1  0.5594020000000  0.7636130000000  0.5567100000000 1.0
C      1  0.4642760000000  0.7637190000000  0.5741090000000 1.0
C      1  0.4184550000000  0.7637120000000  0.4891010000000 1.0
C      1  0.4853720000000  0.7635960000000  0.4192510000000 1.0
C      1  0.5725030000000  0.7638030000000  0.4609750000000 1.0
END
