TITL C-1525613-7943-6508 0.0832722091772437 3375 -8590.98513418536 0 0 60 (C1) n - 1
REM
REM in /home/nfs/bkarasulu/CARBON/AIRSS/Generating-Clusters/ReaxFF-fromJPCA2015/Units_Real/Try2-Higher-symm/Only-C60
REM
REM
REM
REM
REM
REM ./C.cell (863b2abdce7293c0672fb3ba77bf323a)
REM AIRSS Version 0.9.1 bugfix July 2018 build 013d7b7c2542+ Fri, 06 Jul 2018 19:26:36 +0100
REM compiler GCC version 9.2.1 20190827 (Red Hat 9.2.1-1)
REM options -cpp -mtune=generic -march=x86-64 -g -O0 -fpre-include=/usr/include/finclude/math-vector-fortran.h
REM seed -178050188 -780428477 1906606884 -85689287 -1454458328 -960613133 -1414009258 606766182 755038398 -1723396713 1960497832 1042226908 562940061 735733210 -212823625 -1347717155 1991761984 -1701163358 232064159 994092464 -1342623969 -888328806 -1855867544 -1627527717 1574116208 588272859 -1937081650 -471141610 1633256202 194293087 -2018864063 -951736313 1596998037
REM
CELL 1.54180   15.00000   15.00000   15.00000   90.00000   90.00000   90.00000
LATT -1
SFAC C  
C      1  0.4619090000000  0.7656490000000  0.4850050000000 1.0
C      1  0.7432830000000  0.6187920000000  0.4826780000000 1.0
C      1  0.6879610000000  0.3082340000000  0.4806560000000 1.0
C      1  0.3729480000000  0.2624110000000  0.4819150000000 1.0
C      1  0.2325960000000  0.5464580000000  0.4842830000000 1.0
C      1  0.4630350000000  0.2376300000000  0.5123980000000 1.0
C      1  0.7422970000000  0.3803270000000  0.5186080000000 1.0
C      1  0.6867840000000  0.6918090000000  0.5174580000000 1.0
C      1  0.3728740000000  0.7396290000000  0.5215180000000 1.0
C      1  0.2346220000000  0.4542480000000  0.5200490000000 1.0
C      1  0.4893270000000  0.2484590000000  0.6094440000000 1.0
C      1  0.2581990000000  0.4351820000000  0.6160550000000 1.0
C      1  0.3645200000000  0.7099180000000  0.6169250000000 1.0
C      1  0.6605180000000  0.6945320000000  0.6149850000000 1.0
C      1  0.7305630000000  0.4098540000000  0.6143790000000 1.0
C      1  0.4890930000000  0.7514650000000  0.3890640000000 1.0
C      1  0.2524840000000  0.5661320000000  0.3866160000000 1.0
C      1  0.3627230000000  0.2919660000000  0.3852010000000 1.0
C      1  0.6621350000000  0.3031080000000  0.3814780000000 1.0
C      1  0.7318510000000  0.5887490000000  0.3861960000000 1.0
C      1  0.5644630000000  0.3078020000000  0.3741820000000 1.0
C      1  0.3410060000000  0.3885510000000  0.3914370000000 1.0
C      1  0.3340280000000  0.6223030000000  0.3925620000000 1.0
C      1  0.5626760000000  0.6830280000000  0.3846190000000 1.0
C      1  0.6950570000000  0.4970300000000  0.3938420000000 1.0
C      1  0.5609350000000  0.6865200000000  0.6131300000000 1.0
C      1  0.3402910000000  0.6126400000000  0.6103150000000 1.0
C      1  0.3429860000000  0.3820570000000  0.6126750000000 1.0
C      1  0.5631290000000  0.3156470000000  0.6102140000000 1.0
C      1  0.6951620000000  0.5031020000000  0.6094400000000 1.0
C      1  0.5371030000000  0.5731950000000  0.3043320000000 1.0
C      1  0.5880750000000  0.4892310000000  0.3124730000000 1.0
C      1  0.5288530000000  0.4052980000000  0.3187170000000 1.0
C      1  0.4349310000000  0.4439880000000  0.3067960000000 1.0
C      1  0.4448400000000  0.5393210000000  0.2922580000000 1.0
C      1  0.5284500000000  0.4208880000000  0.6946200000000 1.0
C      1  0.5843000000000  0.5027620000000  0.6933080000000 1.0
C      1  0.5232910000000  0.5806990000000  0.6949580000000 1.0
C      1  0.4300090000000  0.5474210000000  0.6943580000000 1.0
C      1  0.4332960000000  0.4483790000000  0.6953200000000 1.0
C      1  0.7518320000000  0.4639530000000  0.4686650000000 1.0
C      1  0.5423700000000  0.2609010000000  0.4599280000000 1.0
C      1  0.2775270000000  0.3824920000000  0.4690510000000 1.0
C      1  0.3149400000000  0.6792760000000  0.4712870000000 1.0
C      1  0.6095050000000  0.7224740000000  0.4656920000000 1.0
C      1  0.7519540000000  0.5365140000000  0.5330630000000 1.0
C      1  0.5442680000000  0.7464240000000  0.5335950000000 1.0
C      1  0.2745270000000  0.6181430000000  0.5343850000000 1.0
C      1  0.3184680000000  0.3234200000000  0.5345190000000 1.0
C      1  0.6098450000000  0.2779640000000  0.5282810000000 1.0
C      1  0.5315190000000  0.4108010000000  0.5958450000000 1.0
C      1  0.4240060000000  0.4413230000000  0.5966360000000 1.0
C      1  0.4211180000000  0.5533690000000  0.5956810000000 1.0
C      1  0.5270510000000  0.5919630000000  0.5962690000000 1.0
C      1  0.5943750000000  0.5042250000000  0.5943320000000 1.0
C      1  0.5250850000000  0.5922120000000  0.4022400000000 1.0
C      1  0.4192370000000  0.5668900000000  0.3835310000000 1.0
C      1  0.4232820000000  0.4530880000000  0.4054010000000 1.0
C      1  0.5196900000000  0.4230110000000  0.4158170000000 1.0
C      1  0.5868000000000  0.4971450000000  0.4113160000000 1.0
END
