TITL C-1525613-7943-1174 0.225247218349059 3375 -8303.02818605646 0 0 60 (Ci) n - 1
REM
REM in /home/nfs/bkarasulu/CARBON/AIRSS/Generating-Clusters/ReaxFF-fromJPCA2015/Units_Real/Try2-Higher-symm/Only-C60
REM
REM
REM
REM
REM
REM ./C.cell (863b2abdce7293c0672fb3ba77bf323a)
REM AIRSS Version 0.9.1 bugfix July 2018 build 013d7b7c2542+ Fri, 06 Jul 2018 19:26:36 +0100
REM compiler GCC version 9.2.1 20190827 (Red Hat 9.2.1-1)
REM options -cpp -mtune=generic -march=x86-64 -g -O0 -fpre-include=/usr/include/finclude/math-vector-fortran.h
REM seed -1325503591 1537705230 -1868366185 -1411573804 1292344107 975638030 349352267 -286641633 2125724419 2138874706 -457457171 817444019 -1906746637 765859861 2039351391 822525457 -1786000758 -1840585150 -1709575544 2005402678 -1003891024 -2028458201 -510279935 -861280610 -215502211 573926097 667969471 -1551479998 481892406 -1368123895 -736218294 -1731548621 1468075411
REM
CELL 1.54180   15.00000   15.00000   15.00000   90.00000   90.00000   90.00000
LATT -1
SFAC C  
C      1  0.4556500000000  0.3420240000000  0.5211850000000 1.0
C      1  0.5560910000000  0.3454270000000  0.4697100000000 1.0
C      1  0.6371340000000  0.4082200000000  0.5276110000000 1.0
C      1  0.6643460000000  0.5042740000000  0.4749530000000 1.0
C      1  0.6287930000000  0.6013150000000  0.5310430000000 1.0
C      1  0.5443640000000  0.6579480000000  0.4788290000000 1.0
C      1  0.4439700000000  0.6545450000000  0.5303010000000 1.0
C      1  0.3627750000000  0.5918680000000  0.4724970000000 1.0
C      1  0.3357480000000  0.4957480000000  0.5250220000000 1.0
C      1  0.3710730000000  0.3987370000000  0.4689880000000 1.0
C      1  0.6875510000000  0.5929130000000  0.3601500000000 1.0
C      1  0.5958660000000  0.6859150000000  0.6359510000000 1.0
C      1  0.4660320000000  0.7012990000000  0.3643100000000 1.0
C      1  0.3547010000000  0.6488740000000  0.6361130000000 1.0
C      1  0.2935170000000  0.5298380000000  0.3617860000000 1.0
C      1  0.3124760000000  0.4070030000000  0.6399200000000 1.0
C      1  0.4041630000000  0.3141340000000  0.3641280000000 1.0
C      1  0.5339720000000  0.2986850000000  0.6357430000000 1.0
C      1  0.6453010000000  0.3511080000000  0.3639040000000 1.0
C      1  0.7064110000000  0.4701300000000  0.6380700000000 1.0
C      1  0.5769630000000  0.2904920000000  0.3866260000000 1.0
C      1  0.6868410000000  0.3811720000000  0.6113510000000 1.0
C      1  0.7198270000000  0.5092420000000  0.3910540000000 1.0
C      1  0.6749670000000  0.6406520000000  0.6123540000000 1.0
C      1  0.5536970000000  0.7088860000000  0.3949190000000 1.0
C      1  0.4230640000000  0.7095130000000  0.6133560000000 1.0
C      1  0.3131600000000  0.6187500000000  0.3886150000000 1.0
C      1  0.2802790000000  0.4907430000000  0.6089120000000 1.0
C      1  0.3250000000000  0.3593830000000  0.3876260000000 1.0
C      1  0.4462700000000  0.2912900000000  0.6051190000000 1.0
C      1  0.3089470000000  0.5772050000000  0.6335720000000 1.0
C      1  0.2964930000000  0.4450520000000  0.3618020000000 1.0
C      1  0.3598150000000  0.3289850000000  0.6536330000000 1.0
C      1  0.4858030000000  0.2912870000000  0.3633070000000 1.0
C      1  0.6142250000000  0.3272730000000  0.6370940000000 1.0
C      1  0.6911560000000  0.4227600000000  0.3663620000000 1.0
C      1  0.7034870000000  0.5549240000000  0.6381560000000 1.0
C      1  0.6401580000000  0.6710620000000  0.3463290000000 1.0
C      1  0.5142280000000  0.7086900000000  0.6367180000000 1.0
C      1  0.3858060000000  0.6726390000000  0.3629240000000 1.0
C      1  0.5281660000000  0.4269630000000  0.4180310000000 1.0
C      1  0.5661920000000  0.4541790000000  0.5790010000000 1.0
C      1  0.5804410000000  0.5038070000000  0.4225740000000 1.0
C      1  0.5618720000000  0.5473140000000  0.5827920000000 1.0
C      1  0.5225610000000  0.5786570000000  0.4228670000000 1.0
C      1  0.4718300000000  0.5729800000000  0.5819810000000 1.0
C      1  0.4337440000000  0.5458200000000  0.4210440000000 1.0
C      1  0.4195900000000  0.4961780000000  0.5774250000000 1.0
C      1  0.4380670000000  0.4526830000000  0.4172290000000 1.0
C      1  0.4774150000000  0.4214170000000  0.5770350000000 1.0
C      1  0.5601570000000  0.4601350000000  0.2366690000000 1.0
C      1  0.5719900000000  0.5029370000000  0.7635110000000 1.0
C      1  0.5566190000000  0.5448520000000  0.2369110000000 1.0
C      1  0.5193370000000  0.5694080000000  0.7635790000000 1.0
C      1  0.4749600000000  0.5676770000000  0.2367690000000 1.0
C      1  0.4398440000000  0.5398640000000  0.7633300000000 1.0
C      1  0.4280110000000  0.4970620000000  0.2364830000000 1.0
C      1  0.4433810000000  0.4551470000000  0.7630820000000 1.0
C      1  0.4806640000000  0.4305910000000  0.2364200000000 1.0
C      1  0.5250410000000  0.4323220000000  0.7632210000000 1.0
END
