TITL C-1525613-7943-5441 0.0104449550489213 3375 -8752.94572775299 0 0 60 (D5h) n - 1
REM
REM in /home/nfs/bkarasulu/CARBON/AIRSS/Generating-Clusters/ReaxFF-fromJPCA2015/Units_Real/Try2-Higher-symm/Only-C60
REM
REM
REM
REM
REM
REM ./C.cell (863b2abdce7293c0672fb3ba77bf323a)
REM AIRSS Version 0.9.1 bugfix July 2018 build 013d7b7c2542+ Fri, 06 Jul 2018 19:26:36 +0100
REM compiler GCC version 9.2.1 20190827 (Red Hat 9.2.1-1)
REM options -cpp -mtune=generic -march=x86-64 -g -O0 -fpre-include=/usr/include/finclude/math-vector-fortran.h
REM seed 356528318 -270466225 -839267290 -1779627963 -684915845 -381097267 -1959694364 264636008 -39214683 1298969142 116866263 -2058429801 -10924385 610877729 -581161465 -715054140 -1799948960 1275207494 -1648910286 295058273 -1990550592 -53422323 -1577856936 1929267698 -1599193327 -387502482 1155460487 -783069302 -1892007088 -1310571956 1684403583 854063300 2087571475
REM
CELL 1.54180   15.00000   15.00000   15.00000   90.00000   90.00000   90.00000
LATT -1
SFAC C  
C      1  0.3684540000000  0.5958190000000  0.6539230000000 1.0
C      1  0.5506380000000  0.6546980000000  0.6541650000000 1.0
C      1  0.6629440000000  0.4995860000000  0.6540320000000 1.0
C      1  0.5500460000000  0.3451700000000  0.6540100000000 1.0
C      1  0.3678660000000  0.4045000000000  0.6543400000000 1.0
C      1  0.6315460000000  0.5958190000000  0.6539230000000 1.0
C      1  0.4493620000000  0.6546980000000  0.6541650000000 1.0
C      1  0.3370560000000  0.4995860000000  0.6540320000000 1.0
C      1  0.4499540000000  0.3451700000000  0.6540100000000 1.0
C      1  0.6321340000000  0.4045000000000  0.6543400000000 1.0
C      1  0.7363640000000  0.5260340000000  0.5936030000000 1.0
C      1  0.5978140000000  0.2834070000000  0.5938240000000 1.0
C      1  0.3239630000000  0.3398450000000  0.5939550000000 1.0
C      1  0.2935890000000  0.6177020000000  0.5935950000000 1.0
C      1  0.5482220000000  0.7328780000000  0.5939990000000 1.0
C      1  0.2636360000000  0.5260340000000  0.5936030000000 1.0
C      1  0.4021860000000  0.2834070000000  0.5938240000000 1.0
C      1  0.6760370000000  0.3398450000000  0.5939550000000 1.0
C      1  0.7064110000000  0.6177020000000  0.5935950000000 1.0
C      1  0.4517780000000  0.7328780000000  0.5939990000000 1.0
C      1  0.4446960000000  0.2656680000000  0.5000410000000 1.0
C      1  0.2610720000000  0.4804830000000  0.4998500000000 1.0
C      1  0.4074650000000  0.7217790000000  0.5000610000000 1.0
C      1  0.6821930000000  0.6568030000000  0.4999240000000 1.0
C      1  0.7047710000000  0.3751780000000  0.5000990000000 1.0
C      1  0.5553040000000  0.2656680000000  0.5000410000000 1.0
C      1  0.7389280000000  0.4804830000000  0.4998500000000 1.0
C      1  0.5925350000000  0.7217790000000  0.5000610000000 1.0
C      1  0.3178070000000  0.6568030000000  0.4999240000000 1.0
C      1  0.2952290000000  0.3751780000000  0.5000990000000 1.0
C      1  0.2935570000000  0.6177880000000  0.4062390000000 1.0
C      1  0.5482160000000  0.7328990000000  0.4061180000000 1.0
C      1  0.7364290000000  0.5260890000000  0.4061220000000 1.0
C      1  0.5977650000000  0.2835210000000  0.4063070000000 1.0
C      1  0.3240140000000  0.3399650000000  0.4062220000000 1.0
C      1  0.7064430000000  0.6177880000000  0.4062390000000 1.0
C      1  0.4517840000000  0.7328990000000  0.4061180000000 1.0
C      1  0.2635710000000  0.5260890000000  0.4061220000000 1.0
C      1  0.4022350000000  0.2835210000000  0.4063070000000 1.0
C      1  0.6759860000000  0.3399650000000  0.4062220000000 1.0
C      1  0.5500490000000  0.3452910000000  0.3460870000000 1.0
C      1  0.3678930000000  0.4046350000000  0.3458730000000 1.0
C      1  0.3684460000000  0.5959570000000  0.3459190000000 1.0
C      1  0.5506270000000  0.6547990000000  0.3458690000000 1.0
C      1  0.6630160000000  0.4996830000000  0.3456790000000 1.0
C      1  0.4499510000000  0.3452910000000  0.3460870000000 1.0
C      1  0.6321070000000  0.4046350000000  0.3458730000000 1.0
C      1  0.6315540000000  0.5959570000000  0.3459190000000 1.0
C      1  0.4493730000000  0.6547990000000  0.3458690000000 1.0
C      1  0.3369840000000  0.4996830000000  0.3456790000000 1.0
C      1  0.3878000000000  0.5829640000000  0.4998480000000 1.0
C      1  0.5433340000000  0.6329560000000  0.5001360000000 1.0
C      1  0.6383410000000  0.4999170000000  0.4996550000000 1.0
C      1  0.5422340000000  0.3658980000000  0.5001530000000 1.0
C      1  0.3882260000000  0.4180860000000  0.5003510000000 1.0
C      1  0.6122000000000  0.5829640000000  0.4998480000000 1.0
C      1  0.4566660000000  0.6329560000000  0.5001360000000 1.0
C      1  0.3616590000000  0.4999170000000  0.4996550000000 1.0
C      1  0.4577660000000  0.3658980000000  0.5001530000000 1.0
C      1  0.6117740000000  0.4180860000000  0.5003510000000 1.0
END
