TITL C-1525613-7943-4816 0.0953641268951144 3375 -9371.70079390625 0 0 60 (C1) n - 1
REM
REM in /home/nfs/bkarasulu/CARBON/AIRSS/Generating-Clusters/ReaxFF-fromJPCA2015/Units_Real/Try2-Higher-symm/Only-C60
REM
REM
REM
REM
REM
REM ./C.cell (863b2abdce7293c0672fb3ba77bf323a)
REM AIRSS Version 0.9.1 bugfix July 2018 build 013d7b7c2542+ Fri, 06 Jul 2018 19:26:36 +0100
REM compiler GCC version 9.2.1 20190827 (Red Hat 9.2.1-1)
REM options -cpp -mtune=generic -march=x86-64 -g -O0 -fpre-include=/usr/include/finclude/math-vector-fortran.h
REM seed 1648071047 265147290 -2123248318 1428270883 1378855095 -1504901245 -1442090570 -988329909 -1003376891 161511206 1767486608 573042502 210506085 -238644397 2126152832 426536281 -714164663 1843749929 -1465151245 1614876208 -2034955070 396342631 -2041510107 -1796399951 1672799885 -578283550 1480070169 -1663810629 473953843 1610148141 1405718122 1227359980 407173666
REM
CELL 1.54180   15.00000   15.00000   15.00000   90.00000   90.00000   90.00000
LATT -1
SFAC C  
C      1  0.7703540000000  0.5211250000000  0.4312260000000 1.0
C      1  0.6721100000000  0.5382050000000  0.3071280000000 1.0
C      1  0.5181440000000  0.5165410000000  0.2593550000000 1.0
C      1  0.3686460000000  0.5296650000000  0.2845990000000 1.0
C      1  0.2779460000000  0.5168490000000  0.4170670000000 1.0
C      1  0.2481850000000  0.5357080000000  0.5649030000000 1.0
C      1  0.3410840000000  0.5349060000000  0.7001060000000 1.0
C      1  0.4785600000000  0.4984320000000  0.7538490000000 1.0
C      1  0.6230920000000  0.5320170000000  0.7149600000000 1.0
C      1  0.7155090000000  0.5179420000000  0.5767290000000 1.0
C      1  0.6894420000000  0.6018770000000  0.5335810000000 1.0
C      1  0.7179980000000  0.5960980000000  0.4439150000000 1.0
C      1  0.6632070000000  0.6113070000000  0.3697390000000 1.0
C      1  0.4957330000000  0.6090920000000  0.2770920000000 1.0
C      1  0.4044900000000  0.6144420000000  0.2954090000000 1.0
C      1  0.2876690000000  0.6075990000000  0.4411600000000 1.0
C      1  0.2689920000000  0.6213050000000  0.5315880000000 1.0
C      1  0.3974540000000  0.6107890000000  0.6834360000000 1.0
C      1  0.4815010000000  0.5845800000000  0.7181810000000 1.0
C      1  0.5711710000000  0.6130020000000  0.6961340000000 1.0
C      1  0.7146080000000  0.3825930000000  0.4657480000000 1.0
C      1  0.7039940000000  0.3968900000000  0.3688330000000 1.0
C      1  0.6197580000000  0.3885440000000  0.3206770000000 1.0
C      1  0.4109890000000  0.3768820000000  0.2673370000000 1.0
C      1  0.3292870000000  0.3818900000000  0.3229220000000 1.0
C      1  0.2867200000000  0.3848620000000  0.5342920000000 1.0
C      1  0.2981020000000  0.4045610000000  0.6284770000000 1.0
C      1  0.3761460000000  0.3806100000000  0.6809340000000 1.0
C      1  0.5913720000000  0.3737230000000  0.7351680000000 1.0
C      1  0.6699910000000  0.3848140000000  0.6762520000000 1.0
C      1  0.4524960000000  0.3191400000000  0.3355480000000 1.0
C      1  0.3713000000000  0.3220670000000  0.3888150000000 1.0
C      1  0.3508760000000  0.3234770000000  0.4887900000000 1.0
C      1  0.4080800000000  0.3164660000000  0.5593500000000 1.0
C      1  0.4480100000000  0.3234170000000  0.6405380000000 1.0
C      1  0.5477030000000  0.3194650000000  0.6647630000000 1.0
C      1  0.6281980000000  0.3236280000000  0.6109550000000 1.0
C      1  0.6491050000000  0.3224780000000  0.5107540000000 1.0
C      1  0.5918000000000  0.3165640000000  0.4400880000000 1.0
C      1  0.5517630000000  0.3254610000000  0.3591640000000 1.0
C      1  0.4020330000000  0.6860690000000  0.6183300000000 1.0
C      1  0.4936570000000  0.7007060000000  0.6209520000000 1.0
C      1  0.5821280000000  0.6928500000000  0.6383800000000 1.0
C      1  0.6511610000000  0.6894870000000  0.5602260000000 1.0
C      1  0.6237430000000  0.7082380000000  0.4756520000000 1.0
C      1  0.6035100000000  0.6882450000000  0.3857780000000 1.0
C      1  0.5143630000000  0.6771240000000  0.3443410000000 1.0
C      1  0.4186100000000  0.6795120000000  0.3658300000000 1.0
C      1  0.3611420000000  0.6688400000000  0.4427560000000 1.0
C      1  0.3431110000000  0.6849610000000  0.5374460000000 1.0
C      1  0.4350950000000  0.4704520000000  0.2506500000000 1.0
C      1  0.3093340000000  0.4774510000000  0.3372240000000 1.0
C      1  0.2537350000000  0.4693870000000  0.4970290000000 1.0
C      1  0.2737230000000  0.4968420000000  0.6446410000000 1.0
C      1  0.3946360000000  0.4611730000000  0.7322810000000 1.0
C      1  0.5662710000000  0.4659290000000  0.7562660000000 1.0
C      1  0.6844900000000  0.4818000000000  0.6601330000000 1.0
C      1  0.7536530000000  0.4624900000000  0.5064390000000 1.0
C      1  0.7416780000000  0.4833190000000  0.3466700000000 1.0
C      1  0.6023430000000  0.4761190000000  0.2794140000000 1.0
END
