TITL C-1525613-7943-349 -0.000931355805741354 3375 -9430.03585018428 0 0 60 (C2) n - 1
REM
REM in /home/nfs/bkarasulu/CARBON/AIRSS/Generating-Clusters/ReaxFF-fromJPCA2015/Units_Real/Try2-Higher-symm/Only-C60
REM
REM
REM
REM
REM
REM ./C.cell (863b2abdce7293c0672fb3ba77bf323a)
REM AIRSS Version 0.9.1 bugfix July 2018 build 013d7b7c2542+ Fri, 06 Jul 2018 19:26:36 +0100
REM compiler GCC version 9.2.1 20190827 (Red Hat 9.2.1-1)
REM options -cpp -mtune=generic -march=x86-64 -g -O0 -fpre-include=/usr/include/finclude/math-vector-fortran.h
REM seed -746428166 -256373966 -1452512250 1081080291 234996659 1305523798 1095587474 363160821 371193523 1954306715 -1950535299 2072600040 -1111185894 1551084899 -721082812 64026838 -2066029315 -1415718626 -1334437421 -2063970485 -889218754 1996158746 50729212 -247762064 1199571918 -865033301 -1187239889 -1507157405 -1126014056 -1539288914 -98072911 -2125253703 204708673
REM
CELL 1.54180   15.00000   15.00000   15.00000   90.00000   90.00000   90.00000
LATT -1
SFAC C  
C      1  0.6956110000000  0.5588880000000  0.6094050000000 1.0
C      1  0.5832730000000  0.7251440000000  0.6177830000000 1.0
C      1  0.4837340000000  0.7391990000000  0.6157950000000 1.0
C      1  0.3319010000000  0.6081070000000  0.5974550000000 1.0
C      1  0.2765710000000  0.5297580000000  0.5802870000000 1.0
C      1  0.3040040000000  0.4410410000000  0.6102130000000 1.0
C      1  0.4164340000000  0.2750370000000  0.6177540000000 1.0
C      1  0.5159070000000  0.2607230000000  0.6157700000000 1.0
C      1  0.6677090000000  0.3918070000000  0.5970760000000 1.0
C      1  0.7229400000000  0.4701480000000  0.5793300000000 1.0
C      1  0.2939570000000  0.3675910000000  0.5466990000000 1.0
C      1  0.3558800000000  0.2936210000000  0.5431330000000 1.0
C      1  0.5751270000000  0.2622430000000  0.5376530000000 1.0
C      1  0.6538090000000  0.3196610000000  0.5327280000000 1.0
C      1  0.7910300000000  0.4701030000000  0.5093750000000 1.0
C      1  0.7065630000000  0.6332680000000  0.5468670000000 1.0
C      1  0.6441350000000  0.7071600000000  0.5431820000000 1.0
C      1  0.4245210000000  0.7374910000000  0.5376700000000 1.0
C      1  0.3459600000000  0.6799190000000  0.5327330000000 1.0
C      1  0.2088050000000  0.5289890000000  0.5097700000000 1.0
C      1  0.3967070000000  0.5155980000000  0.6860580000000 1.0
C      1  0.3737910000000  0.4281180000000  0.6808340000000 1.0
C      1  0.4290340000000  0.3424400000000  0.6880830000000 1.0
C      1  0.5254000000000  0.3282560000000  0.6863540000000 1.0
C      1  0.6011460000000  0.3955420000000  0.6729370000000 1.0
C      1  0.6029700000000  0.4842910000000  0.6855700000000 1.0
C      1  0.6258540000000  0.5717180000000  0.6801200000000 1.0
C      1  0.5707610000000  0.6574810000000  0.6878960000000 1.0
C      1  0.4743870000000  0.6716110000000  0.6863430000000 1.0
C      1  0.3985900000000  0.6043430000000  0.6732500000000 1.0
C      1  0.5454400000000  0.2397620000000  0.4473100000000 1.0
C      1  0.6820060000000  0.3210220000000  0.4387600000000 1.0
C      1  0.7819850000000  0.4481990000000  0.4194320000000 1.0
C      1  0.7375000000000  0.6144430000000  0.4562000000000 1.0
C      1  0.6266070000000  0.7218330000000  0.4478150000000 1.0
C      1  0.4541850000000  0.7601550000000  0.4473590000000 1.0
C      1  0.3179150000000  0.6782940000000  0.4387220000000 1.0
C      1  0.2189930000000  0.5500940000000  0.4190830000000 1.0
C      1  0.2636350000000  0.3871140000000  0.4566400000000 1.0
C      1  0.3733410000000  0.2791690000000  0.4478990000000 1.0
C      1  0.3844540000000  0.4828710000000  0.3284810000000 1.0
C      1  0.3904340000000  0.3917340000000  0.3345870000000 1.0
C      1  0.4755550000000  0.3359680000000  0.3405910000000 1.0
C      1  0.5691240000000  0.3481950000000  0.3293670000000 1.0
C      1  0.6335220000000  0.4268650000000  0.3309180000000 1.0
C      1  0.6156750000000  0.5172120000000  0.3291480000000 1.0
C      1  0.6094240000000  0.6082840000000  0.3348100000000 1.0
C      1  0.5244230000000  0.6640920000000  0.3406890000000 1.0
C      1  0.4308610000000  0.6519800000000  0.3291660000000 1.0
C      1  0.3665130000000  0.5731900000000  0.3302150000000 1.0
C      1  0.6094450000000  0.2814350000000  0.3872480000000 1.0
C      1  0.7091860000000  0.3980360000000  0.3885500000000 1.0
C      1  0.7949600000000  0.5372190000000  0.4429350000000 1.0
C      1  0.6740990000000  0.6556300000000  0.3965880000000 1.0
C      1  0.5387540000000  0.7336570000000  0.4065420000000 1.0
C      1  0.3902910000000  0.7183520000000  0.3872640000000 1.0
C      1  0.2910060000000  0.6013620000000  0.3883380000000 1.0
C      1  0.2069980000000  0.4624270000000  0.4436980000000 1.0
C      1  0.3261680000000  0.3454890000000  0.3970360000000 1.0
C      1  0.4609930000000  0.2666200000000  0.4064900000000 1.0
END
