TITL C-1525613-7943-1792 0.134249736396305 3375 -8750.33855237025 0 0 60 (D5) n - 1
REM
REM in /home/nfs/bkarasulu/CARBON/AIRSS/Generating-Clusters/ReaxFF-fromJPCA2015/Units_Real/Try2-Higher-symm/Only-C60
REM
REM
REM
REM
REM
REM ./C.cell (863b2abdce7293c0672fb3ba77bf323a)
REM AIRSS Version 0.9.1 bugfix July 2018 build 013d7b7c2542+ Fri, 06 Jul 2018 19:26:36 +0100
REM compiler GCC version 9.2.1 20190827 (Red Hat 9.2.1-1)
REM options -cpp -mtune=generic -march=x86-64 -g -O0 -fpre-include=/usr/include/finclude/math-vector-fortran.h
REM seed -956600989 -1846334473 1268981116 1567874890 966738278 -208956413 -115841196 -635144886 -493087769 -1183385559 1738309313 -1570417455 1631411843 1330079444 -834913644 -1905846575 935914408 443238172 -583585210 1068980137 40017612 2023925677 1574594946 -710565886 752703917 758525401 -340641471 1021269659 1394868583 1112636606 1143725699 -62124790 -1383611730
REM
CELL 1.54180   15.00000   15.00000   15.00000   90.00000   90.00000   90.00000
LATT -1
SFAC C  
C      1  0.6979410000000  0.5973560000000  0.6076570000000 1.0
C      1  0.4587900000000  0.5971320000000  0.7216420000000 1.0
C      1  0.2768740000000  0.5972240000000  0.5294900000000 1.0
C      1  0.4030820000000  0.5971560000000  0.2965610000000 1.0
C      1  0.6635650000000  0.5970630000000  0.3451700000000 1.0
C      1  0.3020570000000  0.4026530000000  0.6076570000000 1.0
C      1  0.5412150000000  0.4028730000000  0.7216340000000 1.0
C      1  0.7231210000000  0.4027950000000  0.5294980000000 1.0
C      1  0.5969220000000  0.4028480000000  0.2965620000000 1.0
C      1  0.3364470000000  0.4029390000000  0.3451710000000 1.0
C      1  0.3962930000000  0.5240390000000  0.5755190000000 1.0
C      1  0.3967060000000  0.5258150000000  0.4242570000000 1.0
C      1  0.5398310000000  0.5250590000000  0.3781760000000 1.0
C      1  0.6277300000000  0.5250050000000  0.4997570000000 1.0
C      1  0.5391170000000  0.5256680000000  0.6219210000000 1.0
C      1  0.6037140000000  0.4759870000000  0.5755190000000 1.0
C      1  0.6032890000000  0.4741690000000  0.4242530000000 1.0
C      1  0.4601730000000  0.4749410000000  0.3781830000000 1.0
C      1  0.3722670000000  0.4749850000000  0.4997650000000 1.0
C      1  0.4608870000000  0.4743200000000  0.6219380000000 1.0
C      1  0.3861880000000  0.5062940000000  0.2632870000000 1.0
C      1  0.6900910000000  0.5062520000000  0.3188260000000 1.0
C      1  0.7310750000000  0.5066780000000  0.6242540000000 1.0
C      1  0.4527670000000  0.5060720000000  0.7578750000000 1.0
C      1  0.2398990000000  0.5063450000000  0.5347110000000 1.0
C      1  0.6138050000000  0.4937090000000  0.2632860000000 1.0
C      1  0.3099080000000  0.4937400000000  0.3188240000000 1.0
C      1  0.2689310000000  0.4933100000000  0.6242520000000 1.0
C      1  0.5472410000000  0.4939140000000  0.7578710000000 1.0
C      1  0.7601050000000  0.4936420000000  0.5347160000000 1.0
C      1  0.6133310000000  0.6391470000000  0.6318200000000 1.0
C      1  0.4105930000000  0.6382180000000  0.6479800000000 1.0
C      1  0.3306800000000  0.6391740000000  0.4602250000000 1.0
C      1  0.4856020000000  0.6388110000000  0.3271130000000 1.0
C      1  0.6603450000000  0.6390670000000  0.4329310000000 1.0
C      1  0.3866630000000  0.3608530000000  0.6318130000000 1.0
C      1  0.5893730000000  0.3617650000000  0.6479610000000 1.0
C      1  0.6693220000000  0.3608210000000  0.4602250000000 1.0
C      1  0.5144000000000  0.3611870000000  0.3271240000000 1.0
C      1  0.3396690000000  0.3609260000000  0.4329300000000 1.0
C      1  0.5591070000000  0.5854870000000  0.7025750000000 1.0
C      1  0.3270410000000  0.5852610000000  0.6185320000000 1.0
C      1  0.3331890000000  0.5852500000000  0.3710160000000 1.0
C      1  0.5711590000000  0.5850280000000  0.3017610000000 1.0
C      1  0.7102180000000  0.5849930000000  0.5061790000000 1.0
C      1  0.4409000000000  0.4145150000000  0.7025690000000 1.0
C      1  0.6729300000000  0.4147350000000  0.6185190000000 1.0
C      1  0.6668060000000  0.4147460000000  0.3710040000000 1.0
C      1  0.4288510000000  0.4149760000000  0.3017670000000 1.0
C      1  0.2897870000000  0.4150150000000  0.5061880000000 1.0
C      1  0.4442860000000  0.3221000000000  0.5630020000000 1.0
C      1  0.4229960000000  0.3222760000000  0.4667410000000 1.0
C      1  0.5081080000000  0.3224740000000  0.4166760000000 1.0
C      1  0.5820750000000  0.3223120000000  0.4819720000000 1.0
C      1  0.5425340000000  0.3218890000000  0.5723910000000 1.0
C      1  0.5556950000000  0.6779030000000  0.5629870000000 1.0
C      1  0.5770170000000  0.6777310000000  0.4667220000000 1.0
C      1  0.4919050000000  0.6775310000000  0.4166640000000 1.0
C      1  0.4179320000000  0.6776940000000  0.4819830000000 1.0
C      1  0.4574550000000  0.6781340000000  0.5724000000000 1.0
END
