TITL C-1525613-7943-2689 -0.285187498579757 3375 -9072.45168263829 0 0 60 (C5) n - 1
REM
REM in /home/nfs/bkarasulu/CARBON/AIRSS/Generating-Clusters/ReaxFF-fromJPCA2015/Units_Real/Try2-Higher-symm/Only-C60
REM
REM
REM
REM
REM
REM ./C.cell (863b2abdce7293c0672fb3ba77bf323a)
REM AIRSS Version 0.9.1 bugfix July 2018 build 013d7b7c2542+ Fri, 06 Jul 2018 19:26:36 +0100
REM compiler GCC version 9.2.1 20190827 (Red Hat 9.2.1-1)
REM options -cpp -mtune=generic -march=x86-64 -g -O0 -fpre-include=/usr/include/finclude/math-vector-fortran.h
REM seed 2070382362 280996469 -123493109 -1706362600 -56819159 -673568855 -456412757 -767481645 363626097 -517276419 2005588605 32705223 1230697217 413825776 734746608 -355190290 -139331795 261063426 1853772713 -2025432513 -870913980 1441955771 -1065658833 1130335789 919618820 -133970318 2122994344 1631369218 -1313829707 -910927948 -1164777926 1097373950 1125606427
REM
CELL 1.54180   15.00000   15.00000   15.00000   90.00000   90.00000   90.00000
LATT -1
SFAC C  
C      1  0.4270610000000  0.5398650000000  0.7321200000000 1.0
C      1  0.5154530000000  0.5817210000000  0.7320740000000 1.0
C      1  0.5824680000000  0.5105240000000  0.7320940000000 1.0
C      1  0.5354990000000  0.4248540000000  0.7321080000000 1.0
C      1  0.4394860000000  0.4430620000000  0.7321160000000 1.0
C      1  0.4270610000000  0.5398650000000  0.2678800000000 1.0
C      1  0.5154530000000  0.5817210000000  0.2679260000000 1.0
C      1  0.5824680000000  0.5105240000000  0.2679060000000 1.0
C      1  0.5354990000000  0.4248540000000  0.2678920000000 1.0
C      1  0.4394860000000  0.4430620000000  0.2678840000000 1.0
C      1  0.3342160000000  0.6308680000000  0.4021840000000 1.0
C      1  0.5732010000000  0.6981010000000  0.4020930000000 1.0
C      1  0.7109390000000  0.4916120000000  0.4021990000000 1.0
C      1  0.5572020000000  0.2967650000000  0.4021920000000 1.0
C      1  0.3243690000000  0.3827930000000  0.4021910000000 1.0
C      1  0.3342160000000  0.6308680000000  0.5978160000000 1.0
C      1  0.5732010000000  0.6981010000000  0.5979070000000 1.0
C      1  0.7109390000000  0.4916120000000  0.5978010000000 1.0
C      1  0.5572020000000  0.2967650000000  0.5978080000000 1.0
C      1  0.3243690000000  0.3827930000000  0.5978090000000 1.0
C      1  0.7201900000000  0.5781960000000  0.5487290000000 1.0
C      1  0.6424390000000  0.3147410000000  0.5487020000000 1.0
C      1  0.3678300000000  0.3072950000000  0.5486920000000 1.0
C      1  0.2758730000000  0.5661480000000  0.5486760000000 1.0
C      1  0.4936420000000  0.7335460000000  0.5487130000000 1.0
C      1  0.7201900000000  0.5781960000000  0.4512710000000 1.0
C      1  0.6424390000000  0.3147410000000  0.4512980000000 1.0
C      1  0.3678300000000  0.3072950000000  0.4513080000000 1.0
C      1  0.2758730000000  0.5661480000000  0.4513240000000 1.0
C      1  0.4936420000000  0.7335460000000  0.4512870000000 1.0
C      1  0.4240140000000  0.5292780000000  0.4280510000000 1.0
C      1  0.5044470000000  0.5813720000000  0.4278530000000 1.0
C      1  0.5786770000000  0.5210380000000  0.4279740000000 1.0
C      1  0.5442450000000  0.4315040000000  0.4282050000000 1.0
C      1  0.4486730000000  0.4366410000000  0.4279170000000 1.0
C      1  0.4240140000000  0.5292780000000  0.5719490000000 1.0
C      1  0.5044470000000  0.5813720000000  0.5721470000000 1.0
C      1  0.5786770000000  0.5210380000000  0.5720260000000 1.0
C      1  0.5442450000000  0.4315040000000  0.5717950000000 1.0
C      1  0.4486730000000  0.4366410000000  0.5720830000000 1.0
C      1  0.3974500000000  0.6916380000000  0.5468460000000 1.0
C      1  0.6505640000000  0.6567500000000  0.5468050000000 1.0
C      1  0.6956370000000  0.4052780000000  0.5468780000000 1.0
C      1  0.4703280000000  0.2846870000000  0.5468390000000 1.0
C      1  0.2860640000000  0.4616710000000  0.5468540000000 1.0
C      1  0.3974500000000  0.6916380000000  0.4531540000000 1.0
C      1  0.6505640000000  0.6567500000000  0.4531950000000 1.0
C      1  0.6956370000000  0.4052780000000  0.4531220000000 1.0
C      1  0.4703280000000  0.2846870000000  0.4531610000000 1.0
C      1  0.2860640000000  0.4616710000000  0.4531460000000 1.0
C      1  0.4043190000000  0.3966850000000  0.6525100000000 1.0
C      1  0.3720650000000  0.5591520000000  0.6527750000000 1.0
C      1  0.5167530000000  0.6398260000000  0.6523050000000 1.0
C      1  0.6382170000000  0.5273200000000  0.6525420000000 1.0
C      1  0.5686820000000  0.3770680000000  0.6524080000000 1.0
C      1  0.4043190000000  0.3966850000000  0.3474900000000 1.0
C      1  0.3720650000000  0.5591520000000  0.3472250000000 1.0
C      1  0.5167530000000  0.6398260000000  0.3476950000000 1.0
C      1  0.6382170000000  0.5273200000000  0.3474580000000 1.0
C      1  0.5686820000000  0.3770680000000  0.3475920000000 1.0
END
