TITL C-1525613-7943-3277 0.243792947922236 3375 -8874.70895610768 0 0 60 (C5) n - 1
REM
REM in /home/nfs/bkarasulu/CARBON/AIRSS/Generating-Clusters/ReaxFF-fromJPCA2015/Units_Real/Try2-Higher-symm/Only-C60
REM
REM
REM
REM
REM
REM ./C.cell (863b2abdce7293c0672fb3ba77bf323a)
REM AIRSS Version 0.9.1 bugfix July 2018 build 013d7b7c2542+ Fri, 06 Jul 2018 19:26:36 +0100
REM compiler GCC version 9.2.1 20190827 (Red Hat 9.2.1-1)
REM options -cpp -mtune=generic -march=x86-64 -g -O0 -fpre-include=/usr/include/finclude/math-vector-fortran.h
REM seed 1480949839 -311915874 -994726828 1493094895 -104580547 582221091 -238473491 1475131637 -378910685 -986237093 438331618 349292282 -1089568553 1402119705 -1185544988 -1190849432 1578252442 -1226011583 64960546 397342668 646015594 249049469 1396519346 1082736027 1973246291 -413749059 2071577419 -139756114 1565043481 -995000895 1922324649 346697559 -1112800350
REM
CELL 1.54180   15.00000   15.00000   15.00000   90.00000   90.00000   90.00000
LATT -1
SFAC C  
C      1  0.3808480000000  0.2510360000000  0.5582110000000 1.0
C      1  0.4081710000000  0.2507900000000  0.4043890000000 1.0
C      1  0.5620310000000  0.2503330000000  0.3822750000000 1.0
C      1  0.6305970000000  0.2511690000000  0.5226970000000 1.0
C      1  0.5185590000000  0.2505760000000  0.6315170000000 1.0
C      1  0.3808380000000  0.7487940000000  0.5580250000000 1.0
C      1  0.4072480000000  0.7495450000000  0.4049620000000 1.0
C      1  0.5619440000000  0.7488790000000  0.3829880000000 1.0
C      1  0.6308450000000  0.7491510000000  0.5227990000000 1.0
C      1  0.5186450000000  0.7481560000000  0.6309690000000 1.0
C      1  0.6749060000000  0.5485640000000  0.3854360000000 1.0
C      1  0.6642620000000  0.5495040000000  0.6310800000000 1.0
C      1  0.4271280000000  0.5480050000000  0.6963910000000 1.0
C      1  0.2916480000000  0.5492880000000  0.4896060000000 1.0
C      1  0.4444230000000  0.5494540000000  0.2983830000000 1.0
C      1  0.6749580000000  0.4503080000000  0.3850690000000 1.0
C      1  0.6629820000000  0.4511030000000  0.6311150000000 1.0
C      1  0.4263780000000  0.4527780000000  0.6943570000000 1.0
C      1  0.2906930000000  0.4510860000000  0.4910630000000 1.0
C      1  0.4449730000000  0.4512510000000  0.2980290000000 1.0
C      1  0.5905430000000  0.4089180000000  0.3604130000000 1.0
C      1  0.6612450000000  0.4096840000000  0.5454510000000 1.0
C      1  0.5071790000000  0.4104290000000  0.6662360000000 1.0
C      1  0.3447270000000  0.4093850000000  0.5604270000000 1.0
C      1  0.3958630000000  0.4094280000000  0.3683090000000 1.0
C      1  0.5930850000000  0.5903810000000  0.3605250000000 1.0
C      1  0.6606190000000  0.5908340000000  0.5433260000000 1.0
C      1  0.5075770000000  0.5902170000000  0.6678070000000 1.0
C      1  0.3433530000000  0.5910570000000  0.5561460000000 1.0
C      1  0.3950000000000  0.5913170000000  0.3705970000000 1.0
C      1  0.7090560000000  0.4526750000000  0.4763330000000 1.0
C      1  0.5885130000000  0.4530180000000  0.6897250000000 1.0
C      1  0.3469730000000  0.4514330000000  0.6435450000000 1.0
C      1  0.3169010000000  0.4524170000000  0.3970060000000 1.0
C      1  0.5396930000000  0.4528080000000  0.2946150000000 1.0
C      1  0.7074810000000  0.5473060000000  0.4743090000000 1.0
C      1  0.5881020000000  0.5475840000000  0.6917710000000 1.0
C      1  0.3446450000000  0.5492400000000  0.6437560000000 1.0
C      1  0.3165520000000  0.5471020000000  0.3986730000000 1.0
C      1  0.5416550000000  0.5473510000000  0.2940820000000 1.0
C      1  0.5770410000000  0.8019580000000  0.5794270000000 1.0
C      1  0.4481310000000  0.8016120000000  0.5980510000000 1.0
C      1  0.3907090000000  0.8026930000000  0.4813300000000 1.0
C      1  0.4840930000000  0.8020960000000  0.3905150000000 1.0
C      1  0.5993670000000  0.8022850000000  0.4512330000000 1.0
C      1  0.5771270000000  0.1978540000000  0.5793510000000 1.0
C      1  0.4481800000000  0.1976780000000  0.5977820000000 1.0
C      1  0.3908010000000  0.1980060000000  0.4808060000000 1.0
C      1  0.4843490000000  0.1970620000000  0.3902180000000 1.0
C      1  0.5995070000000  0.1978450000000  0.4509980000000 1.0
C      1  0.5894550000000  0.6513610000000  0.5209700000000 1.0
C      1  0.5079140000000  0.6509740000000  0.5910410000000 1.0
C      1  0.4149130000000  0.6512860000000  0.5336820000000 1.0
C      1  0.4390690000000  0.6518380000000  0.4311320000000 1.0
C      1  0.5480530000000  0.6515580000000  0.4220470000000 1.0
C      1  0.5891190000000  0.3483880000000  0.5210500000000 1.0
C      1  0.5072660000000  0.3482980000000  0.5913190000000 1.0
C      1  0.4157880000000  0.3484890000000  0.5362530000000 1.0
C      1  0.4411060000000  0.3483670000000  0.4296350000000 1.0
C      1  0.5471750000000  0.3479990000000  0.4207450000000 1.0
END
