TITL C-1525613-7943-5668 0.0324060248544839 3375 -8694.47008996555 0 0 60 (C1) n - 1
REM
REM in /home/nfs/bkarasulu/CARBON/AIRSS/Generating-Clusters/ReaxFF-fromJPCA2015/Units_Real/Try2-Higher-symm/Only-C60
REM
REM
REM
REM
REM
REM ./C.cell (863b2abdce7293c0672fb3ba77bf323a)
REM AIRSS Version 0.9.1 bugfix July 2018 build 013d7b7c2542+ Fri, 06 Jul 2018 19:26:36 +0100
REM compiler GCC version 9.2.1 20190827 (Red Hat 9.2.1-1)
REM options -cpp -mtune=generic -march=x86-64 -g -O0 -fpre-include=/usr/include/finclude/math-vector-fortran.h
REM seed -583723328 -210145727 -1501367594 1878751281 -1209414946 -128317801 -675818577 1411387296 -1320806632 -204385447 1732300950 1112679683 -1120852560 -870252822 -515697226 1068951171 -501485235 -650118949 -1689154141 1757039987 964428704 659874024 -2095893950 -1241364637 1181464358 -1541147362 908634367 1912103529 -1019058058 1490531629 -641864013 -2136320655 420737454
REM
CELL 1.54180   15.00000   15.00000   15.00000   90.00000   90.00000   90.00000
LATT -1
SFAC C  
C      1  0.4032920000000  0.3579120000000  0.2830470000000 1.0
C      1  0.2634160000000  0.3573200000000  0.5249400000000 1.0
C      1  0.4506300000000  0.3575270000000  0.7324470000000 1.0
C      1  0.7058580000000  0.3578460000000  0.6187220000000 1.0
C      1  0.6766950000000  0.3576000000000  0.3408440000000 1.0
C      1  0.5966970000000  0.3580040000000  0.2830550000000 1.0
C      1  0.7365520000000  0.3575430000000  0.5249330000000 1.0
C      1  0.5493180000000  0.3576360000000  0.7324180000000 1.0
C      1  0.2940880000000  0.3576140000000  0.6187370000000 1.0
C      1  0.3233180000000  0.3575270000000  0.3408690000000 1.0
C      1  0.7558250000000  0.4144310000000  0.3648610000000 1.0
C      1  0.4504710000000  0.4146720000000  0.2150700000000 1.0
C      1  0.2134800000000  0.4141500000000  0.4590230000000 1.0
C      1  0.3724820000000  0.4142850000000  0.7596330000000 1.0
C      1  0.7075010000000  0.4146800000000  0.7014090000000 1.0
C      1  0.2441330000000  0.4142900000000  0.3648790000000 1.0
C      1  0.5494810000000  0.4147180000000  0.2150590000000 1.0
C      1  0.7864450000000  0.4144130000000  0.4590150000000 1.0
C      1  0.6273820000000  0.4145280000000  0.7595770000000 1.0
C      1  0.2923530000000  0.4143720000000  0.7014760000000 1.0
C      1  0.6588620000000  0.6352550000000  0.3638970000000 1.0
C      1  0.4207670000000  0.6371430000000  0.3060430000000 1.0
C      1  0.2910720000000  0.6349330000000  0.5170480000000 1.0
C      1  0.4514090000000  0.6358320000000  0.7035800000000 1.0
C      1  0.6778740000000  0.6356760000000  0.6092620000000 1.0
C      1  0.3418400000000  0.6355720000000  0.3639070000000 1.0
C      1  0.5801310000000  0.6364030000000  0.3062010000000 1.0
C      1  0.7083020000000  0.6349300000000  0.5164040000000 1.0
C      1  0.5488120000000  0.6357830000000  0.7032280000000 1.0
C      1  0.3217170000000  0.6359100000000  0.6097310000000 1.0
C      1  0.3766840000000  0.3166460000000  0.4107190000000 1.0
C      1  0.3770120000000  0.3168340000000  0.5894840000000 1.0
C      1  0.5471820000000  0.3168110000000  0.6445210000000 1.0
C      1  0.6523370000000  0.3166280000000  0.4997820000000 1.0
C      1  0.5468510000000  0.3171350000000  0.3554450000000 1.0
C      1  0.6233540000000  0.3166850000000  0.4106980000000 1.0
C      1  0.6229840000000  0.3169570000000  0.5894670000000 1.0
C      1  0.4528100000000  0.3167010000000  0.6445490000000 1.0
C      1  0.3476800000000  0.3165020000000  0.4997940000000 1.0
C      1  0.4531640000000  0.3170580000000  0.3554350000000 1.0
C      1  0.6244090000000  0.5567910000000  0.5907930000000 1.0
C      1  0.6234190000000  0.5532020000000  0.4084020000000 1.0
C      1  0.4546760000000  0.5557200000000  0.3520860000000 1.0
C      1  0.3458330000000  0.5525560000000  0.5017090000000 1.0
C      1  0.4511260000000  0.5543960000000  0.6466230000000 1.0
C      1  0.3748110000000  0.5568340000000  0.5917790000000 1.0
C      1  0.3760870000000  0.5537470000000  0.4094960000000 1.0
C      1  0.5477180000000  0.5568800000000  0.3520800000000 1.0
C      1  0.6531170000000  0.5529520000000  0.5009390000000 1.0
C      1  0.5485620000000  0.5544670000000  0.6461390000000 1.0
C      1  0.6284300000000  0.7198680000000  0.4067180000000 1.0
C      1  0.4515860000000  0.7219240000000  0.3492620000000 1.0
C      1  0.3411730000000  0.7194130000000  0.5003030000000 1.0
C      1  0.4505750000000  0.7210440000000  0.6506700000000 1.0
C      1  0.6279380000000  0.7206760000000  0.5929800000000 1.0
C      1  0.3714740000000  0.7206440000000  0.4074390000000 1.0
C      1  0.5489940000000  0.7210690000000  0.3495240000000 1.0
C      1  0.6587120000000  0.7195510000000  0.4999390000000 1.0
C      1  0.5493310000000  0.7210730000000  0.6504050000000 1.0
C      1  0.3717700000000  0.7207310000000  0.5935100000000 1.0
END
