TITL C-1525613-7943-1834 0.588763156960577 3375 -8253.54615626765 0 0 60 (C1) n - 1
REM
REM in /home/nfs/bkarasulu/CARBON/AIRSS/Generating-Clusters/ReaxFF-fromJPCA2015/Units_Real/Try2-Higher-symm/Only-C60
REM
REM
REM
REM
REM
REM ./C.cell (863b2abdce7293c0672fb3ba77bf323a)
REM AIRSS Version 0.9.1 bugfix July 2018 build 013d7b7c2542+ Fri, 06 Jul 2018 19:26:36 +0100
REM compiler GCC version 9.2.1 20190827 (Red Hat 9.2.1-1)
REM options -cpp -mtune=generic -march=x86-64 -g -O0 -fpre-include=/usr/include/finclude/math-vector-fortran.h
REM seed -1429267882 -1498058474 437658403 -1682591451 1319451062 1176132446 257439845 585182265 1169396423 -1403362248 959007374 1837674125 -290385789 -18520753 505693332 1762480194 -1089294453 -1085974873 -1855896189 -1310194365 1375378104 -1943150899 1394846581 319416962 690567238 -1817139700 -1487622579 727643089 -1350801784 67827151 -73994988 -1267447996 822550792
REM
CELL 1.54180   15.00000   15.00000   15.00000   90.00000   90.00000   90.00000
LATT -1
SFAC C  
C      1  0.4058780000000  0.7383000000000  0.3711460000000 1.0
C      1  0.5932450000000  0.7385200000000  0.3707240000000 1.0
C      1  0.6515850000000  0.7388510000000  0.5483900000000 1.0
C      1  0.5005320000000  0.7380400000000  0.6591480000000 1.0
C      1  0.3485430000000  0.7382660000000  0.5495930000000 1.0
C      1  0.4073130000000  0.7383100000000  0.6291080000000 1.0
C      1  0.5941020000000  0.7383240000000  0.6286830000000 1.0
C      1  0.6515060000000  0.7383910000000  0.4501790000000 1.0
C      1  0.4996850000000  0.7383490000000  0.3406260000000 1.0
C      1  0.3483840000000  0.7385710000000  0.4511390000000 1.0
C      1  0.4750780000000  0.3539400000000  0.2688560000000 1.0
C      1  0.7142880000000  0.3565150000000  0.4044080000000 1.0
C      1  0.6552970000000  0.3563020000000  0.6738500000000 1.0
C      1  0.3836570000000  0.3581260000000  0.6967250000000 1.0
C      1  0.2753320000000  0.3579420000000  0.4516330000000 1.0
C      1  0.4749620000000  0.3539940000000  0.7308210000000 1.0
C      1  0.7142680000000  0.3564830000000  0.5957780000000 1.0
C      1  0.6554000000000  0.3562840000000  0.3262360000000 1.0
C      1  0.3838580000000  0.3583670000000  0.3033520000000 1.0
C      1  0.2754250000000  0.3578120000000  0.5489380000000 1.0
C      1  0.4084650000000  0.6409580000000  0.3730630000000 1.0
C      1  0.5924110000000  0.6412390000000  0.3738510000000 1.0
C      1  0.6482400000000  0.6413510000000  0.5488020000000 1.0
C      1  0.4997090000000  0.6409480000000  0.6566640000000 1.0
C      1  0.3504800000000  0.6407500000000  0.5480510000000 1.0
C      1  0.4074810000000  0.6408830000000  0.6268490000000 1.0
C      1  0.5918290000000  0.6410440000000  0.6269170000000 1.0
C      1  0.6486070000000  0.6412110000000  0.4524440000000 1.0
C      1  0.5006890000000  0.6410800000000  0.3434150000000 1.0
C      1  0.3509820000000  0.6408300000000  0.4511350000000 1.0
C      1  0.6528750000000  0.2937530000000  0.5488510000000 1.0
C      1  0.5005080000000  0.2934120000000  0.6561800000000 1.0
C      1  0.3536130000000  0.2997580000000  0.5469710000000 1.0
C      1  0.4096250000000  0.2994950000000  0.3781230000000 1.0
C      1  0.5938180000000  0.2933130000000  0.3723160000000 1.0
C      1  0.6528800000000  0.2938170000000  0.4513000000000 1.0
C      1  0.5006100000000  0.2935010000000  0.3437220000000 1.0
C      1  0.3535260000000  0.2996880000000  0.4532040000000 1.0
C      1  0.4099820000000  0.3004760000000  0.6212720000000 1.0
C      1  0.5935290000000  0.2937060000000  0.6275010000000 1.0
C      1  0.5388310000000  0.5239220000000  0.2127310000000 1.0
C      1  0.7844920000000  0.5260120000000  0.4501460000000 1.0
C      1  0.6336140000000  0.5258190000000  0.7556930000000 1.0
C      1  0.2957840000000  0.5279000000000  0.7085890000000 1.0
C      1  0.2365820000000  0.5255340000000  0.3716000000000 1.0
C      1  0.5390050000000  0.5240340000000  0.7871460000000 1.0
C      1  0.7844330000000  0.5259680000000  0.5499850000000 1.0
C      1  0.6332610000000  0.5258730000000  0.2446160000000 1.0
C      1  0.2956660000000  0.5281180000000  0.2913600000000 1.0
C      1  0.2363180000000  0.5254720000000  0.6286320000000 1.0
C      1  0.7236820000000  0.4415520000000  0.4525980000000 1.0
C      1  0.6130090000000  0.4416570000000  0.6976670000000 1.0
C      1  0.3461420000000  0.4449060000000  0.6703460000000 1.0
C      1  0.2902710000000  0.4427450000000  0.4051250000000 1.0
C      1  0.5234360000000  0.4390660000000  0.2714460000000 1.0
C      1  0.7237870000000  0.4413950000000  0.5474100000000 1.0
C      1  0.6127910000000  0.4415140000000  0.3023150000000 1.0
C      1  0.3466560000000  0.4454470000000  0.3295730000000 1.0
C      1  0.2903070000000  0.4432690000000  0.5943210000000 1.0
C      1  0.5237410000000  0.4388940000000  0.7287380000000 1.0
END
