TITL C-1525613-7943-7277 -6.84766701495654e-05 3375 -9891.2232830484 0 0 60 (Ih) n - 1
REM
REM in /home/nfs/bkarasulu/CARBON/AIRSS/Generating-Clusters/ReaxFF-fromJPCA2015/Units_Real/Try2-Higher-symm/Only-C60
REM
REM
REM
REM
REM
REM ./C.cell (863b2abdce7293c0672fb3ba77bf323a)
REM AIRSS Version 0.9.1 bugfix July 2018 build 013d7b7c2542+ Fri, 06 Jul 2018 19:26:36 +0100
REM compiler GCC version 9.2.1 20190827 (Red Hat 9.2.1-1)
REM options -cpp -mtune=generic -march=x86-64 -g -O0 -fpre-include=/usr/include/finclude/math-vector-fortran.h
REM seed -1826568295 101842766 -48703805 980754794 231491268 637099578 -864211857 1737804863 -445706673 -1489254363 -1971450904 584002531 -1256892674 -1116884531 857755800 1751346335 1168655251 979458992 -639934316 2014080522 1032167133 -768606998 847318875 -693302249 1558055703 2005806967 635553698 -1928086187 -433690657 1034276196 1458952774 -1906719045 -186458628
REM
CELL 1.54180   15.00000   15.00000   15.00000   90.00000   90.00000   90.00000
LATT -1
SFAC C  
C      1  0.4175950000000  0.3597930000000  0.3275760000000 1.0
C      1  0.3509090000000  0.4349860000000  0.6724050000000 1.0
C      1  0.3411810000000  0.5350560000000  0.3275870000000 1.0
C      1  0.3921060000000  0.6216920000000  0.6724190000000 1.0
C      1  0.4842540000000  0.6618900000000  0.3275980000000 1.0
C      1  0.5824050000000  0.6402070000000  0.6724240000000 1.0
C      1  0.6490910000000  0.5650140000000  0.3275950000000 1.0
C      1  0.6588190000000  0.4649440000000  0.6724130000000 1.0
C      1  0.6078940000000  0.3783080000000  0.3275810000000 1.0
C      1  0.5157460000000  0.3381100000000  0.6724020000000 1.0
C      1  0.5697960000000  0.2771520000000  0.5405700000000 1.0
C      1  0.4254830000000  0.2786920000000  0.4593990000000 1.0
C      1  0.3096300000000  0.3647540000000  0.5405710000000 1.0
C      1  0.2664940000000  0.5024850000000  0.4594120000000 1.0
C      1  0.3125480000000  0.6392570000000  0.5405900000000 1.0
C      1  0.4302040000000  0.7228480000000  0.4594300000000 1.0
C      1  0.5745170000000  0.7213080000000  0.5406010000000 1.0
C      1  0.6903700000000  0.6352460000000  0.4594290000000 1.0
C      1  0.7335060000000  0.4975150000000  0.5405880000000 1.0
C      1  0.6874520000000  0.3607430000000  0.4594100000000 1.0
C      1  0.4253110000000  0.4674220000000  0.7225740000000 1.0
C      1  0.4204430000000  0.5175710000000  0.2774220000000 1.0
C      1  0.4459490000000  0.5609510000000  0.7225810000000 1.0
C      1  0.4921140000000  0.5811070000000  0.2774280000000 1.0
C      1  0.5412780000000  0.5702260000000  0.7225840000000 1.0
C      1  0.5746890000000  0.5325780000000  0.2774260000000 1.0
C      1  0.5795570000000  0.4824290000000  0.7225780000000 1.0
C      1  0.5540510000000  0.4390490000000  0.2774190000000 1.0
C      1  0.5078860000000  0.4188930000000  0.7225720000000 1.0
C      1  0.4587220000000  0.4297740000000  0.2774160000000 1.0
C      1  0.4410630000000  0.3055520000000  0.6220440000000 1.0
C      1  0.3380340000000  0.3773450000000  0.3779300000000 1.0
C      1  0.2968630000000  0.4959570000000  0.6220540000000 1.0
C      1  0.3332910000000  0.6161440000000  0.3779470000000 1.0
C      1  0.4333890000000  0.6919380000000  0.6220710000000 1.0
C      1  0.5589370000000  0.6944480000000  0.3779560000000 1.0
C      1  0.6619660000000  0.6226550000000  0.6220700000000 1.0
C      1  0.7031370000000  0.5040430000000  0.3779460000000 1.0
C      1  0.6667090000000  0.3838560000000  0.6220530000000 1.0
C      1  0.5666110000000  0.3080620000000  0.3779290000000 1.0
C      1  0.3429080000000  0.3272220000000  0.4594010000000 1.0
C      1  0.2713500000000  0.4525510000000  0.5405760000000 1.0
C      1  0.2871320000000  0.5960140000000  0.4594190000000 1.0
C      1  0.3842190000000  0.7027930000000  0.5405960000000 1.0
C      1  0.5255330000000  0.7321230000000  0.4594330000000 1.0
C      1  0.6570920000000  0.6727780000000  0.5405990000000 1.0
C      1  0.7286500000000  0.5474490000000  0.4594240000000 1.0
C      1  0.7128680000000  0.4039860000000  0.5405810000000 1.0
C      1  0.6157810000000  0.2972070000000  0.4594040000000 1.0
C      1  0.4744670000000  0.2678770000000  0.5405670000000 1.0
C      1  0.5953080000000  0.3205590000000  0.6220480000000 1.0
C      1  0.4716420000000  0.2988230000000  0.3779270000000 1.0
C      1  0.3587990000000  0.3538980000000  0.6220460000000 1.0
C      1  0.2998990000000  0.4648110000000  0.3779350000000 1.0
C      1  0.3174230000000  0.5891340000000  0.6220610000000 1.0
C      1  0.4046920000000  0.6794410000000  0.3779520000000 1.0
C      1  0.5283580000000  0.7011770000000  0.6220730000000 1.0
C      1  0.6412010000000  0.6461020000000  0.3779540000000 1.0
C      1  0.7001010000000  0.5351890000000  0.6220650000000 1.0
C      1  0.6825770000000  0.4108660000000  0.3779390000000 1.0
END
