TITL C-1525613-7943-1605 -0.0203104677624784 3375 -8523.01548063493 0 0 60 (C1) n - 1
REM
REM in /home/nfs/bkarasulu/CARBON/AIRSS/Generating-Clusters/ReaxFF-fromJPCA2015/Units_Real/Try2-Higher-symm/Only-C60
REM
REM
REM
REM
REM
REM ./C.cell (863b2abdce7293c0672fb3ba77bf323a)
REM AIRSS Version 0.9.1 bugfix July 2018 build 013d7b7c2542+ Fri, 06 Jul 2018 19:26:36 +0100
REM compiler GCC version 9.2.1 20190827 (Red Hat 9.2.1-1)
REM options -cpp -mtune=generic -march=x86-64 -g -O0 -fpre-include=/usr/include/finclude/math-vector-fortran.h
REM seed -1501376004 -789991587 -1396471602 -1541921075 -1805096648 -732536383 -656592187 -1374774194 -447805534 -705016937 -1531460780 2146697711 58814196 -1083237898 1223711104 -715589936 916442453 -696851071 -604111035 1754610230 2064412346 -610461249 -731931529 20250798 1763050101 711928957 563118839 896354599 60103983 -775202018 -924409582 1968308241 -332578221
REM
CELL 1.54180   15.00000   15.00000   15.00000   90.00000   90.00000   90.00000
LATT -1
SFAC C  
C      1  0.6699460000000  0.4359570000000  0.6634140000000 1.0
C      1  0.7074590000000  0.4352850000000  0.3885870000000 1.0
C      1  0.4574930000000  0.4346620000000  0.2696400000000 1.0
C      1  0.2668610000000  0.4353360000000  0.4688800000000 1.0
C      1  0.3972630000000  0.4359620000000  0.7124140000000 1.0
C      1  0.6703430000000  0.5638130000000  0.3364800000000 1.0
C      1  0.7074550000000  0.5647820000000  0.6113870000000 1.0
C      1  0.4574540000000  0.5653300000000  0.7303850000000 1.0
C      1  0.2668240000000  0.5647280000000  0.5311120000000 1.0
C      1  0.3971590000000  0.5638970000000  0.2874520000000 1.0
C      1  0.5777600000000  0.4319910000000  0.5168430000000 1.0
C      1  0.5403620000000  0.4365030000000  0.4286070000000 1.0
C      1  0.4449290000000  0.4374010000000  0.4422750000000 1.0
C      1  0.4292890000000  0.4308960000000  0.5324590000000 1.0
C      1  0.5072570000000  0.4288350000000  0.5774410000000 1.0
C      1  0.5776470000000  0.5683480000000  0.4832100000000 1.0
C      1  0.5402300000000  0.5636630000000  0.5715740000000 1.0
C      1  0.4447270000000  0.5624050000000  0.5577970000000 1.0
C      1  0.4290990000000  0.5694270000000  0.4675450000000 1.0
C      1  0.5070080000000  0.5713270000000  0.4226120000000 1.0
C      1  0.5009000000000  0.3593710000000  0.3150300000000 1.0
C      1  0.3256570000000  0.3619060000000  0.4414260000000 1.0
C      1  0.3911340000000  0.3625740000000  0.6465680000000 1.0
C      1  0.6063160000000  0.3609000000000  0.6490080000000 1.0
C      1  0.6745660000000  0.3596830000000  0.4449640000000 1.0
C      1  0.5009160000000  0.6406510000000  0.6850140000000 1.0
C      1  0.3256510000000  0.6381510000000  0.5585880000000 1.0
C      1  0.3910450000000  0.6373250000000  0.3533040000000 1.0
C      1  0.6062970000000  0.6391440000000  0.3508120000000 1.0
C      1  0.6747390000000  0.6401910000000  0.5552610000000 1.0
C      1  0.3474860000000  0.5834020000000  0.4189420000000 1.0
C      1  0.3728360000000  0.5825050000000  0.6204750000000 1.0
C      1  0.5786600000000  0.5898620000000  0.6612170000000 1.0
C      1  0.6746590000000  0.5895110000000  0.4741240000000 1.0
C      1  0.5283290000000  0.5882680000000  0.3284190000000 1.0
C      1  0.3477250000000  0.4165970000000  0.5808650000000 1.0
C      1  0.3729320000000  0.4175950000000  0.3796680000000 1.0
C      1  0.5785470000000  0.4103790000000  0.3388850000000 1.0
C      1  0.6745740000000  0.4107150000000  0.5258540000000 1.0
C      1  0.5284580000000  0.4118650000000  0.6715930000000 1.0
C      1  0.5570700000000  0.6957320000000  0.4280940000000 1.0
C      1  0.4499310000000  0.6921090000000  0.4248720000000 1.0
C      1  0.4128990000000  0.6927700000000  0.5252450000000 1.0
C      1  0.4967220000000  0.6956600000000  0.5915690000000 1.0
C      1  0.5856980000000  0.6961620000000  0.5317410000000 1.0
C      1  0.5568450000000  0.3042600000000  0.5716320000000 1.0
C      1  0.4497380000000  0.3068400000000  0.5752360000000 1.0
C      1  0.4128120000000  0.3071800000000  0.4747570000000 1.0
C      1  0.4965310000000  0.3043790000000  0.4083720000000 1.0
C      1  0.5856870000000  0.3038060000000  0.4681570000000 1.0
C      1  0.2650240000000  0.4683230000000  0.5604280000000 1.0
C      1  0.4843380000000  0.4691030000000  0.7410940000000 1.0
C      1  0.7254990000000  0.4677180000000  0.5897330000000 1.0
C      1  0.6554650000000  0.4667740000000  0.3119300000000 1.0
C      1  0.3688760000000  0.4669840000000  0.2940920000000 1.0
C      1  0.2647890000000  0.5317300000000  0.4396260000000 1.0
C      1  0.4843480000000  0.5309580000000  0.2589250000000 1.0
C      1  0.7255400000000  0.5323170000000  0.4103810000000 1.0
C      1  0.6553490000000  0.5331260000000  0.6879490000000 1.0
C      1  0.3688440000000  0.5329300000000  0.7060370000000 1.0
END
