TITL C-1525613-7943-968 0.383766506989199 3375 -8274.58562946941 0 0 60 (C2) n - 1
REM
REM in /home/nfs/bkarasulu/CARBON/AIRSS/Generating-Clusters/ReaxFF-fromJPCA2015/Units_Real/Try2-Higher-symm/Only-C60
REM
REM
REM
REM
REM
REM ./C.cell (863b2abdce7293c0672fb3ba77bf323a)
REM AIRSS Version 0.9.1 bugfix July 2018 build 013d7b7c2542+ Fri, 06 Jul 2018 19:26:36 +0100
REM compiler GCC version 9.2.1 20190827 (Red Hat 9.2.1-1)
REM options -cpp -mtune=generic -march=x86-64 -g -O0 -fpre-include=/usr/include/finclude/math-vector-fortran.h
REM seed 1673552048 -1119573081 363375913 -1076146578 -614795625 -1668461574 -1874400461 -1183119979 -1078471846 991344288 1382752297 -736453159 845405201 1578811185 146693515 -1821833387 -327363837 1450121182 -1826035891 58970666 921479808 -461603187 -2040345601 -5871003 218703863 -1440118193 597573898 -513142294 210119785 -2080063881 -1757556693 1034610647 -1528461561
REM
CELL 1.54180   15.00000   15.00000   15.00000   90.00000   90.00000   90.00000
LATT -1
SFAC C  
C      1  0.3680660000000  0.4725730000000  0.4645070000000 1.0
C      1  0.4209560000000  0.4904620000000  0.6034250000000 1.0
C      1  0.5683210000000  0.4416970000000  0.5595950000000 1.0
C      1  0.6303980000000  0.4911960000000  0.4558090000000 1.0
C      1  0.5085970000000  0.5105040000000  0.4163860000000 1.0
C      1  0.3688770000000  0.5276990000000  0.5359940000000 1.0
C      1  0.4210030000000  0.5090730000000  0.3971020000000 1.0
C      1  0.5689610000000  0.5584660000000  0.4397790000000 1.0
C      1  0.6306180000000  0.5086900000000  0.5441740000000 1.0
C      1  0.5086040000000  0.4895320000000  0.5842590000000 1.0
C      1  0.4299570000000  0.3047060000000  0.5486340000000 1.0
C      1  0.5167830000000  0.3041520000000  0.5857160000000 1.0
C      1  0.5751140000000  0.3407250000000  0.5165820000000 1.0
C      1  0.5266930000000  0.3241680000000  0.4307060000000 1.0
C      1  0.4369270000000  0.3125890000000  0.4519170000000 1.0
C      1  0.4299340000000  0.6953680000000  0.4514340000000 1.0
C      1  0.5167440000000  0.6964590000000  0.4138100000000 1.0
C      1  0.5758570000000  0.6591890000000  0.4834660000000 1.0
C      1  0.5267900000000  0.6759100000000  0.5691360000000 1.0
C      1  0.4368640000000  0.6877830000000  0.5483710000000 1.0
C      1  0.7272440000000  0.6014330000000  0.5378060000000 1.0
C      1  0.6147540000000  0.5951580000000  0.3070440000000 1.0
C      1  0.3406780000000  0.6006630000000  0.3376890000000 1.0
C      1  0.2934080000000  0.6169260000000  0.6021340000000 1.0
C      1  0.5211280000000  0.5932670000000  0.7233460000000 1.0
C      1  0.7260210000000  0.3995540000000  0.4617810000000 1.0
C      1  0.6146540000000  0.4044360000000  0.6932160000000 1.0
C      1  0.3401940000000  0.3990580000000  0.6619110000000 1.0
C      1  0.2931810000000  0.3824400000000  0.3978300000000 1.0
C      1  0.5212180000000  0.4066940000000  0.2764150000000 1.0
C      1  0.5186860000000  0.4095870000000  0.7171910000000 1.0
C      1  0.7312350000000  0.3991060000000  0.5618160000000 1.0
C      1  0.6128560000000  0.4105880000000  0.3118640000000 1.0
C      1  0.3553390000000  0.3929820000000  0.3164370000000 1.0
C      1  0.2866940000000  0.3956280000000  0.5806040000000 1.0
C      1  0.5188950000000  0.5902200000000  0.2828140000000 1.0
C      1  0.7315000000000  0.6010660000000  0.4379550000000 1.0
C      1  0.6128890000000  0.5897140000000  0.6884940000000 1.0
C      1  0.3554150000000  0.6068420000000  0.6836440000000 1.0
C      1  0.2872690000000  0.6042100000000  0.4190900000000 1.0
C      1  0.3492680000000  0.3233590000000  0.6040240000000 1.0
C      1  0.5459100000000  0.3301790000000  0.6746950000000 1.0
C      1  0.6799250000000  0.3345250000000  0.5101390000000 1.0
C      1  0.5594190000000  0.3376830000000  0.3396880000000 1.0
C      1  0.3653820000000  0.3218170000000  0.3825770000000 1.0
C      1  0.3495480000000  0.6764920000000  0.3956180000000 1.0
C      1  0.5458860000000  0.6698440000000  0.3250190000000 1.0
C      1  0.6803640000000  0.6660800000000  0.4896060000000 1.0
C      1  0.5594560000000  0.6624040000000  0.6600950000000 1.0
C      1  0.3652050000000  0.6780650000000  0.6175690000000 1.0
C      1  0.2898770000000  0.4251200000000  0.4843800000000 1.0
C      1  0.4230460000000  0.4570150000000  0.6982340000000 1.0
C      1  0.6889240000000  0.4421430000000  0.6407020000000 1.0
C      1  0.6830850000000  0.4575850000000  0.3780890000000 1.0
C      1  0.4293580000000  0.4433400000000  0.2791400000000 1.0
C      1  0.2906450000000  0.5745760000000  0.5154410000000 1.0
C      1  0.4230270000000  0.5428460000000  0.3021220000000 1.0
C      1  0.6886940000000  0.5573890000000  0.3596270000000 1.0
C      1  0.6843160000000  0.5426680000000  0.6223110000000 1.0
C      1  0.4293450000000  0.5563580000000  0.7210410000000 1.0
END
