TITL C-1525613-7943-6571 -0.133830326487129 3375 -8342.51059109486 0 0 60 (C1) n - 1
REM
REM in /home/nfs/bkarasulu/CARBON/AIRSS/Generating-Clusters/ReaxFF-fromJPCA2015/Units_Real/Try2-Higher-symm/Only-C60
REM
REM
REM
REM
REM
REM ./C.cell (863b2abdce7293c0672fb3ba77bf323a)
REM AIRSS Version 0.9.1 bugfix July 2018 build 013d7b7c2542+ Fri, 06 Jul 2018 19:26:36 +0100
REM compiler GCC version 9.2.1 20190827 (Red Hat 9.2.1-1)
REM options -cpp -mtune=generic -march=x86-64 -g -O0 -fpre-include=/usr/include/finclude/math-vector-fortran.h
REM seed -186351716 758671927 -1632033470 492243088 1742397214 861338451 -1956574865 -366079226 2144593165 1032331314 -318954543 -1593751394 -1120310058 -569962534 906579817 -943463700 -1046382403 -185123704 -944139042 234989944 967177687 -1104658723 1728900877 -846128362 747268648 1697971713 -114844736 -871162311 2042547809 -1250326366 -1798735389 2056064674 1251800566
REM
CELL 1.54180   15.00000   15.00000   15.00000   90.00000   90.00000   90.00000
LATT -1
SFAC C  
C      1  0.4690200000000  0.3361920000000  0.5293770000000 1.0
C      1  0.4297680000000  0.3606820000000  0.4402580000000 1.0
C      1  0.4564020000000  0.3835770000000  0.3509450000000 1.0
C      1  0.4743290000000  0.5165450000000  0.3376710000000 1.0
C      1  0.4673150000000  0.6105730000000  0.3632980000000 1.0
C      1  0.4699100000000  0.6636070000000  0.4694070000000 1.0
C      1  0.4290250000000  0.6421750000000  0.5603700000000 1.0
C      1  0.4561310000000  0.6326380000000  0.6495670000000 1.0
C      1  0.4752740000000  0.4709750000000  0.6721530000000 1.0
C      1  0.4677360000000  0.3830910000000  0.6421660000000 1.0
C      1  0.5926700000000  0.2717610000000  0.6811220000000 1.0
C      1  0.6986100000000  0.1351340000000  0.5042640000000 1.0
C      1  0.6926310000000  0.2808040000000  0.3171850000000 1.0
C      1  0.6527550000000  0.3903150000000  0.1642740000000 1.0
C      1  0.6736150000000  0.5740560000000  0.2200630000000 1.0
C      1  0.5887370000000  0.7270960000000  0.3182250000000 1.0
C      1  0.6994950000000  0.8648740000000  0.4974200000000 1.0
C      1  0.6920580000000  0.7170120000000  0.6827110000000 1.0
C      1  0.6494810000000  0.6101990000000  0.8313730000000 1.0
C      1  0.6760160000000  0.4280540000000  0.7791950000000 1.0
C      1  0.3179030000000  0.3531220000000  0.3551880000000 1.0
C      1  0.3270350000000  0.4618570000000  0.2713120000000 1.0
C      1  0.3279620000000  0.5619070000000  0.2859790000000 1.0
C      1  0.3235540000000  0.7054650000000  0.3828060000000 1.0
C      1  0.3144770000000  0.7309610000000  0.4776480000000 1.0
C      1  0.3173090000000  0.6503750000000  0.6456900000000 1.0
C      1  0.3276350000000  0.5377680000000  0.7244440000000 1.0
C      1  0.3273530000000  0.4384030000000  0.7132490000000 1.0
C      1  0.3209540000000  0.2956010000000  0.6161240000000 1.0
C      1  0.3126920000000  0.2698870000000  0.5214550000000 1.0
C      1  0.5566530000000  0.6065190000000  0.6805110000000 1.0
C      1  0.5574660000000  0.5082960000000  0.6823280000000 1.0
C      1  0.5434550000000  0.3465140000000  0.7014780000000 1.0
C      1  0.5611900000000  0.3019400000000  0.5222040000000 1.0
C      1  0.6039320000000  0.2669280000000  0.4469900000000 1.0
C      1  0.5617710000000  0.3940030000000  0.3153370000000 1.0
C      1  0.5597080000000  0.4897430000000  0.3183000000000 1.0
C      1  0.5402710000000  0.6506220000000  0.3023180000000 1.0
C      1  0.5620330000000  0.6977620000000  0.4766750000000 1.0
C      1  0.6042640000000  0.7328070000000  0.5521580000000 1.0
C      1  0.5946680000000  0.7358540000000  0.3959770000000 1.0
C      1  0.6500120000000  0.7989180000000  0.5055420000000 1.0
C      1  0.6269220000000  0.6854880000000  0.6375380000000 1.0
C      1  0.5998110000000  0.6076900000000  0.7674310000000 1.0
C      1  0.6020120000000  0.4311440000000  0.7336730000000 1.0
C      1  0.5948580000000  0.2648990000000  0.6031230000000 1.0
C      1  0.6473990000000  0.1990860000000  0.4933000000000 1.0
C      1  0.6273520000000  0.3136070000000  0.3614080000000 1.0
C      1  0.6032860000000  0.3972950000000  0.2282430000000 1.0
C      1  0.5994710000000  0.5679710000000  0.2660870000000 1.0
C      1  0.4083350000000  0.4849920000000  0.7358530000000 1.0
C      1  0.3666050000000  0.3693520000000  0.6585720000000 1.0
C      1  0.3987320000000  0.2694460000000  0.5634380000000 1.0
C      1  0.3351490000000  0.3259890000000  0.4415890000000 1.0
C      1  0.3786440000000  0.3785500000000  0.2892530000000 1.0
C      1  0.4085740000000  0.5132230000000  0.2676740000000 1.0
C      1  0.3668680000000  0.6282260000000  0.3439430000000 1.0
C      1  0.4008020000000  0.7317120000000  0.4360410000000 1.0
C      1  0.3332580000000  0.6742170000000  0.5578580000000 1.0
C      1  0.3786500000000  0.6225010000000  0.7102170000000 1.0
END
