TITL C-1525613-7943-3261 -0.00085631019869114 3375 -9346.9057113369 0 0 60 (C5) n - 1
REM
REM in /home/nfs/bkarasulu/CARBON/AIRSS/Generating-Clusters/ReaxFF-fromJPCA2015/Units_Real/Try2-Higher-symm/Only-C60
REM
REM
REM
REM
REM
REM ./C.cell (863b2abdce7293c0672fb3ba77bf323a)
REM AIRSS Version 0.9.1 bugfix July 2018 build 013d7b7c2542+ Fri, 06 Jul 2018 19:26:36 +0100
REM compiler GCC version 9.2.1 20190827 (Red Hat 9.2.1-1)
REM options -cpp -mtune=generic -march=x86-64 -g -O0 -fpre-include=/usr/include/finclude/math-vector-fortran.h
REM seed -600265359 54746032 849656306 1507397717 -1285099791 269878304 -678489185 -1502584979 -200982171 -391580582 -540614777 -777687602 -1812755715 1692154883 -35129127 1073868116 1149633059 504390774 -1464774506 192329741 300241200 864413976 -115718419 1435656715 -1220702586 -127041654 -2048564366 -1717139518 -1993819659 1411187706 1777523575 1744014152 1501965101
REM
CELL 1.54180   15.00000   15.00000   15.00000   90.00000   90.00000   90.00000
LATT -1
SFAC C  
C      1  0.5491370000000  0.4523070000000  0.7633910000000 1.0
C      1  0.5481700000000  0.7364670000000  0.6267310000000 1.0
C      1  0.5477020000000  0.6935080000000  0.3145270000000 1.0
C      1  0.5464410000000  0.3835430000000  0.2599720000000 1.0
C      1  0.5476650000000  0.2367760000000  0.5363350000000 1.0
C      1  0.5478100000000  0.5466680000000  0.7618500000000 1.0
C      1  0.5491060000000  0.2643760000000  0.6265550000000 1.0
C      1  0.5476240000000  0.3064620000000  0.3141760000000 1.0
C      1  0.5465260000000  0.6164490000000  0.2602110000000 1.0
C      1  0.5473510000000  0.7637110000000  0.5362170000000 1.0
C      1  0.6682560000000  0.5488770000000  0.3516820000000 1.0
C      1  0.6709750000000  0.3719020000000  0.4074590000000 1.0
C      1  0.6731640000000  0.3710260000000  0.5934570000000 1.0
C      1  0.6712990000000  0.5474800000000  0.6515920000000 1.0
C      1  0.6693870000000  0.6568680000000  0.5022490000000 1.0
C      1  0.6686230000000  0.4508750000000  0.3512280000000 1.0
C      1  0.6704410000000  0.6275330000000  0.4083080000000 1.0
C      1  0.6716050000000  0.6276290000000  0.5942590000000 1.0
C      1  0.6734070000000  0.4509320000000  0.6519560000000 1.0
C      1  0.6706330000000  0.3421100000000  0.5013290000000 1.0
C      1  0.3346290000000  0.6234840000000  0.5881010000000 1.0
C      1  0.3342980000000  0.6227640000000  0.4095640000000 1.0
C      1  0.3350370000000  0.4528770000000  0.3553490000000 1.0
C      1  0.3366770000000  0.3489030000000  0.4999580000000 1.0
C      1  0.3358390000000  0.4538740000000  0.6437740000000 1.0
C      1  0.3358460000000  0.3773250000000  0.5882430000000 1.0
C      1  0.3345390000000  0.3775820000000  0.4098420000000 1.0
C      1  0.3351740000000  0.5474330000000  0.3553100000000 1.0
C      1  0.3364030000000  0.6515780000000  0.4995700000000 1.0
C      1  0.3370970000000  0.5466280000000  0.6432860000000 1.0
C      1  0.3866510000000  0.7303280000000  0.4753710000000 1.0
C      1  0.3856550000000  0.5489330000000  0.2726700000000 1.0
C      1  0.3852500000000  0.2992530000000  0.3826610000000 1.0
C      1  0.3861590000000  0.3275020000000  0.6543070000000 1.0
C      1  0.3875080000000  0.5939650000000  0.7105500000000 1.0
C      1  0.3870450000000  0.2701570000000  0.4758670000000 1.0
C      1  0.3855560000000  0.4512770000000  0.2726860000000 1.0
C      1  0.3849600000000  0.7010760000000  0.3821880000000 1.0
C      1  0.3855070000000  0.6736050000000  0.6540910000000 1.0
C      1  0.3861630000000  0.4065240000000  0.7116390000000 1.0
C      1  0.4499140000000  0.3016300000000  0.3097240000000 1.0
C      1  0.4513470000000  0.2592440000000  0.6292780000000 1.0
C      1  0.4524490000000  0.5494100000000  0.7677050000000 1.0
C      1  0.4517120000000  0.7710510000000  0.5351720000000 1.0
C      1  0.4508130000000  0.6185750000000  0.2525390000000 1.0
C      1  0.4499840000000  0.6985030000000  0.3095910000000 1.0
C      1  0.4504190000000  0.7419270000000  0.6287970000000 1.0
C      1  0.4513470000000  0.4515010000000  0.7687530000000 1.0
C      1  0.4522920000000  0.2299200000000  0.5358510000000 1.0
C      1  0.4506430000000  0.3815390000000  0.2526120000000 1.0
C      1  0.6083760000000  0.2723950000000  0.4762760000000 1.0
C      1  0.6113070000000  0.4051350000000  0.7103910000000 1.0
C      1  0.6096350000000  0.6698880000000  0.6552800000000 1.0
C      1  0.6089020000000  0.6990630000000  0.3867490000000 1.0
C      1  0.6065100000000  0.4526250000000  0.2771590000000 1.0
C      1  0.6076690000000  0.7268060000000  0.4769830000000 1.0
C      1  0.6087980000000  0.5928200000000  0.7099980000000 1.0
C      1  0.6111700000000  0.3294020000000  0.6549470000000 1.0
C      1  0.6090720000000  0.3006640000000  0.3861090000000 1.0
C      1  0.6063240000000  0.5473370000000  0.2775740000000 1.0
END
