TITL C-1525613-7943-6261 -0.0315351929119474 3375 -9206.21511638072 0 0 60 (C1) n - 1
REM
REM in /home/nfs/bkarasulu/CARBON/AIRSS/Generating-Clusters/ReaxFF-fromJPCA2015/Units_Real/Try2-Higher-symm/Only-C60
REM
REM
REM
REM
REM
REM ./C.cell (863b2abdce7293c0672fb3ba77bf323a)
REM AIRSS Version 0.9.1 bugfix July 2018 build 013d7b7c2542+ Fri, 06 Jul 2018 19:26:36 +0100
REM compiler GCC version 9.2.1 20190827 (Red Hat 9.2.1-1)
REM options -cpp -mtune=generic -march=x86-64 -g -O0 -fpre-include=/usr/include/finclude/math-vector-fortran.h
REM seed 635762782 -1916788841 1853255901 1163823277 -534968897 1035670100 -548255812 1108017802 1032661441 1879201778 -14577805 1660080318 -1852185648 -1851854752 -771572077 -42064375 -2070410895 950399491 127031435 -1096837987 2006443794 1355145819 1395638892 309951212 892743088 919401063 -536071562 1315667785 992918185 1764875512 2052731197 840307581 -28542219
REM
CELL 1.54180   15.00000   15.00000   15.00000   90.00000   90.00000   90.00000
LATT -1
SFAC C  
C      1  0.7079310000000  0.3865520000000  0.2990800000000 1.0
C      1  0.4593380000000  0.2537320000000  0.2968390000000 1.0
C      1  0.2221480000000  0.4640100000000  0.3031090000000 1.0
C      1  0.3781090000000  0.7115620000000  0.3282720000000 1.0
C      1  0.6790250000000  0.6751520000000  0.3268750000000 1.0
C      1  0.2575990000000  0.3714830000000  0.3021990000000 1.0
C      1  0.5292660000000  0.2553920000000  0.3299590000000 1.0
C      1  0.7327910000000  0.4518850000000  0.3326120000000 1.0
C      1  0.6104900000000  0.7334350000000  0.2915270000000 1.0
C      1  0.3219560000000  0.6693280000000  0.2963970000000 1.0
C      1  0.4453910000000  0.7617030000000  0.3735610000000 1.0
C      1  0.7369050000000  0.6248090000000  0.3760010000000 1.0
C      1  0.6839970000000  0.3277500000000  0.3679730000000 1.0
C      1  0.3954900000000  0.2683580000000  0.3642470000000 1.0
C      1  0.2291260000000  0.5363630000000  0.3698130000000 1.0
C      1  0.5442010000000  0.7519030000000  0.3683050000000 1.0
C      1  0.2737140000000  0.6272600000000  0.3652600000000 1.0
C      1  0.3068180000000  0.3172260000000  0.3679990000000 1.0
C      1  0.6111910000000  0.2584590000000  0.3750870000000 1.0
C      1  0.7616440000000  0.5273600000000  0.3791790000000 1.0
C      1  0.4013390000000  0.2793610000000  0.4618840000000 1.0
C      1  0.2510950000000  0.5324410000000  0.4639980000000 1.0
C      1  0.4529230000000  0.7580680000000  0.4719030000000 1.0
C      1  0.7307960000000  0.6225450000000  0.4730230000000 1.0
C      1  0.6847240000000  0.3311780000000  0.4665160000000 1.0
C      1  0.6145080000000  0.2688410000000  0.4698540000000 1.0
C      1  0.7569960000000  0.5328580000000  0.4740430000000 1.0
C      1  0.5483860000000  0.7479980000000  0.4653220000000 1.0
C      1  0.2894280000000  0.6195490000000  0.4630380000000 1.0
C      1  0.3204810000000  0.3289490000000  0.4630080000000 1.0
C      1  0.2620300000000  0.4717340000000  0.5390200000000 1.0
C      1  0.4030430000000  0.7213420000000  0.5432720000000 1.0
C      1  0.6792530000000  0.6619950000000  0.5437870000000 1.0
C      1  0.7094260000000  0.3845050000000  0.5428020000000 1.0
C      1  0.4579550000000  0.2680660000000  0.5383760000000 1.0
C      1  0.7403510000000  0.4748400000000  0.5463460000000 1.0
C      1  0.6003310000000  0.7155910000000  0.5393510000000 1.0
C      1  0.3302090000000  0.6604390000000  0.5387750000000 1.0
C      1  0.2932560000000  0.3819320000000  0.5384340000000 1.0
C      1  0.5536450000000  0.2642760000000  0.5427450000000 1.0
C      1  0.5506910000000  0.6497370000000  0.6894270000000 1.0
C      1  0.6592330000000  0.4992130000000  0.6930920000000 1.0
C      1  0.5488630000000  0.3490970000000  0.6904190000000 1.0
C      1  0.3720590000000  0.4073590000000  0.6878260000000 1.0
C      1  0.3750300000000  0.5927190000000  0.6870350000000 1.0
C      1  0.4518640000000  0.6509610000000  0.6907240000000 1.0
C      1  0.3425150000000  0.4990450000000  0.6888480000000 1.0
C      1  0.4525890000000  0.3495540000000  0.6878220000000 1.0
C      1  0.6287020000000  0.4078950000000  0.6912410000000 1.0
C      1  0.6289310000000  0.5936330000000  0.6934520000000 1.0
C      1  0.5481120000000  0.7162130000000  0.6190240000000 1.0
C      1  0.7229060000000  0.5233190000000  0.6247420000000 1.0
C      1  0.5926340000000  0.2964140000000  0.6219320000000 1.0
C      1  0.3367240000000  0.3523200000000  0.6162550000000 1.0
C      1  0.3119550000000  0.6100990000000  0.6163840000000 1.0
C      1  0.4549520000000  0.7180040000000  0.6211600000000 1.0
C      1  0.2808070000000  0.5221860000000  0.6174640000000 1.0
C      1  0.4124340000000  0.2978610000000  0.6168230000000 1.0
C      1  0.6674300000000  0.3519330000000  0.6223550000000 1.0
C      1  0.6942620000000  0.6122060000000  0.6241860000000 1.0
END
