TITL C-1525613-7943-6866 -0.183650732113826 3375 -8183.73120151708 0 0 60 (S10) n - 1
REM
REM in /home/nfs/bkarasulu/CARBON/AIRSS/Generating-Clusters/ReaxFF-fromJPCA2015/Units_Real/Try2-Higher-symm/Only-C60
REM
REM
REM
REM
REM
REM ./C.cell (863b2abdce7293c0672fb3ba77bf323a)
REM AIRSS Version 0.9.1 bugfix July 2018 build 013d7b7c2542+ Fri, 06 Jul 2018 19:26:36 +0100
REM compiler GCC version 9.2.1 20190827 (Red Hat 9.2.1-1)
REM options -cpp -mtune=generic -march=x86-64 -g -O0 -fpre-include=/usr/include/finclude/math-vector-fortran.h
REM seed -265808381 1939863627 -1758284826 1309495382 796164734 236655626 -195020884 2077883669 1912391579 -471839862 2044783736 -123405828 2019184843 1474763857 478275505 -167084140 1050484046 1488500009 -324959958 1532469187 -1410593621 2055713168 -1652924737 1442975796 -1652557269 -1199057470 -77144443 71880932 -2037091027 -411034735 469500934 1325561690 -215889694
REM
CELL 1.54180   15.00000   15.00000   15.00000   90.00000   90.00000   90.00000
LATT -1
SFAC C  
C      1  0.5524240000000  0.2928840000000  0.5001780000000 1.0
C      1  0.6641530000000  0.3632530000000  0.4998230000000 1.0
C      1  0.7131830000000  0.4858560000000  0.5001740000000 1.0
C      1  0.6807830000000  0.6138610000000  0.4998210000000 1.0
C      1  0.5793290000000  0.6983760000000  0.5001740000000 1.0
C      1  0.4475760000000  0.7071160000000  0.4998220000000 1.0
C      1  0.3358470000000  0.6367470000000  0.5001770000000 1.0
C      1  0.2868170000000  0.5141440000000  0.4998260000000 1.0
C      1  0.3192170000000  0.3861390000000  0.5001790000000 1.0
C      1  0.4206710000000  0.3016240000000  0.4998260000000 1.0
C      1  0.4115250000000  0.5772060000000  0.2857210000000 1.0
C      1  0.3830320000000  0.5104550000000  0.7142790000000 1.0
C      1  0.3992320000000  0.4397080000000  0.2857260000000 1.0
C      1  0.4539200000000  0.3919920000000  0.7142690000000 1.0
C      1  0.5262020000000  0.3855300000000  0.2857280000000 1.0
C      1  0.5884750000000  0.4227940000000  0.7142790000000 1.0
C      1  0.6169680000000  0.4895450000000  0.2857210000000 1.0
C      1  0.6007680000000  0.5602920000000  0.7142740000000 1.0
C      1  0.5460800000000  0.6080080000000  0.2857310000000 1.0
C      1  0.4737980000000  0.6144700000000  0.7142720000000 1.0
C      1  0.5736590000000  0.4707040000000  0.4299520000000 1.0
C      1  0.5768150000000  0.5195930000000  0.5700510000000 1.0
C      1  0.5506270000000  0.5609990000000  0.4299540000000 1.0
C      1  0.5051070000000  0.5791030000000  0.5700540000000 1.0
C      1  0.4576280000000  0.5669920000000  0.4299490000000 1.0
C      1  0.4263410000000  0.5292960000000  0.5700480000000 1.0
C      1  0.4231850000000  0.4804070000000  0.4299490000000 1.0
C      1  0.4493730000000  0.4390010000000  0.5700460000000 1.0
C      1  0.4948930000000  0.4208970000000  0.4299460000000 1.0
C      1  0.5423720000000  0.4330080000000  0.5700510000000 1.0
C      1  0.6087060000000  0.3589050000000  0.3068350000000 1.0
C      1  0.6708770000000  0.4497460000000  0.6931650000000 1.0
C      1  0.6677810000000  0.5597860000000  0.3068360000000 1.0
C      1  0.6006010000000  0.6469860000000  0.6931670000000 1.0
C      1  0.4949910000000  0.6780500000000  0.3068370000000 1.0
C      1  0.3912940000000  0.6410950000000  0.6931650000000 1.0
C      1  0.3291230000000  0.5502540000000  0.3068350000000 1.0
C      1  0.3322190000000  0.4402140000000  0.6931640000000 1.0
C      1  0.3993990000000  0.3530140000000  0.3068330000000 1.0
C      1  0.5050090000000  0.3219500000000  0.6931630000000 1.0
C      1  0.3755680000000  0.3590260000000  0.6730450000000 1.0
C      1  0.4821910000000  0.3128100000000  0.3269550000000 1.0
C      1  0.5956200000000  0.3380940000000  0.6730470000000 1.0
C      1  0.6725270000000  0.4252190000000  0.3269550000000 1.0
C      1  0.6835270000000  0.5409070000000  0.6730400000000 1.0
C      1  0.6244320000000  0.6409740000000  0.3269550000000 1.0
C      1  0.5178090000000  0.6871900000000  0.6730450000000 1.0
C      1  0.4043800000000  0.6619060000000  0.3269530000000 1.0
C      1  0.3274730000000  0.5747810000000  0.6730450000000 1.0
C      1  0.3164730000000  0.4590930000000  0.3269600000000 1.0
C      1  0.6012010000000  0.3398450000000  0.5580500000000 1.0
C      1  0.6760100000000  0.4299170000000  0.4419500000000 1.0
C      1  0.6835890000000  0.5467560000000  0.5580450000000 1.0
C      1  0.6210460000000  0.6457380000000  0.4419510000000 1.0
C      1  0.5122650000000  0.6890540000000  0.5580490000000 1.0
C      1  0.3987990000000  0.6601550000000  0.4419500000000 1.0
C      1  0.3239900000000  0.5700830000000  0.5580500000000 1.0
C      1  0.3164110000000  0.4532440000000  0.4419550000000 1.0
C      1  0.3789540000000  0.3542620000000  0.5580490000000 1.0
C      1  0.4877350000000  0.3109460000000  0.4419510000000 1.0
END
