TITL C-1525613-7943-1235 0.165834606460708 3375 -8456.12277469226 0 0 60 (Cs) n - 1
REM
REM in /home/nfs/bkarasulu/CARBON/AIRSS/Generating-Clusters/ReaxFF-fromJPCA2015/Units_Real/Try2-Higher-symm/Only-C60
REM
REM
REM
REM
REM
REM ./C.cell (863b2abdce7293c0672fb3ba77bf323a)
REM AIRSS Version 0.9.1 bugfix July 2018 build 013d7b7c2542+ Fri, 06 Jul 2018 19:26:36 +0100
REM compiler GCC version 9.2.1 20190827 (Red Hat 9.2.1-1)
REM options -cpp -mtune=generic -march=x86-64 -g -O0 -fpre-include=/usr/include/finclude/math-vector-fortran.h
REM seed 944010552 -344172019 1409896677 108522131 720429455 1123938637 -214171547 -968473749 -1252509989 1020461334 -515117076 613489071 1598232434 -1751129435 416121304 1730367681 269458849 -486618242 547317330 -1892250630 -1788318701 546019644 -65204025 -679894528 -1589613877 1617327977 289834885 -280608160 1482206625 1352431521 -1789865190 1602463125 1547990465
REM
CELL 1.54180   15.00000   15.00000   15.00000   90.00000   90.00000   90.00000
LATT -1
SFAC C  
C      1  0.5448450000000  0.3894720000000  0.2728910000000 1.0
C      1  0.5434340000000  0.6968030000000  0.3138290000000 1.0
C      1  0.5412130000000  0.7649400000000  0.5943320000000 1.0
C      1  0.5387930000000  0.4307850000000  0.7939060000000 1.0
C      1  0.5449460000000  0.2420010000000  0.5322800000000 1.0
C      1  0.4551400000000  0.3894910000000  0.2728840000000 1.0
C      1  0.4564840000000  0.6967560000000  0.3138750000000 1.0
C      1  0.4587180000000  0.7649570000000  0.5943540000000 1.0
C      1  0.4612300000000  0.4307890000000  0.7939340000000 1.0
C      1  0.4550800000000  0.2420000000000  0.5322820000000 1.0
C      1  0.3687010000000  0.6620960000000  0.3133100000000 1.0
C      1  0.3710840000000  0.7426250000000  0.5794840000000 1.0
C      1  0.3844590000000  0.4631610000000  0.7481860000000 1.0
C      1  0.3654550000000  0.2640100000000  0.5503320000000 1.0
C      1  0.3690680000000  0.3933300000000  0.3096380000000 1.0
C      1  0.6313380000000  0.6620540000000  0.3132290000000 1.0
C      1  0.6288240000000  0.7426060000000  0.5794730000000 1.0
C      1  0.6155230000000  0.4631060000000  0.7482370000000 1.0
C      1  0.6345370000000  0.2639960000000  0.5503350000000 1.0
C      1  0.6309310000000  0.3933400000000  0.3096240000000 1.0
C      1  0.3722410000000  0.5595540000000  0.2896090000000 1.0
C      1  0.3618770000000  0.6897890000000  0.4929270000000 1.0
C      1  0.3982700000000  0.6098300000000  0.6895650000000 1.0
C      1  0.3688750000000  0.3400970000000  0.6281170000000 1.0
C      1  0.3681160000000  0.3124910000000  0.3758660000000 1.0
C      1  0.6277610000000  0.5595120000000  0.2896140000000 1.0
C      1  0.6380770000000  0.6898400000000  0.4929090000000 1.0
C      1  0.6014960000000  0.6100040000000  0.6894890000000 1.0
C      1  0.6311350000000  0.3400900000000  0.6280960000000 1.0
C      1  0.6318840000000  0.3124800000000  0.3758550000000 1.0
C      1  0.6707510000000  0.4803600000000  0.3243730000000 1.0
C      1  0.6478750000000  0.6945060000000  0.3996950000000 1.0
C      1  0.6544890000000  0.6842510000000  0.6611630000000 1.0
C      1  0.6550160000000  0.4007940000000  0.6893620000000 1.0
C      1  0.6560140000000  0.2865030000000  0.4631210000000 1.0
C      1  0.3292480000000  0.4803450000000  0.3243750000000 1.0
C      1  0.3521780000000  0.6944570000000  0.3995250000000 1.0
C      1  0.3456500000000  0.6843180000000  0.6611590000000 1.0
C      1  0.3449480000000  0.4008210000000  0.6893030000000 1.0
C      1  0.3439670000000  0.2865130000000  0.4631050000000 1.0
C      1  0.4609980000000  0.3625640000000  0.6343140000000 1.0
C      1  0.4609930000000  0.2980900000000  0.3914850000000 1.0
C      1  0.4559640000000  0.5266780000000  0.2801800000000 1.0
C      1  0.4547790000000  0.6652200000000  0.4926580000000 1.0
C      1  0.4459550000000  0.5419700000000  0.7154860000000 1.0
C      1  0.5389950000000  0.3625590000000  0.6343080000000 1.0
C      1  0.5390230000000  0.2980920000000  0.3914960000000 1.0
C      1  0.5440490000000  0.5266700000000  0.2801770000000 1.0
C      1  0.5452510000000  0.6652380000000  0.4926690000000 1.0
C      1  0.5542610000000  0.5418830000000  0.7155230000000 1.0
C      1  0.2636340000000  0.5642960000000  0.4688730000000 1.0
C      1  0.2418930000000  0.5480980000000  0.5478650000000 1.0
C      1  0.2358260000000  0.4638820000000  0.5553790000000 1.0
C      1  0.2544080000000  0.4310340000000  0.4808550000000 1.0
C      1  0.2765850000000  0.4908070000000  0.4110710000000 1.0
C      1  0.7363990000000  0.5642790000000  0.4688600000000 1.0
C      1  0.7581260000000  0.5480870000000  0.5478500000000 1.0
C      1  0.7641700000000  0.4638730000000  0.5553800000000 1.0
C      1  0.7455870000000  0.4310200000000  0.4808650000000 1.0
C      1  0.7234300000000  0.4907850000000  0.4110660000000 1.0
END
