TITL C-1525613-7943-4537 0.128794711978399 3375 -8707.34597058511 0 0 60 (C2) n - 1
REM
REM in /home/nfs/bkarasulu/CARBON/AIRSS/Generating-Clusters/ReaxFF-fromJPCA2015/Units_Real/Try2-Higher-symm/Only-C60
REM
REM
REM
REM
REM
REM ./C.cell (863b2abdce7293c0672fb3ba77bf323a)
REM AIRSS Version 0.9.1 bugfix July 2018 build 013d7b7c2542+ Fri, 06 Jul 2018 19:26:36 +0100
REM compiler GCC version 9.2.1 20190827 (Red Hat 9.2.1-1)
REM options -cpp -mtune=generic -march=x86-64 -g -O0 -fpre-include=/usr/include/finclude/math-vector-fortran.h
REM seed -437494023 1317754364 -752194743 14503040 147178163 -1124158964 -980003861 496131620 2117277586 2084342345 2125155946 843297223 -541023133 1598159009 1284115047 -1611465590 272035279 -1385337703 809654094 88367372 565727565 -1711110235 761388573 701549053 -2011987041 1496128879 857837544 -1696927621 112409842 1818470343 1571008123 -1142420491 -918498991
REM
CELL 1.54180   15.00000   15.00000   15.00000   90.00000   90.00000   90.00000
LATT -1
SFAC C  
C      1  0.3122040000000  0.3646670000000  0.3340970000000 1.0
C      1  0.2497630000000  0.3743930000000  0.4754240000000 1.0
C      1  0.2835310000000  0.3721920000000  0.6267470000000 1.0
C      1  0.4005330000000  0.3720560000000  0.7299810000000 1.0
C      1  0.5550190000000  0.3739800000000  0.7448090000000 1.0
C      1  0.6877940000000  0.3646820000000  0.6658850000000 1.0
C      1  0.7502410000000  0.3743740000000  0.5245810000000 1.0
C      1  0.7164680000000  0.3721990000000  0.3732540000000 1.0
C      1  0.5994700000000  0.3720460000000  0.2700330000000 1.0
C      1  0.4449720000000  0.3739790000000  0.2551830000000 1.0
C      1  0.7042710000000  0.4630970000000  0.6801920000000 1.0
C      1  0.7687400000000  0.4728980000000  0.5270690000000 1.0
C      1  0.7330510000000  0.4709930000000  0.3630130000000 1.0
C      1  0.6068230000000  0.4708150000000  0.2518570000000 1.0
C      1  0.4396190000000  0.4724120000000  0.2370190000000 1.0
C      1  0.2957270000000  0.4631070000000  0.3197910000000 1.0
C      1  0.2313080000000  0.4729150000000  0.4729130000000 1.0
C      1  0.2669390000000  0.4710120000000  0.6369920000000 1.0
C      1  0.3931690000000  0.4708250000000  0.7481470000000 1.0
C      1  0.5603680000000  0.4723970000000  0.7630030000000 1.0
C      1  0.6197070000000  0.7482050000000  0.4374090000000 1.0
C      1  0.5599530000000  0.7482040000000  0.3789090000000 1.0
C      1  0.4772640000000  0.7481230000000  0.3665700000000 1.0
C      1  0.4031860000000  0.7480710000000  0.4052880000000 1.0
C      1  0.3661030000000  0.7481230000000  0.4801960000000 1.0
C      1  0.3802920000000  0.7482040000000  0.5625910000000 1.0
C      1  0.4400470000000  0.7482040000000  0.6210910000000 1.0
C      1  0.5227350000000  0.7481230000000  0.6334300000000 1.0
C      1  0.5968140000000  0.7480700000000  0.5947130000000 1.0
C      1  0.6338960000000  0.7481230000000  0.5198050000000 1.0
C      1  0.5791690000000  0.5632720000000  0.6337480000000 1.0
C      1  0.6427550000000  0.5634240000000  0.5618760000000 1.0
C      1  0.6535870000000  0.5653970000000  0.4653870000000 1.0
C      1  0.6042840000000  0.5644980000000  0.3816920000000 1.0
C      1  0.5151150000000  0.5652340000000  0.3432000000000 1.0
C      1  0.4208080000000  0.5632700000000  0.3662690000000 1.0
C      1  0.3572520000000  0.5634170000000  0.4381260000000 1.0
C      1  0.3464120000000  0.5653890000000  0.5345890000000 1.0
C      1  0.3956990000000  0.5645040000000  0.6182800000000 1.0
C      1  0.4848530000000  0.5652380000000  0.6567950000000 1.0
C      1  0.3726320000000  0.5174100000000  0.2936260000000 1.0
C      1  0.2791670000000  0.5175820000000  0.3992750000000 1.0
C      1  0.2624700000000  0.5196400000000  0.5525080000000 1.0
C      1  0.3390570000000  0.5183270000000  0.6824380000000 1.0
C      1  0.4775950000000  0.5194290000000  0.7423150000000 1.0
C      1  0.6274080000000  0.5174220000000  0.7063870000000 1.0
C      1  0.7208400000000  0.5175860000000  0.6007600000000 1.0
C      1  0.7375310000000  0.5196450000000  0.4474800000000 1.0
C      1  0.6609540000000  0.5183350000000  0.3175540000000 1.0
C      1  0.5223980000000  0.5194360000000  0.2576840000000 1.0
C      1  0.6414470000000  0.3272160000000  0.4171360000000 1.0
C      1  0.5654560000000  0.3270940000000  0.3500440000000 1.0
C      1  0.4649970000000  0.3306530000000  0.3412650000000 1.0
C      1  0.3782050000000  0.3215500000000  0.3921690000000 1.0
C      1  0.3377100000000  0.3310230000000  0.4841430000000 1.0
C      1  0.3585510000000  0.3271860000000  0.5828650000000 1.0
C      1  0.4345130000000  0.3270850000000  0.6499710000000 1.0
C      1  0.5350200000000  0.3306570000000  0.6587550000000 1.0
C      1  0.6218200000000  0.3215600000000  0.6078500000000 1.0
C      1  0.6622850000000  0.3310270000000  0.5158250000000 1.0
END
