TITL C-1525613-7943-2937 0.53035158597655 3375 -8367.48521687032 0 0 60 (C5) n - 1
REM
REM in /home/nfs/bkarasulu/CARBON/AIRSS/Generating-Clusters/ReaxFF-fromJPCA2015/Units_Real/Try2-Higher-symm/Only-C60
REM
REM
REM
REM
REM
REM ./C.cell (863b2abdce7293c0672fb3ba77bf323a)
REM AIRSS Version 0.9.1 bugfix July 2018 build 013d7b7c2542+ Fri, 06 Jul 2018 19:26:36 +0100
REM compiler GCC version 9.2.1 20190827 (Red Hat 9.2.1-1)
REM options -cpp -mtune=generic -march=x86-64 -g -O0 -fpre-include=/usr/include/finclude/math-vector-fortran.h
REM seed -176895269 -2058886807 705129109 -230641448 -629620574 -1689204719 1852772868 -216802005 1178243425 -426439338 118050036 1621210907 1644280881 -281390374 1702515579 -685181365 -556746515 -32688855 -1566742981 -1693334116 -531567933 238394481 542919016 434965248 -1100366087 207931179 -1134047795 134881024 589963980 969287847 -709424318 -1579810061 -1245833411
REM
CELL 1.54180   15.00000   15.00000   15.00000   90.00000   90.00000   90.00000
LATT -1
SFAC C  
C      1  0.2967640000000  0.5000650000000  0.6560610000000 1.0
C      1  0.2969320000000  0.3513380000000  0.5478240000000 1.0
C      1  0.2972460000000  0.4081670000000  0.3736010000000 1.0
C      1  0.2965140000000  0.5930030000000  0.3724450000000 1.0
C      1  0.2961450000000  0.6485720000000  0.5480210000000 1.0
C      1  0.2969160000000  0.5002440000000  0.3434480000000 1.0
C      1  0.2963410000000  0.3521220000000  0.4513760000000 1.0
C      1  0.2973050000000  0.4086020000000  0.6263030000000 1.0
C      1  0.2964660000000  0.5928280000000  0.6272060000000 1.0
C      1  0.2959070000000  0.6488020000000  0.4523810000000 1.0
C      1  0.5802400000000  0.3486890000000  0.5489230000000 1.0
C      1  0.5805940000000  0.4066830000000  0.3713520000000 1.0
C      1  0.5807120000000  0.5936160000000  0.3715870000000 1.0
C      1  0.5804470000000  0.6509570000000  0.5495920000000 1.0
C      1  0.5803230000000  0.4994760000000  0.6587300000000 1.0
C      1  0.5802460000000  0.3487360000000  0.4511190000000 1.0
C      1  0.5805930000000  0.4066560000000  0.6286500000000 1.0
C      1  0.5807010000000  0.5936300000000  0.6284140000000 1.0
C      1  0.5804240000000  0.6510280000000  0.4503630000000 1.0
C      1  0.5803480000000  0.4994260000000  0.3413420000000 1.0
C      1  0.4561090000000  0.4681290000000  0.7564120000000 1.0
C      1  0.4568460000000  0.2468020000000  0.5482070000000 1.0
C      1  0.4579340000000  0.3750420000000  0.2733950000000 1.0
C      1  0.4572250000000  0.6751080000000  0.3103780000000 1.0
C      1  0.4557570000000  0.7337420000000  0.6107590000000 1.0
C      1  0.4557320000000  0.4686410000000  0.2436540000000 1.0
C      1  0.4567910000000  0.2464750000000  0.4517380000000 1.0
C      1  0.4579170000000  0.3752720000000  0.7264330000000 1.0
C      1  0.4580090000000  0.6758650000000  0.6893910000000 1.0
C      1  0.4557210000000  0.7342090000000  0.3894640000000 1.0
C      1  0.7452050000000  0.4210680000000  0.6086380000000 1.0
C      1  0.7451450000000  0.3722820000000  0.4585060000000 1.0
C      1  0.7452510000000  0.4999960000000  0.3657180000000 1.0
C      1  0.7452070000000  0.6277190000000  0.4585040000000 1.0
C      1  0.7452430000000  0.5789300000000  0.6086310000000 1.0
C      1  0.7452050000000  0.4210680000000  0.3913620000000 1.0
C      1  0.7451450000000  0.3722820000000  0.5414930000000 1.0
C      1  0.7452510000000  0.4999960000000  0.6342820000000 1.0
C      1  0.7452070000000  0.6277190000000  0.5414960000000 1.0
C      1  0.7452430000000  0.5789300000000  0.3913690000000 1.0
C      1  0.5354320000000  0.6209950000000  0.2874950000000 1.0
C      1  0.5331740000000  0.7380810000000  0.5498140000000 1.0
C      1  0.5343700000000  0.5260970000000  0.7420710000000 1.0
C      1  0.5344530000000  0.2779650000000  0.5999570000000 1.0
C      1  0.5341310000000  0.3359410000000  0.3190840000000 1.0
C      1  0.5350930000000  0.6210790000000  0.7124520000000 1.0
C      1  0.5334010000000  0.7378680000000  0.4503730000000 1.0
C      1  0.5344870000000  0.5260840000000  0.2577930000000 1.0
C      1  0.5341690000000  0.2779390000000  0.4002410000000 1.0
C      1  0.5340910000000  0.3359490000000  0.6809260000000 1.0
C      1  0.3879450000000  0.6233500000000  0.3538920000000 1.0
C      1  0.3859290000000  0.6769760000000  0.5703950000000 1.0
C      1  0.3854610000000  0.4883050000000  0.6901430000000 1.0
C      1  0.3873270000000  0.3122720000000  0.5466280000000 1.0
C      1  0.3871240000000  0.4001750000000  0.3373240000000 1.0
C      1  0.3875390000000  0.6226400000000  0.6465300000000 1.0
C      1  0.3861170000000  0.6764480000000  0.4291650000000 1.0
C      1  0.3853320000000  0.4874390000000  0.3101870000000 1.0
C      1  0.3861340000000  0.3130000000000  0.4543520000000 1.0
C      1  0.3869830000000  0.3994800000000  0.6626070000000 1.0
END
