TITL C-1525613-7943-7789 0.0512493827167332 3375 -8479.00949646309 0 0 60 (C2) n - 1
REM
REM in /home/nfs/bkarasulu/CARBON/AIRSS/Generating-Clusters/ReaxFF-fromJPCA2015/Units_Real/Try2-Higher-symm/Only-C60
REM
REM
REM
REM
REM
REM ./C.cell (863b2abdce7293c0672fb3ba77bf323a)
REM AIRSS Version 0.9.1 bugfix July 2018 build 013d7b7c2542+ Fri, 06 Jul 2018 19:26:36 +0100
REM compiler GCC version 9.2.1 20190827 (Red Hat 9.2.1-1)
REM options -cpp -mtune=generic -march=x86-64 -g -O0 -fpre-include=/usr/include/finclude/math-vector-fortran.h
REM seed -1163415040 -1684989805 1748413539 -1161039626 877486296 -1292336410 -389783184 -1339213296 253008806 -1881413950 -787932555 1256073709 127775114 2042813322 -1770518941 -1276715431 -1761830348 696459709 -991331459 -1703638518 -738356163 -2071103374 -1795612523 -129665011 -2129149883 -1215852140 -281463850 -597465286 -2118692665 1850812291 -1286888332 -787094120 -204595685
REM
CELL 1.54180   15.00000   15.00000   15.00000   90.00000   90.00000   90.00000
LATT -1
SFAC C  
C      1  0.3568810000000  0.4131840000000  0.6010970000000 1.0
C      1  0.4343890000000  0.3465780000000  0.6013310000000 1.0
C      1  0.5376160000000  0.3345060000000  0.6080800000000 1.0
C      1  0.6243310000000  0.3940170000000  0.5971340000000 1.0
C      1  0.6684770000000  0.4837960000000  0.6075250000000 1.0
C      1  0.6431210000000  0.5868230000000  0.6010950000000 1.0
C      1  0.5656050000000  0.6534200000000  0.6013310000000 1.0
C      1  0.4623820000000  0.6654980000000  0.6080730000000 1.0
C      1  0.3756710000000  0.6059750000000  0.5971480000000 1.0
C      1  0.3315090000000  0.5161750000000  0.6074990000000 1.0
C      1  0.3378460000000  0.4627310000000  0.3991050000000 1.0
C      1  0.3896600000000  0.3715870000000  0.3962330000000 1.0
C      1  0.4862500000000  0.3325430000000  0.3958510000000 1.0
C      1  0.5839260000000  0.3564130000000  0.3991690000000 1.0
C      1  0.6566680000000  0.4376040000000  0.3934240000000 1.0
C      1  0.6621540000000  0.5372690000000  0.3991040000000 1.0
C      1  0.6103400000000  0.6284130000000  0.3962330000000 1.0
C      1  0.5137500000000  0.6674570000000  0.3958520000000 1.0
C      1  0.4160730000000  0.6435880000000  0.3991700000000 1.0
C      1  0.3433320000000  0.5623960000000  0.3934240000000 1.0
C      1  0.5926650000000  0.7231840000000  0.5272130000000 1.0
C      1  0.4457760000000  0.7379780000000  0.5338620000000 1.0
C      1  0.3170040000000  0.6543160000000  0.5254370000000 1.0
C      1  0.2571430000000  0.5246300000000  0.5331210000000 1.0
C      1  0.2933050000000  0.3756800000000  0.5277880000000 1.0
C      1  0.4073360000000  0.2768220000000  0.5272200000000 1.0
C      1  0.5542240000000  0.2620180000000  0.5338540000000 1.0
C      1  0.6829940000000  0.3456860000000  0.5254410000000 1.0
C      1  0.7428640000000  0.4753690000000  0.5331120000000 1.0
C      1  0.7066930000000  0.6243190000000  0.5277910000000 1.0
C      1  0.4191760000000  0.6329250000000  0.2994430000000 1.0
C      1  0.3561570000000  0.5598100000000  0.2933170000000 1.0
C      1  0.3487350000000  0.4639760000000  0.2989870000000 1.0
C      1  0.3982510000000  0.3815480000000  0.2953790000000 1.0
C      1  0.4873910000000  0.3450200000000  0.2946440000000 1.0
C      1  0.5808240000000  0.3670750000000  0.2994430000000 1.0
C      1  0.6438430000000  0.4401900000000  0.2933170000000 1.0
C      1  0.6512650000000  0.5360230000000  0.2989870000000 1.0
C      1  0.6017490000000  0.6184520000000  0.2953790000000 1.0
C      1  0.5126090000000  0.6549800000000  0.2946440000000 1.0
C      1  0.3658790000000  0.4201880000000  0.7017660000000 1.0
C      1  0.4382450000000  0.3567840000000  0.7021320000000 1.0
C      1  0.5338410000000  0.3484570000000  0.7084630000000 1.0
C      1  0.6164500000000  0.3977110000000  0.6982830000000 1.0
C      1  0.6546290000000  0.4860370000000  0.7081090000000 1.0
C      1  0.6341200000000  0.5798110000000  0.7017710000000 1.0
C      1  0.5617640000000  0.6432130000000  0.7021370000000 1.0
C      1  0.4661420000000  0.6515390000000  0.7084610000000 1.0
C      1  0.3835700000000  0.6023080000000  0.6983030000000 1.0
C      1  0.3453720000000  0.5139790000000  0.7081050000000 1.0
C      1  0.2637410000000  0.4494000000000  0.4737550000000 1.0
C      1  0.3415110000000  0.3164930000000  0.4695850000000 1.0
C      1  0.4825610000000  0.2570810000000  0.4707280000000 1.0
C      1  0.6217430000000  0.2925450000000  0.4726710000000 1.0
C      1  0.7259440000000  0.4085380000000  0.4663690000000 1.0
C      1  0.7362600000000  0.5505980000000  0.4737550000000 1.0
C      1  0.6584880000000  0.6835070000000  0.4695850000000 1.0
C      1  0.5174410000000  0.7429180000000  0.4707270000000 1.0
C      1  0.3782560000000  0.7074520000000  0.4726700000000 1.0
C      1  0.2740570000000  0.5914640000000  0.4663680000000 1.0
END
