TITL C-1525613-7943-5694 -4.97739218239641e-05 3375 -9532.94459223125 0 0 60 (D5d) n - 1
REM
REM in /home/nfs/bkarasulu/CARBON/AIRSS/Generating-Clusters/ReaxFF-fromJPCA2015/Units_Real/Try2-Higher-symm/Only-C60
REM
REM
REM
REM
REM
REM ./C.cell (863b2abdce7293c0672fb3ba77bf323a)
REM AIRSS Version 0.9.1 bugfix July 2018 build 013d7b7c2542+ Fri, 06 Jul 2018 19:26:36 +0100
REM compiler GCC version 9.2.1 20190827 (Red Hat 9.2.1-1)
REM options -cpp -mtune=generic -march=x86-64 -g -O0 -fpre-include=/usr/include/finclude/math-vector-fortran.h
REM seed -1259915771 1714085540 -1004156578 226507154 297900674 1608012187 821312385 1715183397 1860558465 1483775738 445191466 816408741 1387950696 -350041750 -1652075792 -289850035 -2006559393 1031963997 1031689712 710977183 -861872603 -1125963314 122627971 104866739 2142167493 465014023 -9967837 -347650879 1518751222 -7595369 -1230551930 -319525067 -21768518
REM
CELL 1.54180   15.00000   15.00000   15.00000   90.00000   90.00000   90.00000
LATT -1
SFAC C  
C      1  0.3266910000000  0.5409100000000  0.6569400000000 1.0
C      1  0.5957040000000  0.5409080000000  0.7133130000000 1.0
C      1  0.7324610000000  0.5409320000000  0.4749040000000 1.0
C      1  0.5479590000000  0.5409520000000  0.2711810000000 1.0
C      1  0.2971830000000  0.5409400000000  0.3836820000000 1.0
C      1  0.6733330000000  0.5409130000000  0.6569110000000 1.0
C      1  0.4043290000000  0.5409060000000  0.7133300000000 1.0
C      1  0.2675340000000  0.5409300000000  0.4749420000000 1.0
C      1  0.4520030000000  0.5409520000000  0.2711900000000 1.0
C      1  0.7027970000000  0.5409430000000  0.3836480000000 1.0
C      1  0.3717330000000  0.6899300000000  0.4076790000000 1.0
C      1  0.3725280000000  0.6899070000000  0.5934630000000 1.0
C      1  0.5494810000000  0.6899010000000  0.6501010000000 1.0
C      1  0.6580570000000  0.6899240000000  0.4993400000000 1.0
C      1  0.5481910000000  0.6899290000000  0.3495160000000 1.0
C      1  0.6282510000000  0.6899330000000  0.4076550000000 1.0
C      1  0.6274800000000  0.6899080000000  0.5934390000000 1.0
C      1  0.4505370000000  0.6899000000000  0.6501110000000 1.0
C      1  0.3419380000000  0.6899220000000  0.4993680000000 1.0
C      1  0.4517830000000  0.6899280000000  0.3495260000000 1.0
C      1  0.4518120000000  0.3100690000000  0.6504900000000 1.0
C      1  0.6282660000000  0.3100690000000  0.5923260000000 1.0
C      1  0.6274640000000  0.3100940000000  0.4065380000000 1.0
C      1  0.4505170000000  0.3100970000000  0.3498890000000 1.0
C      1  0.3419530000000  0.3100790000000  0.5006590000000 1.0
C      1  0.5482190000000  0.3100680000000  0.6504840000000 1.0
C      1  0.3717560000000  0.3100690000000  0.5923440000000 1.0
C      1  0.3725230000000  0.3100920000000  0.4065570000000 1.0
C      1  0.5494610000000  0.3100980000000  0.3498820000000 1.0
C      1  0.6580520000000  0.3100800000000  0.5006350000000 1.0
C      1  0.3337450000000  0.6216250000000  0.3501660000000 1.0
C      1  0.3061000000000  0.6215950000000  0.6118210000000 1.0
C      1  0.5464190000000  0.6215870000000  0.7189500000000 1.0
C      1  0.7225910000000  0.6216090000000  0.5235250000000 1.0
C      1  0.5911390000000  0.6216300000000  0.2956020000000 1.0
C      1  0.6662300000000  0.6216270000000  0.3501370000000 1.0
C      1  0.6939130000000  0.6215980000000  0.6117870000000 1.0
C      1  0.4536140000000  0.6215860000000  0.7189590000000 1.0
C      1  0.2774100000000  0.6216060000000  0.5235620000000 1.0
C      1  0.4088260000000  0.6216290000000  0.2956180000000 1.0
C      1  0.6662550000000  0.3783750000000  0.6498360000000 1.0
C      1  0.6938940000000  0.3784050000000  0.3881810000000 1.0
C      1  0.4535810000000  0.3784130000000  0.2810430000000 1.0
C      1  0.2774160000000  0.3783910000000  0.4764760000000 1.0
C      1  0.4088620000000  0.3783700000000  0.7044010000000 1.0
C      1  0.3337740000000  0.3783730000000  0.6498610000000 1.0
C      1  0.3060890000000  0.3784020000000  0.3882120000000 1.0
C      1  0.5463860000000  0.3784140000000  0.2810360000000 1.0
C      1  0.7225830000000  0.3783940000000  0.4764400000000 1.0
C      1  0.5911760000000  0.3783720000000  0.7043870000000 1.0
C      1  0.2675410000000  0.4590670000000  0.5250960000000 1.0
C      1  0.4520410000000  0.4590490000000  0.7288180000000 1.0
C      1  0.7028170000000  0.4590600000000  0.6163190000000 1.0
C      1  0.6733060000000  0.4590900000000  0.3430610000000 1.0
C      1  0.4042960000000  0.4590930000000  0.2866850000000 1.0
C      1  0.7324630000000  0.4590700000000  0.5250580000000 1.0
C      1  0.5479970000000  0.4590490000000  0.7288110000000 1.0
C      1  0.2972030000000  0.4590570000000  0.6163510000000 1.0
C      1  0.3266680000000  0.4590880000000  0.3430890000000 1.0
C      1  0.5956700000000  0.4590940000000  0.2866690000000 1.0
END
