TITL C-1525613-7943-1808 0.232216537263481 3375 -8908.36849926308 0 0 60 (Cs) n - 1
REM
REM in /home/nfs/bkarasulu/CARBON/AIRSS/Generating-Clusters/ReaxFF-fromJPCA2015/Units_Real/Try2-Higher-symm/Only-C60
REM
REM
REM
REM
REM
REM ./C.cell (863b2abdce7293c0672fb3ba77bf323a)
REM AIRSS Version 0.9.1 bugfix July 2018 build 013d7b7c2542+ Fri, 06 Jul 2018 19:26:36 +0100
REM compiler GCC version 9.2.1 20190827 (Red Hat 9.2.1-1)
REM options -cpp -mtune=generic -march=x86-64 -g -O0 -fpre-include=/usr/include/finclude/math-vector-fortran.h
REM seed -502127082 1304237324 -1598325814 503874058 -2066633741 -200515694 1193168025 711628 5857227 -1757687587 -1582227648 -1180227571 -444625828 -670143472 1465463699 -2137389772 107543399 -567971494 964071761 652829724 -2085226016 479719883 299832200 -851711452 297890684 1054993553 1908811083 -323738333 351908225 -955683149 -1716256275 -1058634055 -1310840051
REM
CELL 1.54180   15.00000   15.00000   15.00000   90.00000   90.00000   90.00000
LATT -1
SFAC C  
C      1  0.4999200000000  0.6561940000000  0.7034960000000 1.0
C      1  0.3508330000000  0.5481220000000  0.7011920000000 1.0
C      1  0.4081030000000  0.3741760000000  0.7008360000000 1.0
C      1  0.5926880000000  0.3738720000000  0.7031070000000 1.0
C      1  0.6498310000000  0.5476860000000  0.7013100000000 1.0
C      1  0.4999210000000  0.3438020000000  0.7034890000000 1.0
C      1  0.3508070000000  0.4518850000000  0.7011510000000 1.0
C      1  0.4081090000000  0.6258310000000  0.7008260000000 1.0
C      1  0.5926870000000  0.6261290000000  0.7031070000000 1.0
C      1  0.6498300000000  0.4523140000000  0.7013110000000 1.0
C      1  0.4066750000000  0.3727860000000  0.3104320000000 1.0
C      1  0.5921190000000  0.3720350000000  0.3103290000000 1.0
C      1  0.6503230000000  0.5480860000000  0.3103090000000 1.0
C      1  0.5007200000000  0.6576880000000  0.3102540000000 1.0
C      1  0.3501560000000  0.5494880000000  0.3100850000000 1.0
C      1  0.4066760000000  0.6272140000000  0.3104320000000 1.0
C      1  0.5921190000000  0.6279650000000  0.3103290000000 1.0
C      1  0.6503230000000  0.4519150000000  0.3103080000000 1.0
C      1  0.5007190000000  0.3423110000000  0.3102560000000 1.0
C      1  0.3501550000000  0.4505130000000  0.3100870000000 1.0
C      1  0.5282520000000  0.2598010000000  0.4579650000000 1.0
C      1  0.7382340000000  0.4520310000000  0.4587760000000 1.0
C      1  0.6186620000000  0.7106710000000  0.4580270000000 1.0
C      1  0.3359370000000  0.6787280000000  0.4589220000000 1.0
C      1  0.2792170000000  0.3988130000000  0.4583720000000 1.0
C      1  0.5282530000000  0.7401990000000  0.4579670000000 1.0
C      1  0.7382340000000  0.5479690000000  0.4587760000000 1.0
C      1  0.6186620000000  0.2893300000000  0.4580270000000 1.0
C      1  0.3359410000000  0.3212680000000  0.4589290000000 1.0
C      1  0.2791900000000  0.6011430000000  0.4584440000000 1.0
C      1  0.3126800000000  0.5462650000000  0.6129710000000 1.0
C      1  0.4002990000000  0.3377270000000  0.6120030000000 1.0
C      1  0.6180300000000  0.3511440000000  0.6112210000000 1.0
C      1  0.6749830000000  0.5713540000000  0.6108250000000 1.0
C      1  0.4920780000000  0.6908520000000  0.6118850000000 1.0
C      1  0.3127710000000  0.4536340000000  0.6131010000000 1.0
C      1  0.4002960000000  0.6622780000000  0.6120070000000 1.0
C      1  0.6180310000000  0.6488540000000  0.6112210000000 1.0
C      1  0.6749820000000  0.4286450000000  0.6108250000000 1.0
C      1  0.4920870000000  0.3091460000000  0.6118850000000 1.0
C      1  0.2532320000000  0.4519000000000  0.5351660000000 1.0
C      1  0.4706420000000  0.2503190000000  0.5363680000000 1.0
C      1  0.7265720000000  0.3954540000000  0.5359330000000 1.0
C      1  0.6706950000000  0.6841560000000  0.5364710000000 1.0
C      1  0.3787230000000  0.7178980000000  0.5359050000000 1.0
C      1  0.2532220000000  0.5482300000000  0.5350410000000 1.0
C      1  0.4706490000000  0.7496860000000  0.5363650000000 1.0
C      1  0.7265710000000  0.6045460000000  0.5359340000000 1.0
C      1  0.6706950000000  0.3158450000000  0.5364710000000 1.0
C      1  0.3787210000000  0.2821000000000  0.5358990000000 1.0
C      1  0.4779730000000  0.7189860000000  0.3814270000000 1.0
C      1  0.2848130000000  0.5466840000000  0.3814570000000 1.0
C      1  0.3892750000000  0.3096460000000  0.3817990000000 1.0
C      1  0.6466710000000  0.3358980000000  0.3814590000000 1.0
C      1  0.7016430000000  0.5888160000000  0.3816840000000 1.0
C      1  0.4779720000000  0.2810140000000  0.3814280000000 1.0
C      1  0.2848120000000  0.4533200000000  0.3814530000000 1.0
C      1  0.3892740000000  0.6903550000000  0.3818000000000 1.0
C      1  0.6466710000000  0.6641010000000  0.3814590000000 1.0
C      1  0.7016420000000  0.4111840000000  0.3816830000000 1.0
END
