TITL C-1525613-7943-6597 0.0103980804607977 3375 -8952.17673694308 0 0 60 (C1) n - 1
REM
REM in /home/nfs/bkarasulu/CARBON/AIRSS/Generating-Clusters/ReaxFF-fromJPCA2015/Units_Real/Try2-Higher-symm/Only-C60
REM
REM
REM
REM
REM
REM ./C.cell (863b2abdce7293c0672fb3ba77bf323a)
REM AIRSS Version 0.9.1 bugfix July 2018 build 013d7b7c2542+ Fri, 06 Jul 2018 19:26:36 +0100
REM compiler GCC version 9.2.1 20190827 (Red Hat 9.2.1-1)
REM options -cpp -mtune=generic -march=x86-64 -g -O0 -fpre-include=/usr/include/finclude/math-vector-fortran.h
REM seed 750788284 -1851136787 763953415 -240914056 -1007843751 -1596824820 -2055029760 1615928285 -1874885214 -1690863998 1756484931 -1712892875 -715074536 766430778 1579799044 -1957557151 -1237545973 -1345853151 725855509 738275085 -68935913 971010712 -1590858948 62928181 -577161500 -1017652266 -484495986 520881070 -1739447994 1304869156 -903391404 1567011221 522787982
REM
CELL 1.54180   15.00000   15.00000   15.00000   90.00000   90.00000   90.00000
LATT -1
SFAC C  
C      1  0.4353370000000  0.5318860000000  0.2951270000000 1.0
C      1  0.4502500000000  0.3150520000000  0.4134660000000 1.0
C      1  0.4084310000000  0.3668270000000  0.6643220000000 1.0
C      1  0.4852670000000  0.5801580000000  0.6715250000000 1.0
C      1  0.4120570000000  0.6954520000000  0.3977220000000 1.0
C      1  0.5642280000000  0.5313240000000  0.7048250000000 1.0
C      1  0.5499550000000  0.3146310000000  0.5868390000000 1.0
C      1  0.5913780000000  0.3670650000000  0.3360170000000 1.0
C      1  0.5144450000000  0.5807070000000  0.3283560000000 1.0
C      1  0.5878560000000  0.6945220000000  0.6019010000000 1.0
C      1  0.4251270000000  0.8057140000000  0.5466610000000 1.0
C      1  0.3050550000000  0.5458130000000  0.2376850000000 1.0
C      1  0.3354370000000  0.2978390000000  0.3327490000000 1.0
C      1  0.3995350000000  0.2294630000000  0.6466880000000 1.0
C      1  0.3274300000000  0.5987730000000  0.6200500000000 1.0
C      1  0.5750860000000  0.8061230000000  0.4528640000000 1.0
C      1  0.6946100000000  0.5430040000000  0.7616490000000 1.0
C      1  0.6652220000000  0.2977920000000  0.6671720000000 1.0
C      1  0.6004320000000  0.2295890000000  0.3530000000000 1.0
C      1  0.6720220000000  0.5988140000000  0.3807790000000 1.0
C      1  0.5947540000000  0.3354860000000  0.5056160000000 1.0
C      1  0.6028810000000  0.4519540000000  0.6606050000000 1.0
C      1  0.6599990000000  0.6307990000000  0.6176790000000 1.0
C      1  0.5004320000000  0.6703700000000  0.3657100000000 1.0
C      1  0.6340200000000  0.4526060000000  0.3526440000000 1.0
C      1  0.4055120000000  0.3359180000000  0.4946210000000 1.0
C      1  0.3969870000000  0.4525020000000  0.3394940000000 1.0
C      1  0.3399730000000  0.6315740000000  0.3828420000000 1.0
C      1  0.4993370000000  0.6695580000000  0.6335700000000 1.0
C      1  0.3655230000000  0.4523720000000  0.6479550000000 1.0
C      1  0.6877720000000  0.4592350000000  0.4344550000000 1.0
C      1  0.6609680000000  0.4053830000000  0.5107280000000 1.0
C      1  0.6582770000000  0.4701650000000  0.5847870000000 1.0
C      1  0.6838270000000  0.5600920000000  0.5557440000000 1.0
C      1  0.7043650000000  0.5508350000000  0.4605560000000 1.0
C      1  0.3121170000000  0.4593380000000  0.5658410000000 1.0
C      1  0.3393460000000  0.4058240000000  0.4894880000000 1.0
C      1  0.3420930000000  0.4707960000000  0.4157020000000 1.0
C      1  0.3166480000000  0.5606140000000  0.4447440000000 1.0
C      1  0.2956140000000  0.5509510000000  0.5399040000000 1.0
C      1  0.5976480000000  0.7727330000000  0.5416070000000 1.0
C      1  0.6661060000000  0.6982240000000  0.3682930000000 1.0
C      1  0.6346480000000  0.2891410000000  0.2835470000000 1.0
C      1  0.7303090000000  0.2491290000000  0.6663140000000 1.0
C      1  0.7426340000000  0.4977150000000  0.8095060000000 1.0
C      1  0.4021980000000  0.7744910000000  0.4571470000000 1.0
C      1  0.3336890000000  0.6982020000000  0.6319090000000 1.0
C      1  0.3649570000000  0.2886460000000  0.7162820000000 1.0
C      1  0.2709030000000  0.2484270000000  0.3337990000000 1.0
C      1  0.2575250000000  0.5010120000000  0.1887410000000 1.0
C      1  0.6401650000000  0.5950870000000  0.7080630000000 1.0
C      1  0.5741160000000  0.7330600000000  0.3805200000000 1.0
C      1  0.6038670000000  0.5441230000000  0.3349540000000 1.0
C      1  0.5545300000000  0.3116910000000  0.4132570000000 1.0
C      1  0.5898450000000  0.3533270000000  0.6679000000000 1.0
C      1  0.3598500000000  0.5960400000000  0.2923860000000 1.0
C      1  0.4258480000000  0.7323910000000  0.6185250000000 1.0
C      1  0.3956230000000  0.5438520000000  0.6657780000000 1.0
C      1  0.4455950000000  0.3117800000000  0.5869590000000 1.0
C      1  0.4103400000000  0.3540110000000  0.3324300000000 1.0
END
