TITL C-1525613-7943-1224 0.0138742305655115 3375 -8605.97022158514 0 0 60 (C1) n - 1
REM
REM in /home/nfs/bkarasulu/CARBON/AIRSS/Generating-Clusters/ReaxFF-fromJPCA2015/Units_Real/Try2-Higher-symm/Only-C60
REM
REM
REM
REM
REM
REM ./C.cell (863b2abdce7293c0672fb3ba77bf323a)
REM AIRSS Version 0.9.1 bugfix July 2018 build 013d7b7c2542+ Fri, 06 Jul 2018 19:26:36 +0100
REM compiler GCC version 9.2.1 20190827 (Red Hat 9.2.1-1)
REM options -cpp -mtune=generic -march=x86-64 -g -O0 -fpre-include=/usr/include/finclude/math-vector-fortran.h
REM seed -660459718 -353107650 -1575127540 -1815401218 -303902109 992432757 -1586356273 1394053839 -33173628 -1543021372 2070975111 -1963032511 381566228 -477693845 229682410 -1262827999 1695180150 11341874 574765186 -519979437 1438173663 566694770 2031406912 2145580228 530352378 1416570767 1331304781 1264912285 1447501179 -1676512562 -1550641715 -1090106185 2073047384
REM
CELL 1.54180   15.00000   15.00000   15.00000   90.00000   90.00000   90.00000
LATT -1
SFAC C  
C      1  0.2900240000000  0.5617050000000  0.6097700000000 1.0
C      1  0.4979960000000  0.7203080000000  0.6095160000000 1.0
C      1  0.7087270000000  0.5699420000000  0.6104120000000 1.0
C      1  0.6323500000000  0.3229570000000  0.6097360000000 1.0
C      1  0.3728280000000  0.3206170000000  0.6117850000000 1.0
C      1  0.2899790000000  0.4382300000000  0.3901840000000 1.0
C      1  0.4979910000000  0.2797060000000  0.3904740000000 1.0
C      1  0.7087200000000  0.4300580000000  0.3895900000000 1.0
C      1  0.6323460000000  0.6770390000000  0.3902670000000 1.0
C      1  0.3727890000000  0.6793880000000  0.3882050000000 1.0
C      1  0.4274280000000  0.6188900000000  0.6775050000000 1.0
C      1  0.5898220000000  0.6039630000000  0.6784470000000 1.0
C      1  0.6267850000000  0.4464090000000  0.6777960000000 1.0
C      1  0.4896040000000  0.3611920000000  0.6789680000000 1.0
C      1  0.3702050000000  0.4683050000000  0.6805070000000 1.0
C      1  0.4274320000000  0.3811030000000  0.3224790000000 1.0
C      1  0.5898170000000  0.3960380000000  0.3215480000000 1.0
C      1  0.6267880000000  0.5535870000000  0.3222060000000 1.0
C      1  0.4896020000000  0.6388370000000  0.3210960000000 1.0
C      1  0.3701980000000  0.5316990000000  0.3194890000000 1.0
C      1  0.5128340000000  0.3382110000000  0.3085300000000 1.0
C      1  0.3494130000000  0.4377470000000  0.3085000000000 1.0
C      1  0.3955610000000  0.6243810000000  0.3057290000000 1.0
C      1  0.5856070000000  0.6398970000000  0.3077640000000 1.0
C      1  0.6581430000000  0.4629080000000  0.3077140000000 1.0
C      1  0.5128290000000  0.6617900000000  0.6914600000000 1.0
C      1  0.3494010000000  0.5622510000000  0.6914730000000 1.0
C      1  0.3955740000000  0.3756190000000  0.6942870000000 1.0
C      1  0.5855990000000  0.3601020000000  0.6922430000000 1.0
C      1  0.6581380000000  0.5370940000000  0.6922900000000 1.0
C      1  0.7489090000000  0.4766120000000  0.4622840000000 1.0
C      1  0.5551650000000  0.2559930000000  0.4623250000000 1.0
C      1  0.2833110000000  0.3784980000000  0.4650450000000 1.0
C      1  0.3126570000000  0.6614760000000  0.4594500000000 1.0
C      1  0.6004720000000  0.7300160000000  0.4627090000000 1.0
C      1  0.7489140000000  0.5233850000000  0.5377140000000 1.0
C      1  0.5551750000000  0.7440140000000  0.5376730000000 1.0
C      1  0.2832770000000  0.6215170000000  0.5349800000000 1.0
C      1  0.3126980000000  0.3385260000000  0.5405570000000 1.0
C      1  0.6004690000000  0.2699880000000  0.5372810000000 1.0
C      1  0.4851120000000  0.4112770000000  0.5875680000000 1.0
C      1  0.4115730000000  0.4849310000000  0.5878040000000 1.0
C      1  0.4591400000000  0.5801410000000  0.5867170000000 1.0
C      1  0.5635330000000  0.5620210000000  0.5871260000000 1.0
C      1  0.5778250000000  0.4578490000000  0.5864110000000 1.0
C      1  0.4851420000000  0.5886860000000  0.4124250000000 1.0
C      1  0.4116390000000  0.5150490000000  0.4121750000000 1.0
C      1  0.4591490000000  0.4198740000000  0.4132690000000 1.0
C      1  0.5635310000000  0.4379660000000  0.4128760000000 1.0
C      1  0.5778300000000  0.5421380000000  0.4135780000000 1.0
C      1  0.6428090000000  0.3924490000000  0.4516760000000 1.0
C      1  0.4416630000000  0.3302380000000  0.4531920000000 1.0
C      1  0.3161930000000  0.5114810000000  0.4524730000000 1.0
C      1  0.4479640000000  0.6711070000000  0.4507790000000 1.0
C      1  0.6463370000000  0.6025410000000  0.4523240000000 1.0
C      1  0.6428100000000  0.6075590000000  0.5483390000000 1.0
C      1  0.4416910000000  0.6697640000000  0.5468480000000 1.0
C      1  0.3162210000000  0.4885560000000  0.5475760000000 1.0
C      1  0.4479210000000  0.3289210000000  0.5491880000000 1.0
C      1  0.6463380000000  0.3974580000000  0.5476670000000 1.0
END
