TITL C-1525613-7943-510 0.235332499386353 3375 -8645.18240013863 0 0 60 (C5) n - 1
REM
REM in /home/nfs/bkarasulu/CARBON/AIRSS/Generating-Clusters/ReaxFF-fromJPCA2015/Units_Real/Try2-Higher-symm/Only-C60
REM
REM
REM
REM
REM
REM ./C.cell (863b2abdce7293c0672fb3ba77bf323a)
REM AIRSS Version 0.9.1 bugfix July 2018 build 013d7b7c2542+ Fri, 06 Jul 2018 19:26:36 +0100
REM compiler GCC version 9.2.1 20190827 (Red Hat 9.2.1-1)
REM options -cpp -mtune=generic -march=x86-64 -g -O0 -fpre-include=/usr/include/finclude/math-vector-fortran.h
REM seed -1319841027 -380639784 1676974722 1181920308 574596431 -703043701 1474661413 -775132937 276487449 -1330062989 -1788312750 -1126859245 -1466778137 -816582398 -542707869 2129608696 453433187 -185121844 -911630459 -2079455545 -330324684 -1642134431 -1841651038 -1988909740 -278565289 -1297237918 1423162070 614880421 675410336 1186670604 -142228198 967058667 1751437622
REM
CELL 1.54180   15.00000   15.00000   15.00000   90.00000   90.00000   90.00000
LATT -1
SFAC C  
C      1  0.4495080000000  0.6397040000000  0.6546230000000 1.0
C      1  0.6313210000000  0.6395210000000  0.5959370000000 1.0
C      1  0.6317100000000  0.6395940000000  0.4047230000000 1.0
C      1  0.4498750000000  0.6395390000000  0.3451290000000 1.0
C      1  0.3374320000000  0.6394510000000  0.4997350000000 1.0
C      1  0.5504920000000  0.6397040000000  0.6546230000000 1.0
C      1  0.3686790000000  0.6395210000000  0.5959370000000 1.0
C      1  0.3682900000000  0.6395940000000  0.4047230000000 1.0
C      1  0.5501250000000  0.6395390000000  0.3451290000000 1.0
C      1  0.6625680000000  0.6394510000000  0.4997350000000 1.0
C      1  0.7343560000000  0.3669390000000  0.4755290000000 1.0
C      1  0.5490570000000  0.3669660000000  0.2696220000000 1.0
C      1  0.2959860000000  0.3669660000000  0.3820050000000 1.0
C      1  0.3248680000000  0.3669560000000  0.6575240000000 1.0
C      1  0.5957150000000  0.3669490000000  0.7152970000000 1.0
C      1  0.2656440000000  0.3669390000000  0.4755290000000 1.0
C      1  0.4509430000000  0.3669660000000  0.2696220000000 1.0
C      1  0.7040140000000  0.3669660000000  0.3820050000000 1.0
C      1  0.6751320000000  0.3669560000000  0.6575240000000 1.0
C      1  0.4042850000000  0.3669490000000  0.7152970000000 1.0
C      1  0.3706680000000  0.7356290000000  0.5935470000000 1.0
C      1  0.5490050000000  0.7355500000000  0.6518210000000 1.0
C      1  0.6596840000000  0.7357470000000  0.5002660000000 1.0
C      1  0.5496280000000  0.7356380000000  0.3483740000000 1.0
C      1  0.3710620000000  0.7357020000000  0.4058390000000 1.0
C      1  0.6293320000000  0.7356290000000  0.5935470000000 1.0
C      1  0.4509950000000  0.7355500000000  0.6518210000000 1.0
C      1  0.3403160000000  0.7357470000000  0.5002660000000 1.0
C      1  0.4503720000000  0.7356380000000  0.3483740000000 1.0
C      1  0.6289380000000  0.7357020000000  0.4058390000000 1.0
C      1  0.6264760000000  0.5001290000000  0.4074620000000 1.0
C      1  0.4510030000000  0.4999230000000  0.3512360000000 1.0
C      1  0.3432760000000  0.5001060000000  0.5005980000000 1.0
C      1  0.4522160000000  0.4999100000000  0.6491340000000 1.0
C      1  0.6269680000000  0.4998970000000  0.5916720000000 1.0
C      1  0.3735240000000  0.5001290000000  0.4074620000000 1.0
C      1  0.5489970000000  0.4999230000000  0.3512360000000 1.0
C      1  0.6567240000000  0.5001060000000  0.5005980000000 1.0
C      1  0.5477840000000  0.4999100000000  0.6491340000000 1.0
C      1  0.3730320000000  0.4998970000000  0.5916720000000 1.0
C      1  0.5491700000000  0.4518360000000  0.7344500000000 1.0
C      1  0.7382190000000  0.4518600000000  0.5258230000000 1.0
C      1  0.5982200000000  0.4517860000000  0.2814630000000 1.0
C      1  0.3224660000000  0.4518040000000  0.3391320000000 1.0
C      1  0.2920810000000  0.4518630000000  0.6190880000000 1.0
C      1  0.4508300000000  0.4518360000000  0.7344500000000 1.0
C      1  0.2617810000000  0.4518600000000  0.5258230000000 1.0
C      1  0.4017800000000  0.4517860000000  0.2814630000000 1.0
C      1  0.6775340000000  0.4518040000000  0.3391320000000 1.0
C      1  0.7079190000000  0.4518630000000  0.6190880000000 1.0
C      1  0.6288820000000  0.3059750000000  0.4057500000000 1.0
C      1  0.4502460000000  0.3060110000000  0.3482020000000 1.0
C      1  0.3403020000000  0.3060080000000  0.5004800000000 1.0
C      1  0.4510560000000  0.3059920000000  0.6520270000000 1.0
C      1  0.6294730000000  0.3060460000000  0.5935110000000 1.0
C      1  0.3711180000000  0.3059750000000  0.4057500000000 1.0
C      1  0.5497540000000  0.3060110000000  0.3482020000000 1.0
C      1  0.6596980000000  0.3060080000000  0.5004800000000 1.0
C      1  0.5489440000000  0.3059920000000  0.6520270000000 1.0
C      1  0.3705270000000  0.3060460000000  0.5935110000000 1.0
END
