TITL C-1525613-7943-4858 0.113428612419365 3375 -8574.8427782994 0 0 60 (C2v) n - 1
REM
REM in /home/nfs/bkarasulu/CARBON/AIRSS/Generating-Clusters/ReaxFF-fromJPCA2015/Units_Real/Try2-Higher-symm/Only-C60
REM
REM
REM
REM
REM
REM ./C.cell (863b2abdce7293c0672fb3ba77bf323a)
REM AIRSS Version 0.9.1 bugfix July 2018 build 013d7b7c2542+ Fri, 06 Jul 2018 19:26:36 +0100
REM compiler GCC version 9.2.1 20190827 (Red Hat 9.2.1-1)
REM options -cpp -mtune=generic -march=x86-64 -g -O0 -fpre-include=/usr/include/finclude/math-vector-fortran.h
REM seed -1960928252 -2143467375 804976788 -1504361155 -831000218 269041666 253970510 -657628024 204304803 -297848413 -1646369442 -1875412402 -2108601980 -605723864 -1927764281 -1741006942 -1541473469 -1315692370 -1069806452 1074847598 -1267899086 -141431494 851926606 -510988461 -2130473895 -654473259 -1171769180 -825867991 653188181 -2047669115 -1245245532 -590448944 1892589496
REM
CELL 1.54180   15.00000   15.00000   15.00000   90.00000   90.00000   90.00000
LATT -1
SFAC C  
C      1  0.5859180000000  0.5724790000000  0.7545720000000 1.0
C      1  0.6361650000000  0.5207930000000  0.6935090000000 1.0
C      1  0.6140260000000  0.4226070000000  0.6932340000000 1.0
C      1  0.5467800000000  0.3975550000000  0.7547680000000 1.0
C      1  0.4748740000000  0.3878930000000  0.7934610000000 1.0
C      1  0.4139540000000  0.4273700000000  0.7546730000000 1.0
C      1  0.3634400000000  0.4792500000000  0.6934930000000 1.0
C      1  0.3854200000000  0.5770370000000  0.6933730000000 1.0
C      1  0.4528460000000  0.6023180000000  0.7553980000000 1.0
C      1  0.5249430000000  0.6116940000000  0.7939000000000 1.0
C      1  0.7041540000000  0.3707100000000  0.4697360000000 1.0
C      1  0.6007590000000  0.2401140000000  0.4429950000000 1.0
C      1  0.4371660000000  0.2275240000000  0.4433190000000 1.0
C      1  0.2954940000000  0.3100510000000  0.4426470000000 1.0
C      1  0.2601330000000  0.4726700000000  0.4698380000000 1.0
C      1  0.2962220000000  0.6295410000000  0.4695640000000 1.0
C      1  0.3989740000000  0.7592280000000  0.4429030000000 1.0
C      1  0.5626550000000  0.7717540000000  0.4433670000000 1.0
C      1  0.7047400000000  0.6897050000000  0.4426400000000 1.0
C      1  0.7397170000000  0.5276510000000  0.4698900000000 1.0
C      1  0.4519910000000  0.7046030000000  0.5967310000000 1.0
C      1  0.5493520000000  0.7151380000000  0.6027350000000 1.0
C      1  0.6326360000000  0.6642110000000  0.5965730000000 1.0
C      1  0.6634080000000  0.5751100000000  0.6168780000000 1.0
C      1  0.6148280000000  0.3626870000000  0.6167230000000 1.0
C      1  0.5484680000000  0.2952360000000  0.5969090000000 1.0
C      1  0.4512720000000  0.2849990000000  0.6019620000000 1.0
C      1  0.3675610000000  0.3356770000000  0.5970710000000 1.0
C      1  0.3371240000000  0.4255190000000  0.6168580000000 1.0
C      1  0.3853470000000  0.6373670000000  0.6171480000000 1.0
C      1  0.2967760000000  0.4172800000000  0.3244620000000 1.0
C      1  0.2833770000000  0.5502260000000  0.3320200000000 1.0
C      1  0.3533270000000  0.6642640000000  0.3241180000000 1.0
C      1  0.4790800000000  0.7093290000000  0.3191370000000 1.0
C      1  0.6097310000000  0.6787670000000  0.3191060000000 1.0
C      1  0.7030200000000  0.5828660000000  0.3242940000000 1.0
C      1  0.7163560000000  0.4498930000000  0.3320410000000 1.0
C      1  0.6469260000000  0.3359650000000  0.3243410000000 1.0
C      1  0.5210110000000  0.2909010000000  0.3195920000000 1.0
C      1  0.3900830000000  0.3216890000000  0.3194860000000 1.0
C      1  0.7172700000000  0.5405710000000  0.5402940000000 1.0
C      1  0.6781230000000  0.3694420000000  0.5402130000000 1.0
C      1  0.5841140000000  0.2502760000000  0.5153440000000 1.0
C      1  0.4390160000000  0.2344980000000  0.5181420000000 1.0
C      1  0.3149910000000  0.3120820000000  0.5147640000000 1.0
C      1  0.2827220000000  0.4598630000000  0.5401660000000 1.0
C      1  0.3221670000000  0.6306050000000  0.5399640000000 1.0
C      1  0.4154850000000  0.7493290000000  0.5153190000000 1.0
C      1  0.5609060000000  0.7646010000000  0.5182920000000 1.0
C      1  0.6856800000000  0.6880520000000  0.5149740000000 1.0
C      1  0.4006330000000  0.7312010000000  0.3430690000000 1.0
C      1  0.5544410000000  0.7367700000000  0.3451420000000 1.0
C      1  0.6898260000000  0.6640290000000  0.3429230000000 1.0
C      1  0.7441520000000  0.5217600000000  0.3659600000000 1.0
C      1  0.7107570000000  0.3733050000000  0.3660040000000 1.0
C      1  0.5994040000000  0.2687830000000  0.3435300000000 1.0
C      1  0.4453840000000  0.2636510000000  0.3453870000000 1.0
C      1  0.3100900000000  0.3363120000000  0.3432580000000 1.0
C      1  0.2555530000000  0.4783010000000  0.3659930000000 1.0
C      1  0.2892310000000  0.6268980000000  0.3657920000000 1.0
END
