TITL C-1525613-7943-4749 0.0883051481723155 3375 -8722.56436480316 0 0 60 (C1) n - 1
REM
REM in /home/nfs/bkarasulu/CARBON/AIRSS/Generating-Clusters/ReaxFF-fromJPCA2015/Units_Real/Try2-Higher-symm/Only-C60
REM
REM
REM
REM
REM
REM ./C.cell (863b2abdce7293c0672fb3ba77bf323a)
REM AIRSS Version 0.9.1 bugfix July 2018 build 013d7b7c2542+ Fri, 06 Jul 2018 19:26:36 +0100
REM compiler GCC version 9.2.1 20190827 (Red Hat 9.2.1-1)
REM options -cpp -mtune=generic -march=x86-64 -g -O0 -fpre-include=/usr/include/finclude/math-vector-fortran.h
REM seed -1959469972 -579837987 -13741200 -660910366 1660389131 281686195 1535858393 454587313 -1304234412 1575339347 -695945301 -1635421141 543478587 -482792012 8636292 987944239 -1555923858 -1603791399 -1846747030 1802856199 -1117004854 358728954 -1345059872 644198569 1644925410 1318187406 -1418201089 1633020578 986129601 459859947 -2138054079 1368667745 1904649440
REM
CELL 1.54180   15.00000   15.00000   15.00000   90.00000   90.00000   90.00000
LATT -1
SFAC C  
C      1  0.7060290000000  0.5336990000000  0.3248390000000 1.0
C      1  0.5322750000000  0.7025240000000  0.3248650000000 1.0
C      1  0.3200200000000  0.5920370000000  0.3265730000000 1.0
C      1  0.3522620000000  0.3551960000000  0.3243080000000 1.0
C      1  0.5878920000000  0.3167760000000  0.3272870000000 1.0
C      1  0.2941340000000  0.5339540000000  0.6754180000000 1.0
C      1  0.4678390000000  0.7026120000000  0.6748490000000 1.0
C      1  0.6794990000000  0.5921710000000  0.6733940000000 1.0
C      1  0.6477590000000  0.3551770000000  0.6759070000000 1.0
C      1  0.4121610000000  0.3164080000000  0.6731160000000 1.0
C      1  0.7289370000000  0.3882480000000  0.5343090000000 1.0
C      1  0.6723000000000  0.6748300000000  0.5306810000000 1.0
C      1  0.3886590000000  0.7171610000000  0.5282660000000 1.0
C      1  0.2548880000000  0.4565470000000  0.5308860000000 1.0
C      1  0.4637070000000  0.2605140000000  0.5285810000000 1.0
C      1  0.2702770000000  0.3875590000000  0.4652000000000 1.0
C      1  0.3278790000000  0.6752260000000  0.4693100000000 1.0
C      1  0.6118260000000  0.7170540000000  0.4716610000000 1.0
C      1  0.7426280000000  0.4574120000000  0.4700230000000 1.0
C      1  0.5363040000000  0.2595970000000  0.4710080000000 1.0
C      1  0.5695420000000  0.5467450000000  0.4213110000000 1.0
C      1  0.4800810000000  0.5716960000000  0.4295270000000 1.0
C      1  0.4166850000000  0.5049710000000  0.4343270000000 1.0
C      1  0.4664160000000  0.4303950000000  0.4292770000000 1.0
C      1  0.5561090000000  0.4542510000000  0.4082460000000 1.0
C      1  0.4302680000000  0.5464220000000  0.5760990000000 1.0
C      1  0.5199920000000  0.5735780000000  0.5717330000000 1.0
C      1  0.5840380000000  0.5040030000000  0.5696990000000 1.0
C      1  0.5339920000000  0.4271970000000  0.5710320000000 1.0
C      1  0.4448330000000  0.4539390000000  0.5911660000000 1.0
C      1  0.5371770000000  0.6812510000000  0.5288640000000 1.0
C      1  0.3348860000000  0.5923200000000  0.5269460000000 1.0
C      1  0.3387030000000  0.3471600000000  0.5168670000000 1.0
C      1  0.5820270000000  0.3294750000000  0.5324240000000 1.0
C      1  0.6897690000000  0.5184140000000  0.5271230000000 1.0
C      1  0.4632240000000  0.6800090000000  0.4709890000000 1.0
C      1  0.6648940000000  0.5921350000000  0.4728350000000 1.0
C      1  0.6614470000000  0.3472260000000  0.4830310000000 1.0
C      1  0.4181760000000  0.3304640000000  0.4673660000000 1.0
C      1  0.3104440000000  0.5180550000000  0.4711040000000 1.0
C      1  0.3610750000000  0.3839260000000  0.6077400000000 1.0
C      1  0.5849030000000  0.2982280000000  0.6279610000000 1.0
C      1  0.7174160000000  0.5145960000000  0.6260330000000 1.0
C      1  0.5515560000000  0.7107760000000  0.6247290000000 1.0
C      1  0.3167080000000  0.6159470000000  0.6232590000000 1.0
C      1  0.6394690000000  0.3842450000000  0.3927480000000 1.0
C      1  0.4149910000000  0.2984250000000  0.3722450000000 1.0
C      1  0.2819790000000  0.5145090000000  0.3729290000000 1.0
C      1  0.4486150000000  0.7091170000000  0.3754500000000 1.0
C      1  0.6834240000000  0.6160460000000  0.3766450000000 1.0
C      1  0.3545220000000  0.6728750000000  0.3756540000000 1.0
C      1  0.2860120000000  0.4155020000000  0.3716830000000 1.0
C      1  0.5170670000000  0.2741080000000  0.3737950000000 1.0
C      1  0.7177640000000  0.4498520000000  0.3766250000000 1.0
C      1  0.6181290000000  0.6931190000000  0.3775890000000 1.0
C      1  0.6455830000000  0.6727980000000  0.6242950000000 1.0
C      1  0.7137620000000  0.4149550000000  0.6278830000000 1.0
C      1  0.4829910000000  0.2740480000000  0.6259440000000 1.0
C      1  0.2821270000000  0.4495690000000  0.6242280000000 1.0
C      1  0.3819310000000  0.6929510000000  0.6221170000000 1.0
END
