TITL C-1525613-7943-6610 0.0316073504915238 3375 -9517.03070024853 0 0 60 (D5d) n - 1
REM
REM in /home/nfs/bkarasulu/CARBON/AIRSS/Generating-Clusters/ReaxFF-fromJPCA2015/Units_Real/Try2-Higher-symm/Only-C60
REM
REM
REM
REM
REM
REM ./C.cell (863b2abdce7293c0672fb3ba77bf323a)
REM AIRSS Version 0.9.1 bugfix July 2018 build 013d7b7c2542+ Fri, 06 Jul 2018 19:26:36 +0100
REM compiler GCC version 9.2.1 20190827 (Red Hat 9.2.1-1)
REM options -cpp -mtune=generic -march=x86-64 -g -O0 -fpre-include=/usr/include/finclude/math-vector-fortran.h
REM seed 1093216848 -746378577 -1513235709 8603206 876333624 1049012899 -1768323759 1374593827 -1813600613 -814202078 1691793599 -1768066864 -1409057773 -561748756 1935606345 114668768 -1112657711 -1935642288 -1483154449 1505465908 -2139251869 -878285956 -1028987261 1646885796 472312173 1092181683 1350707879 -252858120 -286818996 1223648128 -1215649884 349765513 1577071269
REM
CELL 1.54180   15.00000   15.00000   15.00000   90.00000   90.00000   90.00000
LATT -1
SFAC C  
C      1  0.5482110000000  0.3090450000000  0.6504890000000 1.0
C      1  0.6580550000000  0.3090590000000  0.5006260000000 1.0
C      1  0.5494770000000  0.3090650000000  0.3498550000000 1.0
C      1  0.3725310000000  0.3090380000000  0.4065470000000 1.0
C      1  0.3717450000000  0.3090100000000  0.5923520000000 1.0
C      1  0.4517960000000  0.3090010000000  0.6505180000000 1.0
C      1  0.3419590000000  0.3090380000000  0.5006630000000 1.0
C      1  0.4505270000000  0.3090510000000  0.3498700000000 1.0
C      1  0.6274770000000  0.3090630000000  0.4065120000000 1.0
C      1  0.6282480000000  0.3090570000000  0.5923210000000 1.0
C      1  0.4048880000000  0.4589110000000  0.2876020000000 1.0
C      1  0.2686140000000  0.4589010000000  0.5248200000000 1.0
C      1  0.4521130000000  0.4588860000000  0.7277510000000 1.0
C      1  0.7018040000000  0.4588960000000  0.6159510000000 1.0
C      1  0.6726160000000  0.4589330000000  0.3439310000000 1.0
C      1  0.5951230000000  0.4589690000000  0.2876120000000 1.0
C      1  0.7314270000000  0.4589360000000  0.5248410000000 1.0
C      1  0.5479130000000  0.4588980000000  0.7277570000000 1.0
C      1  0.2982220000000  0.4588790000000  0.6159240000000 1.0
C      1  0.3273840000000  0.4589080000000  0.3438970000000 1.0
C      1  0.4505540000000  0.6908740000000  0.6500630000000 1.0
C      1  0.6275190000000  0.6909520000000  0.5934770000000 1.0
C      1  0.6282070000000  0.6909500000000  0.4076780000000 1.0
C      1  0.4517450000000  0.6909670000000  0.3494790000000 1.0
C      1  0.3419090000000  0.6909390000000  0.4993300000000 1.0
C      1  0.5495000000000  0.6909260000000  0.6501230000000 1.0
C      1  0.3725370000000  0.6908960000000  0.5934120000000 1.0
C      1  0.3716690000000  0.6909660000000  0.4076290000000 1.0
C      1  0.5481530000000  0.6909490000000  0.3495390000000 1.0
C      1  0.6580650000000  0.6909490000000  0.4993540000000 1.0
C      1  0.7019220000000  0.5411280000000  0.3840600000000 1.0
C      1  0.4520960000000  0.5411310000000  0.2721420000000 1.0
C      1  0.2684960000000  0.5411120000000  0.4751410000000 1.0
C      1  0.4048310000000  0.5410780000000  0.7125000000000 1.0
C      1  0.6727100000000  0.5411000000000  0.6562200000000 1.0
C      1  0.2980840000000  0.5411190000000  0.3840280000000 1.0
C      1  0.5478920000000  0.5411690000000  0.2721780000000 1.0
C      1  0.7315300000000  0.5411470000000  0.4751750000000 1.0
C      1  0.5951940000000  0.5411010000000  0.7125240000000 1.0
C      1  0.3273190000000  0.5410720000000  0.6561980000000 1.0
C      1  0.3340160000000  0.6221280000000  0.3504700000000 1.0
C      1  0.3065350000000  0.6220750000000  0.6116200000000 1.0
C      1  0.5463920000000  0.6220940000000  0.7185070000000 1.0
C      1  0.7221430000000  0.6221180000000  0.5234360000000 1.0
C      1  0.5908610000000  0.6221330000000  0.2960210000000 1.0
C      1  0.6659210000000  0.6221450000000  0.3505210000000 1.0
C      1  0.6935160000000  0.6221180000000  0.6116400000000 1.0
C      1  0.4536480000000  0.6220660000000  0.7184680000000 1.0
C      1  0.2778460000000  0.6220940000000  0.5234120000000 1.0
C      1  0.4090440000000  0.6221430000000  0.2959660000000 1.0
C      1  0.6934610000000  0.3779190000000  0.3883680000000 1.0
C      1  0.4536210000000  0.3779050000000  0.2815090000000 1.0
C      1  0.2778730000000  0.3778710000000  0.4765720000000 1.0
C      1  0.4091000000000  0.3778490000000  0.7040130000000 1.0
C      1  0.6659390000000  0.3778770000000  0.6494770000000 1.0
C      1  0.3065320000000  0.3778660000000  0.3883730000000 1.0
C      1  0.5463650000000  0.3779170000000  0.2814850000000 1.0
C      1  0.7221320000000  0.3778910000000  0.4765560000000 1.0
C      1  0.5909210000000  0.3778680000000  0.7040050000000 1.0
C      1  0.3340750000000  0.3778540000000  0.6494920000000 1.0
END
