TITL C-1525613-7943-5371 0.00955742885344127 3375 -9256.39473164913 0 0 60 (C2) n - 1
REM
REM in /home/nfs/bkarasulu/CARBON/AIRSS/Generating-Clusters/ReaxFF-fromJPCA2015/Units_Real/Try2-Higher-symm/Only-C60
REM
REM
REM
REM
REM
REM ./C.cell (863b2abdce7293c0672fb3ba77bf323a)
REM AIRSS Version 0.9.1 bugfix July 2018 build 013d7b7c2542+ Fri, 06 Jul 2018 19:26:36 +0100
REM compiler GCC version 9.2.1 20190827 (Red Hat 9.2.1-1)
REM options -cpp -mtune=generic -march=x86-64 -g -O0 -fpre-include=/usr/include/finclude/math-vector-fortran.h
REM seed 50968791 -1095929990 -1545059670 -390950361 1961463483 1266890175 -1122383082 879387316 1188811166 1560777746 -1941677561 -1144346433 233666454 747218423 -716923844 -739040641 2043241369 1244998867 655493508 -946735542 -1321409758 1912251981 -1211297379 461845858 526851171 1785286963 457500419 -1667283556 968492684 186348561 1795717000 -1701499752 1902046477
REM
CELL 1.54180   15.00000   15.00000   15.00000   90.00000   90.00000   90.00000
LATT -1
SFAC C  
C      1  0.6072200000000  0.7051730000000  0.5469030000000 1.0
C      1  0.5943030000000  0.6868470000000  0.6405680000000 1.0
C      1  0.6071730000000  0.6018700000000  0.6840290000000 1.0
C      1  0.6157590000000  0.3936820000000  0.7203520000000 1.0
C      1  0.6157680000000  0.3176660000000  0.6632000000000 1.0
C      1  0.6072140000000  0.2948370000000  0.4530900000000 1.0
C      1  0.5942750000000  0.3131670000000  0.3594280000000 1.0
C      1  0.6071310000000  0.3981470000000  0.3159710000000 1.0
C      1  0.6157340000000  0.6063220000000  0.2796470000000 1.0
C      1  0.6157500000000  0.6823440000000  0.3367950000000 1.0
C      1  0.3412440000000  0.7135000000000  0.5038160000000 1.0
C      1  0.3351380000000  0.6730710000000  0.6301830000000 1.0
C      1  0.3412430000000  0.5627540000000  0.7038940000000 1.0
C      1  0.3428780000000  0.4294320000000  0.7036770000000 1.0
C      1  0.3428780000000  0.3236480000000  0.6242440000000 1.0
C      1  0.3412490000000  0.2865160000000  0.4961990000000 1.0
C      1  0.3351120000000  0.3269240000000  0.3698250000000 1.0
C      1  0.3412050000000  0.4372350000000  0.2960930000000 1.0
C      1  0.3428440000000  0.5705540000000  0.2963150000000 1.0
C      1  0.3428660000000  0.6763050000000  0.3757810000000 1.0
C      1  0.5092880000000  0.7200730000000  0.6655850000000 1.0
C      1  0.5251760000000  0.5819410000000  0.7300840000000 1.0
C      1  0.5262920000000  0.4140640000000  0.7416940000000 1.0
C      1  0.5263050000000  0.2914990000000  0.6495160000000 1.0
C      1  0.5252070000000  0.2561100000000  0.4849980000000 1.0
C      1  0.5092630000000  0.2799340000000  0.3344160000000 1.0
C      1  0.5251370000000  0.4180640000000  0.2699080000000 1.0
C      1  0.5262690000000  0.5859220000000  0.2583090000000 1.0
C      1  0.5262910000000  0.7085040000000  0.3504920000000 1.0
C      1  0.5252110000000  0.7438990000000  0.5149970000000 1.0
C      1  0.6716870000000  0.4608160000000  0.3592730000000 1.0
C      1  0.6770150000000  0.5602040000000  0.3395120000000 1.0
C      1  0.6770450000000  0.6376380000000  0.3977110000000 1.0
C      1  0.6717990000000  0.6462320000000  0.4986760000000 1.0
C      1  0.6867730000000  0.5786560000000  0.5591210000000 1.0
C      1  0.6717320000000  0.5391980000000  0.6407320000000 1.0
C      1  0.6770290000000  0.4398050000000  0.6604800000000 1.0
C      1  0.6770560000000  0.3623750000000  0.6022800000000 1.0
C      1  0.6718010000000  0.3537740000000  0.5013160000000 1.0
C      1  0.6867530000000  0.4213580000000  0.4408770000000 1.0
C      1  0.4846070000000  0.4973670000000  0.7461810000000 1.0
C      1  0.4735070000000  0.3413510000000  0.7107980000000 1.0
C      1  0.4846370000000  0.2640640000000  0.5707220000000 1.0
C      1  0.4660930000000  0.2459990000000  0.4098320000000 1.0
C      1  0.4660460000000  0.3430190000000  0.2809710000000 1.0
C      1  0.4845660000000  0.5026310000000  0.2538050000000 1.0
C      1  0.4734760000000  0.6586400000000  0.2892130000000 1.0
C      1  0.4846280000000  0.7359360000000  0.4292810000000 1.0
C      1  0.4661070000000  0.7540130000000  0.5901720000000 1.0
C      1  0.4660840000000  0.6569770000000  0.7190210000000 1.0
C      1  0.3854630000000  0.5035120000000  0.2617650000000 1.0
C      1  0.3754400000000  0.6502730000000  0.3003330000000 1.0
C      1  0.3855220000000  0.7280910000000  0.4306180000000 1.0
C      1  0.3693240000000  0.7364480000000  0.5816850000000 1.0
C      1  0.3693040000000  0.6439460000000  0.7044730000000 1.0
C      1  0.3855040000000  0.4964760000000  0.7382180000000 1.0
C      1  0.3754750000000  0.3497020000000  0.6996890000000 1.0
C      1  0.3855310000000  0.2718930000000  0.5693880000000 1.0
C      1  0.3693090000000  0.2635610000000  0.4183270000000 1.0
C      1  0.3692640000000  0.3560420000000  0.2955220000000 1.0
END
