TITL C-1525613-7943-6929 0.215366845585827 3375 -8016.1698549994 0 0 60 (C1) n - 1
REM
REM in /home/nfs/bkarasulu/CARBON/AIRSS/Generating-Clusters/ReaxFF-fromJPCA2015/Units_Real/Try2-Higher-symm/Only-C60
REM
REM
REM
REM
REM
REM ./C.cell (863b2abdce7293c0672fb3ba77bf323a)
REM AIRSS Version 0.9.1 bugfix July 2018 build 013d7b7c2542+ Fri, 06 Jul 2018 19:26:36 +0100
REM compiler GCC version 9.2.1 20190827 (Red Hat 9.2.1-1)
REM options -cpp -mtune=generic -march=x86-64 -g -O0 -fpre-include=/usr/include/finclude/math-vector-fortran.h
REM seed -165237742 -411484645 -1098122098 1643055075 2031752052 883979977 1873030574 -1033763220 -1771388447 -1312585837 84849168 574770213 -1687751531 -1947178681 -4107802 -1067347134 -1103929200 -1173594267 97914931 1782492015 1482710968 1630523305 -297469523 1076553891 2083170045 -197766178 -134254697 667320734 329748610 585106193 -201400656 875583856 955199121
REM
CELL 1.54180   15.00000   15.00000   15.00000   90.00000   90.00000   90.00000
LATT -1
SFAC C  
C      1  0.3064200000000  0.4032890000000  0.3914880000000 1.0
C      1  0.5351260000000  0.2632890000000  0.3901680000000 1.0
C      1  0.7385780000000  0.4558040000000  0.3904170000000 1.0
C      1  0.6053870000000  0.6976110000000  0.3988520000000 1.0
C      1  0.3323730000000  0.6752240000000  0.3903820000000 1.0
C      1  0.2850570000000  0.3880650000000  0.6172140000000 1.0
C      1  0.5354530000000  0.2659060000000  0.6092760000000 1.0
C      1  0.7412030000000  0.4550180000000  0.6100110000000 1.0
C      1  0.6116500000000  0.7012460000000  0.6123850000000 1.0
C      1  0.3283810000000  0.6657450000000  0.6068750000000 1.0
C      1  0.2998310000000  0.7071020000000  0.4537810000000 1.0
C      1  0.2522240000000  0.3733990000000  0.4497020000000 1.0
C      1  0.5405960000000  0.2188680000000  0.4534300000000 1.0
C      1  0.7821130000000  0.4492860000000  0.4551080000000 1.0
C      1  0.6416400000000  0.7856860000000  0.4544450000000 1.0
C      1  0.2958400000000  0.6962190000000  0.5428250000000 1.0
C      1  0.2503790000000  0.3756100000000  0.5334140000000 1.0
C      1  0.5372800000000  0.2235420000000  0.5446840000000 1.0
C      1  0.7837690000000  0.4470330000000  0.5450020000000 1.0
C      1  0.6416580000000  0.7472100000000  0.5387980000000 1.0
C      1  0.6163410000000  0.3178720000000  0.3972570000000 1.0
C      1  0.7122540000000  0.5489900000000  0.3919890000000 1.0
C      1  0.5117010000000  0.7045010000000  0.3979300000000 1.0
C      1  0.2981970000000  0.5832610000000  0.3956220000000 1.0
C      1  0.3732980000000  0.3329680000000  0.4017520000000 1.0
C      1  0.6167160000000  0.3196620000000  0.6035770000000 1.0
C      1  0.7142970000000  0.5490680000000  0.6055430000000 1.0
C      1  0.5082740000000  0.7149210000000  0.6112120000000 1.0
C      1  0.2983640000000  0.5742790000000  0.6057440000000 1.0
C      1  0.3708910000000  0.3314440000000  0.6108760000000 1.0
C      1  0.5444350000000  0.5623880000000  0.3069110000000 1.0
C      1  0.4473210000000  0.5626140000000  0.3157930000000 1.0
C      1  0.4106450000000  0.4726940000000  0.3230850000000 1.0
C      1  0.4903150000000  0.4147890000000  0.3196310000000 1.0
C      1  0.5714760000000  0.4683580000000  0.3117170000000 1.0
C      1  0.5425890000000  0.5653020000000  0.6935850000000 1.0
C      1  0.4447960000000  0.5654690000000  0.6794540000000 1.0
C      1  0.4099250000000  0.4741430000000  0.6673740000000 1.0
C      1  0.4910070000000  0.4171450000000  0.6753420000000 1.0
C      1  0.5715220000000  0.4714040000000  0.6891070000000 1.0
C      1  0.4186910000000  0.7062280000000  0.6073370000000 1.0
C      1  0.2821490000000  0.4872280000000  0.6132760000000 1.0
C      1  0.4375210000000  0.2956340000000  0.6064780000000 1.0
C      1  0.6823960000000  0.3772670000000  0.6041270000000 1.0
C      1  0.6815320000000  0.6318370000000  0.6018970000000 1.0
C      1  0.4248890000000  0.7057920000000  0.3973120000000 1.0
C      1  0.2792800000000  0.4968710000000  0.3986980000000 1.0
C      1  0.4393560000000  0.2926570000000  0.4004540000000 1.0
C      1  0.6804450000000  0.3776140000000  0.3973490000000 1.0
C      1  0.6730470000000  0.6284200000000  0.3925410000000 1.0
C      1  0.5504710000000  0.5733400000000  0.4072800000000 1.0
C      1  0.4498700000000  0.5686810000000  0.4147420000000 1.0
C      1  0.4133810000000  0.4748290000000  0.4282550000000 1.0
C      1  0.4972240000000  0.4199770000000  0.4183580000000 1.0
C      1  0.5773410000000  0.4757670000000  0.4103640000000 1.0
C      1  0.5556870000000  0.5777350000000  0.5948750000000 1.0
C      1  0.4566820000000  0.5766360000000  0.5811380000000 1.0
C      1  0.4246930000000  0.4842110000000  0.5668320000000 1.0
C      1  0.5033970000000  0.4225830000000  0.5763670000000 1.0
C      1  0.5826330000000  0.4802730000000  0.5905650000000 1.0
END
