TITL C-1525613-7943-5505 -0.0219644702531051 3375 -8773.84544738909 0 0 60 (C1) n - 1
REM
REM in /home/nfs/bkarasulu/CARBON/AIRSS/Generating-Clusters/ReaxFF-fromJPCA2015/Units_Real/Try2-Higher-symm/Only-C60
REM
REM
REM
REM
REM
REM ./C.cell (863b2abdce7293c0672fb3ba77bf323a)
REM AIRSS Version 0.9.1 bugfix July 2018 build 013d7b7c2542+ Fri, 06 Jul 2018 19:26:36 +0100
REM compiler GCC version 9.2.1 20190827 (Red Hat 9.2.1-1)
REM options -cpp -mtune=generic -march=x86-64 -g -O0 -fpre-include=/usr/include/finclude/math-vector-fortran.h
REM seed -1587110163 -1710092841 1587409835 1392002495 1779261836 1449810415 1319875688 2006265671 651492737 1386851312 -1500928892 -302917929 1845291484 -1028726521 1768647839 1814538385 -643562770 -472975316 1398497609 -507535752 128041128 1011006389 741234009 155926076 -1083863332 613418709 1972875575 662995799 -871017708 1676992734 2095260515 -16964240 618635481
REM
CELL 1.54180   15.00000   15.00000   15.00000   90.00000   90.00000   90.00000
LATT -1
SFAC C  
C      1  0.5942990000000  0.7135820000000  0.4983200000000 1.0
C      1  0.5985130000000  0.5631280000000  0.2920340000000 1.0
C      1  0.6033790000000  0.2993290000000  0.3570860000000 1.0
C      1  0.5997260000000  0.3280990000000  0.6374320000000 1.0
C      1  0.5942480000000  0.5700650000000  0.7046360000000 1.0
C      1  0.6043570000000  0.2787680000000  0.4917020000000 1.0
C      1  0.6026090000000  0.4284070000000  0.2680760000000 1.0
C      1  0.6079370000000  0.7007910000000  0.3618930000000 1.0
C      1  0.6116590000000  0.6961530000000  0.6520620000000 1.0
C      1  0.6123760000000  0.4175470000000  0.7405840000000 1.0
C      1  0.6638660000000  0.3677950000000  0.4029100000000 1.0
C      1  0.6689950000000  0.3687270000000  0.5968600000000 1.0
C      1  0.6633950000000  0.5423060000000  0.6566890000000 1.0
C      1  0.6606450000000  0.6549830000000  0.5089370000000 1.0
C      1  0.6654010000000  0.5527110000000  0.3530470000000 1.0
C      1  0.6697800000000  0.6368530000000  0.4105560000000 1.0
C      1  0.6737070000000  0.6294740000000  0.6087220000000 1.0
C      1  0.6765010000000  0.4394750000000  0.6651970000000 1.0
C      1  0.6730820000000  0.3389450000000  0.4966640000000 1.0
C      1  0.6624120000000  0.4521700000000  0.3457330000000 1.0
C      1  0.4313280000000  0.6942660000000  0.6567180000000 1.0
C      1  0.4292700000000  0.7115870000000  0.3628550000000 1.0
C      1  0.4279910000000  0.4354360000000  0.2552080000000 1.0
C      1  0.4384760000000  0.2465190000000  0.4886680000000 1.0
C      1  0.4321540000000  0.4100520000000  0.7299130000000 1.0
C      1  0.4365500000000  0.3037220000000  0.6596230000000 1.0
C      1  0.4266140000000  0.2894110000000  0.3677580000000 1.0
C      1  0.4327220000000  0.5637370000000  0.2537770000000 1.0
C      1  0.4336410000000  0.7567250000000  0.4840660000000 1.0
C      1  0.4324410000000  0.5929520000000  0.7351080000000 1.0
C      1  0.5216990000000  0.5493130000000  0.7578940000000 1.0
C      1  0.5229870000000  0.7610450000000  0.5331080000000 1.0
C      1  0.5234300000000  0.6101520000000  0.2634930000000 1.0
C      1  0.5135280000000  0.3047440000000  0.3153540000000 1.0
C      1  0.5278620000000  0.2711720000000  0.6273210000000 1.0
C      1  0.5210900000000  0.4503460000000  0.7632320000000 1.0
C      1  0.5302960000000  0.2395640000000  0.5323900000000 1.0
C      1  0.5143520000000  0.3836840000000  0.2561060000000 1.0
C      1  0.5196160000000  0.6929630000000  0.3174660000000 1.0
C      1  0.5222530000000  0.7336000000000  0.6282950000000 1.0
C      1  0.3654900000000  0.2817720000000  0.2858970000000 1.0
C      1  0.3714760000000  0.2279920000000  0.6414570000000 1.0
C      1  0.3672360000000  0.5481500000000  0.7990330000000 1.0
C      1  0.3707300000000  0.8051440000000  0.5470390000000 1.0
C      1  0.3708020000000  0.6386230000000  0.2236570000000 1.0
C      1  0.3681110000000  0.7180600000000  0.2809590000000 1.0
C      1  0.3677880000000  0.7728730000000  0.6396850000000 1.0
C      1  0.3654130000000  0.4502590000000  0.7967900000000 1.0
C      1  0.3730440000000  0.1966290000000  0.5480480000000 1.0
C      1  0.3653540000000  0.3597810000000  0.2266940000000 1.0
C      1  0.4088030000000  0.4556250000000  0.6434720000000 1.0
C      1  0.4042350000000  0.6286350000000  0.5861430000000 1.0
C      1  0.3995880000000  0.6258260000000  0.4046110000000 1.0
C      1  0.4043810000000  0.4530880000000  0.3513760000000 1.0
C      1  0.4144230000000  0.3441690000000  0.4986720000000 1.0
C      1  0.4109680000000  0.5539950000000  0.6440170000000 1.0
C      1  0.4127550000000  0.3762240000000  0.5927930000000 1.0
C      1  0.4010750000000  0.3763990000000  0.4104920000000 1.0
C      1  0.4043450000000  0.5470570000000  0.3486490000000 1.0
C      1  0.4087930000000  0.6594030000000  0.4930240000000 1.0
END
