TITL C-1525613-7943-2566 0.0508256141113676 3375 -8343.19486054622 0 0 60 (C5) n - 1
REM
REM in /home/nfs/bkarasulu/CARBON/AIRSS/Generating-Clusters/ReaxFF-fromJPCA2015/Units_Real/Try2-Higher-symm/Only-C60
REM
REM
REM
REM
REM
REM ./C.cell (863b2abdce7293c0672fb3ba77bf323a)
REM AIRSS Version 0.9.1 bugfix July 2018 build 013d7b7c2542+ Fri, 06 Jul 2018 19:26:36 +0100
REM compiler GCC version 9.2.1 20190827 (Red Hat 9.2.1-1)
REM options -cpp -mtune=generic -march=x86-64 -g -O0 -fpre-include=/usr/include/finclude/math-vector-fortran.h
REM seed 295534658 -1836505515 130469601 -2058315523 170158173 -1650620781 -1851716025 -427070915 979293817 -218524744 -1227185175 -1329279236 1706243882 -2535624 309063428 1994014855 -530482906 -1489399490 -2130623046 -2064898184 -264368882 -533854095 -185932159 -2123126320 823408392 1557416199 251088838 -128956469 -1531134853 2095112431 1007545091 316627398 1943005769
REM
CELL 1.54180   15.00000   15.00000   15.00000   90.00000   90.00000   90.00000
LATT -1
SFAC C  
C      1  0.6897880000000  0.6013710000000  0.6137380000000 1.0
C      1  0.6668100000000  0.6013710000000  0.3546450000000 1.0
C      1  0.4132990000000  0.6013510000000  0.2964550000000 1.0
C      1  0.2796160000000  0.6013380000000  0.5195550000000 1.0
C      1  0.4504960000000  0.6013520000000  0.7156420000000 1.0
C      1  0.3102120000000  0.6013710000000  0.6137380000000 1.0
C      1  0.3331900000000  0.6013710000000  0.3546450000000 1.0
C      1  0.5867010000000  0.6013510000000  0.2964550000000 1.0
C      1  0.7203840000000  0.6013380000000  0.5195550000000 1.0
C      1  0.5495040000000  0.6013520000000  0.7156420000000 1.0
C      1  0.3072650000000  0.4790990000000  0.6792080000000 1.0
C      1  0.6108620000000  0.4790630000000  0.7386820000000 1.0
C      1  0.7612520000000  0.4790370000000  0.4683310000000 1.0
C      1  0.5505960000000  0.4790490000000  0.2417470000000 1.0
C      1  0.2700010000000  0.4791020000000  0.3720830000000 1.0
C      1  0.6927350000000  0.4790990000000  0.6792080000000 1.0
C      1  0.3891380000000  0.4790630000000  0.7386820000000 1.0
C      1  0.2387480000000  0.4790370000000  0.4683310000000 1.0
C      1  0.4494040000000  0.4790490000000  0.2417470000000 1.0
C      1  0.7299990000000  0.4791020000000  0.3720830000000 1.0
C      1  0.6589160000000  0.6766090000000  0.5004560000000 1.0
C      1  0.5495420000000  0.6766210000000  0.3489960000000 1.0
C      1  0.3716930000000  0.6766470000000  0.4062200000000 1.0
C      1  0.3711640000000  0.6766480000000  0.5930460000000 1.0
C      1  0.5486810000000  0.6766250000000  0.6512820000000 1.0
C      1  0.3410840000000  0.6766090000000  0.5004560000000 1.0
C      1  0.4504580000000  0.6766210000000  0.3489960000000 1.0
C      1  0.6283070000000  0.6766470000000  0.4062200000000 1.0
C      1  0.6288360000000  0.6766480000000  0.5930460000000 1.0
C      1  0.4513190000000  0.6766250000000  0.6512820000000 1.0
C      1  0.6320550000000  0.3398300000000  0.4037360000000 1.0
C      1  0.4492630000000  0.3397730000000  0.3446490000000 1.0
C      1  0.3365830000000  0.3397580000000  0.5002390000000 1.0
C      1  0.4497410000000  0.3397890000000  0.6554830000000 1.0
C      1  0.6323490000000  0.3398250000000  0.5958350000000 1.0
C      1  0.3679450000000  0.3398300000000  0.4037360000000 1.0
C      1  0.5507370000000  0.3397730000000  0.3446490000000 1.0
C      1  0.6634170000000  0.3397580000000  0.5002390000000 1.0
C      1  0.5502590000000  0.3397890000000  0.6554830000000 1.0
C      1  0.3676510000000  0.3398250000000  0.5958350000000 1.0
C      1  0.4534150000000  0.5186100000000  0.3326020000000 1.0
C      1  0.3263970000000  0.5185960000000  0.4925710000000 1.0
C      1  0.4392760000000  0.5186450000000  0.6628200000000 1.0
C      1  0.6360880000000  0.5186880000000  0.6080770000000 1.0
C      1  0.6448360000000  0.5186800000000  0.4039660000000 1.0
C      1  0.5465850000000  0.5186100000000  0.3326020000000 1.0
C      1  0.6736030000000  0.5185960000000  0.4925710000000 1.0
C      1  0.5607240000000  0.5186450000000  0.6628200000000 1.0
C      1  0.3639120000000  0.5186880000000  0.6080770000000 1.0
C      1  0.3551640000000  0.5186800000000  0.4039660000000 1.0
C      1  0.7037830000000  0.3845400000000  0.6480250000000 1.0
C      1  0.7037600000000  0.3845480000000  0.3519270000000 1.0
C      1  0.4221530000000  0.3844800000000  0.2604330000000 1.0
C      1  0.2481070000000  0.3844580000000  0.4999960000000 1.0
C      1  0.4221730000000  0.3844960000000  0.7395540000000 1.0
C      1  0.2962170000000  0.3845400000000  0.6480250000000 1.0
C      1  0.2962400000000  0.3845480000000  0.3519270000000 1.0
C      1  0.5778470000000  0.3844800000000  0.2604330000000 1.0
C      1  0.7518930000000  0.3844580000000  0.4999960000000 1.0
C      1  0.5778270000000  0.3844960000000  0.7395540000000 1.0
END
