TITL C-1525613-7943-5911 0.0165163739637235 3375 -8670.75286650443 0 0 60 (Cs) n - 1
REM
REM in /home/nfs/bkarasulu/CARBON/AIRSS/Generating-Clusters/ReaxFF-fromJPCA2015/Units_Real/Try2-Higher-symm/Only-C60
REM
REM
REM
REM
REM
REM ./C.cell (863b2abdce7293c0672fb3ba77bf323a)
REM AIRSS Version 0.9.1 bugfix July 2018 build 013d7b7c2542+ Fri, 06 Jul 2018 19:26:36 +0100
REM compiler GCC version 9.2.1 20190827 (Red Hat 9.2.1-1)
REM options -cpp -mtune=generic -march=x86-64 -g -O0 -fpre-include=/usr/include/finclude/math-vector-fortran.h
REM seed -1206688872 -1936897769 907348464 -100332168 -2082588582 1474934181 -822863866 -1057633066 933723171 -810886689 202437035 -159667226 1856547809 1670228867 2011409383 1150929567 2089111583 -1077988210 277753195 481210098 336715112 -43103937 -1388637796 1893231194 -750315235 -970159036 -1327504785 1242049957 -1388817637 -483840437 663387625 1870656966 844660336
REM
CELL 1.54180   15.00000   15.00000   15.00000   90.00000   90.00000   90.00000
LATT -1
SFAC C  
C      1  0.7125630000000  0.5949480000000  0.4624770000000 1.0
C      1  0.4749690000000  0.7370090000000  0.4654390000000 1.0
C      1  0.2778290000000  0.5474960000000  0.4673550000000 1.0
C      1  0.3863430000000  0.2999930000000  0.4566770000000 1.0
C      1  0.6556400000000  0.3287270000000  0.4663360000000 1.0
C      1  0.7126660000000  0.4050490000000  0.4625010000000 1.0
C      1  0.4749100000000  0.2629460000000  0.4654330000000 1.0
C      1  0.2778660000000  0.4525510000000  0.4673880000000 1.0
C      1  0.3863720000000  0.7000220000000  0.4566680000000 1.0
C      1  0.6555920000000  0.6712680000000  0.4663470000000 1.0
C      1  0.5302630000000  0.7664530000000  0.6706210000000 1.0
C      1  0.2589960000000  0.6195290000000  0.6641660000000 1.0
C      1  0.3171090000000  0.2983790000000  0.6739780000000 1.0
C      1  0.6250980000000  0.2637410000000  0.6678860000000 1.0
C      1  0.7677820000000  0.5504440000000  0.6681320000000 1.0
C      1  0.5303010000000  0.2334230000000  0.6706880000000 1.0
C      1  0.2590300000000  0.3804700000000  0.6641600000000 1.0
C      1  0.3170760000000  0.7016210000000  0.6739960000000 1.0
C      1  0.6251430000000  0.7362030000000  0.6678440000000 1.0
C      1  0.7677790000000  0.4496560000000  0.6681270000000 1.0
C      1  0.6508400000000  0.4505610000000  0.3148720000000 1.0
C      1  0.5927370000000  0.6279160000000  0.3162890000000 1.0
C      1  0.4048980000000  0.6301990000000  0.3121290000000 1.0
C      1  0.3487710000000  0.4512830000000  0.3157850000000 1.0
C      1  0.4984190000000  0.3416410000000  0.3181540000000 1.0
C      1  0.6508710000000  0.5494190000000  0.3148050000000 1.0
C      1  0.5927460000000  0.3720630000000  0.3161950000000 1.0
C      1  0.4048380000000  0.3698080000000  0.3120730000000 1.0
C      1  0.3487760000000  0.5487750000000  0.3157010000000 1.0
C      1  0.4984790000000  0.6584370000000  0.3180160000000 1.0
C      1  0.7282260000000  0.4506230000000  0.3780150000000 1.0
C      1  0.6168270000000  0.6998810000000  0.3811690000000 1.0
C      1  0.3412000000000  0.6756670000000  0.3735620000000 1.0
C      1  0.2881810000000  0.4071010000000  0.3815060000000 1.0
C      1  0.5237190000000  0.2685190000000  0.3810540000000 1.0
C      1  0.7281550000000  0.5494070000000  0.3779700000000 1.0
C      1  0.6168350000000  0.3001600000000  0.3811530000000 1.0
C      1  0.3411610000000  0.3243550000000  0.3735640000000 1.0
C      1  0.2881840000000  0.5929230000000  0.3814720000000 1.0
C      1  0.5237120000000  0.7315150000000  0.3810120000000 1.0
C      1  0.3992200000000  0.3591320000000  0.6691360000000 1.0
C      1  0.5933340000000  0.3568380000000  0.6423470000000 1.0
C      1  0.6685630000000  0.5497680000000  0.6416470000000 1.0
C      1  0.4917030000000  0.6728890000000  0.6414610000000 1.0
C      1  0.3433760000000  0.5651910000000  0.6394670000000 1.0
C      1  0.3992040000000  0.6408630000000  0.6691410000000 1.0
C      1  0.5934820000000  0.6431050000000  0.6424030000000 1.0
C      1  0.6685830000000  0.4503650000000  0.6416460000000 1.0
C      1  0.4917840000000  0.3270940000000  0.6415000000000 1.0
C      1  0.3434120000000  0.4347990000000  0.6394420000000 1.0
C      1  0.4942490000000  0.3387310000000  0.5295520000000 1.0
C      1  0.6518340000000  0.4494800000000  0.5289960000000 1.0
C      1  0.5920370000000  0.6312740000000  0.5346400000000 1.0
C      1  0.4141620000000  0.6209750000000  0.5018130000000 1.0
C      1  0.3509680000000  0.4411790000000  0.5356050000000 1.0
C      1  0.4942820000000  0.6611980000000  0.5294920000000 1.0
C      1  0.6517380000000  0.5505000000000  0.5288930000000 1.0
C      1  0.5920560000000  0.3686230000000  0.5347030000000 1.0
C      1  0.4141860000000  0.3790300000000  0.5017800000000 1.0
C      1  0.3509270000000  0.5587840000000  0.5356210000000 1.0
END
