TITL C-1525613-7943-6968 -0.000339177946968307 3375 -9533.08706218751 0 0 60 (D5d) n - 1
REM
REM in /home/nfs/bkarasulu/CARBON/AIRSS/Generating-Clusters/ReaxFF-fromJPCA2015/Units_Real/Try2-Higher-symm/Only-C60
REM
REM
REM
REM
REM
REM ./C.cell (863b2abdce7293c0672fb3ba77bf323a)
REM AIRSS Version 0.9.1 bugfix July 2018 build 013d7b7c2542+ Fri, 06 Jul 2018 19:26:36 +0100
REM compiler GCC version 9.2.1 20190827 (Red Hat 9.2.1-1)
REM options -cpp -mtune=generic -march=x86-64 -g -O0 -fpre-include=/usr/include/finclude/math-vector-fortran.h
REM seed 1671861399 -2088158231 -2117186231 568147972 -297947568 1371419805 -992930605 1144650409 1423628961 1591389707 1588331997 748952996 1882513039 1681888392 -1545555887 -1346837403 -1285514947 -1317089895 1078190410 -2105780869 160291685 1882009084 1217949500 155041842 1270964077 -1139845268 -654361042 1901323831 -1792856074 737778034 470368030 1154942556 -1374995186
REM
CELL 1.54180   15.00000   15.00000   15.00000   90.00000   90.00000   90.00000
LATT -1
SFAC C  
C      1  0.6216640000000  0.5691980000000  0.7128040000000 1.0
C      1  0.3783950000000  0.6810490000000  0.6315980000000 1.0
C      1  0.6215440000000  0.7238780000000  0.4999500000000 1.0
C      1  0.3783000000000  0.6810570000000  0.3684790000000 1.0
C      1  0.6215020000000  0.5691980000000  0.2870960000000 1.0
C      1  0.3783370000000  0.4308020000000  0.2871920000000 1.0
C      1  0.6216050000000  0.3189490000000  0.3684020000000 1.0
C      1  0.3784560000000  0.2761260000000  0.5000500000000 1.0
C      1  0.6217000000000  0.3189420000000  0.6315200000000 1.0
C      1  0.3784980000000  0.4308010000000  0.7129080000000 1.0
C      1  0.6898930000000  0.6366450000000  0.5794350000000 1.0
C      1  0.3100440000000  0.6572040000000  0.4841110000000 1.0
C      1  0.6898390000000  0.6178960000000  0.3946000000000 1.0
C      1  0.3100300000000  0.5333690000000  0.3456130000000 1.0
C      1  0.6898590000000  0.4362940000000  0.3553410000000 1.0
C      1  0.3101090000000  0.3633600000000  0.4205650000000 1.0
C      1  0.6899580000000  0.3427910000000  0.5158880000000 1.0
C      1  0.3101610000000  0.3821060000000  0.6054020000000 1.0
C      1  0.6899690000000  0.4666310000000  0.6543810000000 1.0
C      1  0.3101400000000  0.5637050000000  0.6446630000000 1.0
C      1  0.3100260000000  0.6168990000000  0.3937500000000 1.0
C      1  0.6898290000000  0.5321670000000  0.3452000000000 1.0
C      1  0.3100640000000  0.4349740000000  0.3560220000000 1.0
C      1  0.6899170000000  0.3627920000000  0.4215780000000 1.0
C      1  0.3101400000000  0.3428330000000  0.5173550000000 1.0
C      1  0.6899740000000  0.3830990000000  0.6062480000000 1.0
C      1  0.3101700000000  0.4678330000000  0.6548050000000 1.0
C      1  0.6899350000000  0.5650270000000  0.6439740000000 1.0
C      1  0.3100840000000  0.6372040000000  0.5784220000000 1.0
C      1  0.6898620000000  0.6571720000000  0.4826450000000 1.0
C      1  0.4591390000000  0.5717580000000  0.7225260000000 1.0
C      1  0.5409240000000  0.6888790000000  0.6378160000000 1.0
C      1  0.4590100000000  0.7338180000000  0.5005140000000 1.0
C      1  0.5408260000000  0.6894790000000  0.3629590000000 1.0
C      1  0.4589700000000  0.5727260000000  0.2778100000000 1.0
C      1  0.5408610000000  0.4282410000000  0.2774740000000 1.0
C      1  0.4590760000000  0.3111220000000  0.3621840000000 1.0
C      1  0.5409890000000  0.2661810000000  0.4994860000000 1.0
C      1  0.4591740000000  0.3105210000000  0.6370420000000 1.0
C      1  0.5410300000000  0.4272740000000  0.7221890000000 1.0
C      1  0.4591700000000  0.4763330000000  0.7326180000000 1.0
C      1  0.5409700000000  0.6176020000000  0.7020610000000 1.0
C      1  0.4590490000000  0.7139180000000  0.5943850000000 1.0
C      1  0.5408470000000  0.7285670000000  0.4505940000000 1.0
C      1  0.4589680000000  0.6558620000000  0.3257300000000 1.0
C      1  0.5408310000000  0.5236670000000  0.2673820000000 1.0
C      1  0.4590300000000  0.3823980000000  0.2979380000000 1.0
C      1  0.5409510000000  0.2860820000000  0.4056150000000 1.0
C      1  0.4591530000000  0.2714340000000  0.5494060000000 1.0
C      1  0.5410320000000  0.3441380000000  0.6742700000000 1.0
C      1  0.6216810000000  0.2811360000000  0.5467640000000 1.0
C      1  0.3784970000000  0.3503940000000  0.6665650000000 1.0
C      1  0.6216940000000  0.4769060000000  0.7225650000000 1.0
C      1  0.3784410000000  0.6121120000000  0.6937320000000 1.0
C      1  0.6215790000000  0.7046270000000  0.5907370000000 1.0
C      1  0.3783190000000  0.7188610000000  0.4532360000000 1.0
C      1  0.6215030000000  0.6496070000000  0.3334360000000 1.0
C      1  0.3783070000000  0.5230940000000  0.2774300000000 1.0
C      1  0.6215590000000  0.3878880000000  0.3062700000000 1.0
C      1  0.3784210000000  0.2953760000000  0.4092630000000 1.0
END
