TITL C-1525613-7943-4200 -0.00464114518205024 3375 -9586.80820702027 0 0 60 (D5h) n - 1
REM
REM in /home/nfs/bkarasulu/CARBON/AIRSS/Generating-Clusters/ReaxFF-fromJPCA2015/Units_Real/Try2-Higher-symm/Only-C60
REM
REM
REM
REM
REM
REM ./C.cell (863b2abdce7293c0672fb3ba77bf323a)
REM AIRSS Version 0.9.1 bugfix July 2018 build 013d7b7c2542+ Fri, 06 Jul 2018 19:26:36 +0100
REM compiler GCC version 9.2.1 20190827 (Red Hat 9.2.1-1)
REM options -cpp -mtune=generic -march=x86-64 -g -O0 -fpre-include=/usr/include/finclude/math-vector-fortran.h
REM seed -690589566 -1195843619 228324884 -304783289 931847209 2137317584 1731695744 -71761830 971545173 666306469 -1269627461 1236135325 -1891740780 -702822256 2036643686 -1733645153 1648764974 1247488080 1431132010 -358096328 963223618 888757189 -52459740 175232450 -673847570 -792844335 -227872552 -1414444331 1366595898 1101313553 1891549008 495196171 16863431
REM
CELL 1.54180   15.00000   15.00000   15.00000   90.00000   90.00000   90.00000
LATT -1
SFAC C  
C      1  0.5434260000000  0.4008900000000  0.6786210000000 1.0
C      1  0.6816830000000  0.4019890000000  0.5114960000000 1.0
C      1  0.5679910000000  0.4012230000000  0.3310100000000 1.0
C      1  0.3607040000000  0.4009860000000  0.3812720000000 1.0
C      1  0.3457230000000  0.4014420000000  0.5979230000000 1.0
C      1  0.5451780000000  0.5986420000000  0.6775870000000 1.0
C      1  0.6816680000000  0.5980060000000  0.5135350000000 1.0
C      1  0.5702100000000  0.6006670000000  0.3262840000000 1.0
C      1  0.3597240000000  0.5983590000000  0.3834840000000 1.0
C      1  0.3435540000000  0.5990140000000  0.5964140000000 1.0
C      1  0.6871640000000  0.4527580000000  0.5923970000000 1.0
C      1  0.6459020000000  0.4501320000000  0.3524910000000 1.0
C      1  0.4059110000000  0.4516530000000  0.3170880000000 1.0
C      1  0.2944320000000  0.4525940000000  0.5353760000000 1.0
C      1  0.4684190000000  0.4514110000000  0.7049310000000 1.0
C      1  0.6843400000000  0.5483240000000  0.5929090000000 1.0
C      1  0.6488340000000  0.5479760000000  0.3493260000000 1.0
C      1  0.4030080000000  0.5469350000000  0.3157360000000 1.0
C      1  0.2954100000000  0.5484510000000  0.5332630000000 1.0
C      1  0.4699220000000  0.5472770000000  0.7068090000000 1.0
C      1  0.4689220000000  0.1881820000000  0.5770030000000 1.0
C      1  0.5638190000000  0.1885230000000  0.5534750000000 1.0
C      1  0.5706210000000  0.1882310000000  0.4559840000000 1.0
C      1  0.4800220000000  0.1879800000000  0.4193200000000 1.0
C      1  0.4171030000000  0.1884590000000  0.4941280000000 1.0
C      1  0.4685720000000  0.8114840000000  0.5775110000000 1.0
C      1  0.5634600000000  0.8117220000000  0.5539250000000 1.0
C      1  0.5704820000000  0.8121710000000  0.4564130000000 1.0
C      1  0.4797820000000  0.8122080000000  0.4196220000000 1.0
C      1  0.4169080000000  0.8119380000000  0.4944840000000 1.0
C      1  0.4671580000000  0.7306040000000  0.3691110000000 1.0
C      1  0.3655360000000  0.7301060000000  0.4904210000000 1.0
C      1  0.4492000000000  0.7295860000000  0.6250850000000 1.0
C      1  0.6029050000000  0.7297110000000  0.5866540000000 1.0
C      1  0.6146610000000  0.7305670000000  0.4288510000000 1.0
C      1  0.4675930000000  0.2695380000000  0.3689780000000 1.0
C      1  0.3659000000000  0.2703830000000  0.4904790000000 1.0
C      1  0.4494300000000  0.2698310000000  0.6249360000000 1.0
C      1  0.6031520000000  0.2704470000000  0.5864900000000 1.0
C      1  0.6141270000000  0.2700850000000  0.4285890000000 1.0
C      1  0.5547820000000  0.3135220000000  0.3641530000000 1.0
C      1  0.3881360000000  0.3131250000000  0.4054150000000 1.0
C      1  0.3760960000000  0.3138430000000  0.5775190000000 1.0
C      1  0.5352600000000  0.3132610000000  0.6424210000000 1.0
C      1  0.6456820000000  0.3139270000000  0.5099390000000 1.0
C      1  0.5555180000000  0.6885550000000  0.3628180000000 1.0
C      1  0.3880200000000  0.6861610000000  0.4059940000000 1.0
C      1  0.3752880000000  0.6867010000000  0.5775030000000 1.0
C      1  0.5351820000000  0.6861130000000  0.6421770000000 1.0
C      1  0.6456970000000  0.6860620000000  0.5103870000000 1.0
C      1  0.6943060000000  0.4517100000000  0.4337240000000 1.0
C      1  0.4972040000000  0.4502460000000  0.2924580000000 1.0
C      1  0.2999220000000  0.4518870000000  0.4371980000000 1.0
C      1  0.3805740000000  0.4504170000000  0.6703570000000 1.0
C      1  0.6254160000000  0.4520600000000  0.6688400000000 1.0
C      1  0.6980400000000  0.5468580000000  0.4343580000000 1.0
C      1  0.4974780000000  0.5480930000000  0.2886020000000 1.0
C      1  0.3014310000000  0.5493990000000  0.4390000000000 1.0
C      1  0.3782390000000  0.5478910000000  0.6712280000000 1.0
C      1  0.6251720000000  0.5496830000000  0.6664960000000 1.0
END
