TITL C-1525613-7943-1597 0.252328237216192 3375 -9456.8734641211 0 0 60 (D5h) n - 1
REM
REM in /home/nfs/bkarasulu/CARBON/AIRSS/Generating-Clusters/ReaxFF-fromJPCA2015/Units_Real/Try2-Higher-symm/Only-C60
REM
REM
REM
REM
REM
REM ./C.cell (863b2abdce7293c0672fb3ba77bf323a)
REM AIRSS Version 0.9.1 bugfix July 2018 build 013d7b7c2542+ Fri, 06 Jul 2018 19:26:36 +0100
REM compiler GCC version 9.2.1 20190827 (Red Hat 9.2.1-1)
REM options -cpp -mtune=generic -march=x86-64 -g -O0 -fpre-include=/usr/include/finclude/math-vector-fortran.h
REM seed 210826177 1160863311 246625419 833875932 -359199333 -704567682 -2103520589 -1154353276 -1342213976 786074510 -1804256843 443206428 -920958888 -1145340610 -686881788 758471384 -1112165232 440652317 -197747795 1623098558 -1835194262 648206403 2125142633 1290734739 17810117 1402083194 -1842736490 -137574517 1021253178 2141397654 1462701466 870126948 -23968120
REM
CELL 1.54180   15.00000   15.00000   15.00000   90.00000   90.00000   90.00000
LATT -1
SFAC C  
C      1  0.5470300000000  0.3073380000000  0.4183560000000 1.0
C      1  0.5472710000000  0.3643000000000  0.6580990000000 1.0
C      1  0.5468460000000  0.6078610000000  0.6785970000000 1.0
C      1  0.5469620000000  0.7026850000000  0.4520300000000 1.0
C      1  0.5468250000000  0.5173920000000  0.2923440000000 1.0
C      1  0.4524440000000  0.3078900000000  0.4199100000000 1.0
C      1  0.4526360000000  0.3625640000000  0.6577160000000 1.0
C      1  0.4525540000000  0.6083220000000  0.6790740000000 1.0
C      1  0.4525840000000  0.7038940000000  0.4528500000000 1.0
C      1  0.4525360000000  0.5178360000000  0.2918670000000 1.0
C      1  0.7278750000000  0.3665330000000  0.4793020000000 1.0
C      1  0.7282780000000  0.4391550000000  0.6204100000000 1.0
C      1  0.7278640000000  0.5957420000000  0.5950850000000 1.0
C      1  0.7277960000000  0.6200660000000  0.4382860000000 1.0
C      1  0.7279250000000  0.4785330000000  0.3669060000000 1.0
C      1  0.2722140000000  0.3668230000000  0.4793700000000 1.0
C      1  0.2723510000000  0.4390450000000  0.6201250000000 1.0
C      1  0.2723470000000  0.5955340000000  0.5947210000000 1.0
C      1  0.2725700000000  0.6198430000000  0.4386100000000 1.0
C      1  0.2723330000000  0.4785500000000  0.3671490000000 1.0
C      1  0.5975240000000  0.3706190000000  0.3693960000000 1.0
C      1  0.5976490000000  0.3362850000000  0.5838360000000 1.0
C      1  0.5972410000000  0.5279230000000  0.6814530000000 1.0
C      1  0.5976430000000  0.6814770000000  0.5286960000000 1.0
C      1  0.5969870000000  0.5836880000000  0.3365550000000 1.0
C      1  0.4024590000000  0.3697560000000  0.3703910000000 1.0
C      1  0.4026060000000  0.3359120000000  0.5824000000000 1.0
C      1  0.4021310000000  0.5288940000000  0.6816130000000 1.0
C      1  0.4025290000000  0.6813770000000  0.5288190000000 1.0
C      1  0.4021790000000  0.5833220000000  0.3363180000000 1.0
C      1  0.3157630000000  0.3697170000000  0.5666700000000 1.0
C      1  0.3153920000000  0.5234510000000  0.6443480000000 1.0
C      1  0.3162690000000  0.6445880000000  0.5224310000000 1.0
C      1  0.3157860000000  0.5661060000000  0.3694080000000 1.0
C      1  0.3155460000000  0.3963470000000  0.3969570000000 1.0
C      1  0.6848940000000  0.3697600000000  0.5670860000000 1.0
C      1  0.6845690000000  0.5232900000000  0.6447180000000 1.0
C      1  0.6848260000000  0.6446970000000  0.5224400000000 1.0
C      1  0.6843860000000  0.5660600000000  0.3692200000000 1.0
C      1  0.6845740000000  0.3961450000000  0.3965730000000 1.0
C      1  0.1907530000000  0.4625850000000  0.5741530000000 1.0
C      1  0.1909550000000  0.5588120000000  0.5585280000000 1.0
C      1  0.1910420000000  0.5737960000000  0.4622030000000 1.0
C      1  0.1907910000000  0.4867530000000  0.4179830000000 1.0
C      1  0.1905590000000  0.4178340000000  0.4872490000000 1.0
C      1  0.8095180000000  0.4625490000000  0.5742190000000 1.0
C      1  0.8094870000000  0.5589320000000  0.5587270000000 1.0
C      1  0.8095160000000  0.5739110000000  0.4618930000000 1.0
C      1  0.8092190000000  0.4867140000000  0.4178570000000 1.0
C      1  0.8096170000000  0.4179860000000  0.4872700000000 1.0
C      1  0.5482970000000  0.2891820000000  0.5147150000000 1.0
C      1  0.5489450000000  0.4485030000000  0.7036250000000 1.0
C      1  0.5488200000000  0.6785830000000  0.6121700000000 1.0
C      1  0.5487880000000  0.6614620000000  0.3654620000000 1.0
C      1  0.5492850000000  0.4220830000000  0.3043440000000 1.0
C      1  0.4503450000000  0.2904380000000  0.5139770000000 1.0
C      1  0.4509550000000  0.4485270000000  0.7049270000000 1.0
C      1  0.4507180000000  0.6789050000000  0.6123260000000 1.0
C      1  0.4508230000000  0.6622410000000  0.3643150000000 1.0
C      1  0.4513690000000  0.4208870000000  0.3039220000000 1.0
END
