TITL C-1525613-7943-2558 0.220944611173385 3375 -8418.23314205939 0 0 60 (Cs) n - 1
REM
REM in /home/nfs/bkarasulu/CARBON/AIRSS/Generating-Clusters/ReaxFF-fromJPCA2015/Units_Real/Try2-Higher-symm/Only-C60
REM
REM
REM
REM
REM
REM ./C.cell (863b2abdce7293c0672fb3ba77bf323a)
REM AIRSS Version 0.9.1 bugfix July 2018 build 013d7b7c2542+ Fri, 06 Jul 2018 19:26:36 +0100
REM compiler GCC version 9.2.1 20190827 (Red Hat 9.2.1-1)
REM options -cpp -mtune=generic -march=x86-64 -g -O0 -fpre-include=/usr/include/finclude/math-vector-fortran.h
REM seed -2039240373 -258925514 -2080387503 2033876862 1171298240 646690821 56098340 -1749368966 1527628539 -757318982 618844923 1119620331 -1414392176 -653000306 408655250 -1593272529 970625933 -1872133883 355377000 2040231231 -1434206929 -1445102776 -850414776 1274797172 289157988 1897666342 -132165339 1201588349 880137515 1296358296 1771396574 -1977152598 -1360566958
REM
CELL 1.54180   15.00000   15.00000   15.00000   90.00000   90.00000   90.00000
LATT -1
SFAC C  
C      1  0.4453070000000  0.4334250000000  0.4523910000000 1.0
C      1  0.4159960000000  0.5290780000000  0.4475020000000 1.0
C      1  0.5007920000000  0.5852250000000  0.4502780000000 1.0
C      1  0.5807360000000  0.5242190000000  0.4495320000000 1.0
C      1  0.5448320000000  0.4279430000000  0.4482120000000 1.0
C      1  0.4453070000000  0.4334250000000  0.5476090000000 1.0
C      1  0.4159970000000  0.5290780000000  0.5524980000000 1.0
C      1  0.5007920000000  0.5852250000000  0.5497220000000 1.0
C      1  0.5807360000000  0.5242190000000  0.5504680000000 1.0
C      1  0.5448320000000  0.4279430000000  0.5517880000000 1.0
C      1  0.3523950000000  0.2845950000000  0.5523120000000 1.0
C      1  0.2547410000000  0.5690010000000  0.5508190000000 1.0
C      1  0.4938690000000  0.7572780000000  0.5506110000000 1.0
C      1  0.7490400000000  0.5865790000000  0.5519820000000 1.0
C      1  0.6586450000000  0.2907860000000  0.5519640000000 1.0
C      1  0.3523950000000  0.2845950000000  0.4476880000000 1.0
C      1  0.2547410000000  0.5690010000000  0.4491810000000 1.0
C      1  0.4938690000000  0.7572780000000  0.4493890000000 1.0
C      1  0.7490400000000  0.5865790000000  0.4480180000000 1.0
C      1  0.6586450000000  0.2907860000000  0.4480360000000 1.0
C      1  0.6068180000000  0.6448160000000  0.3699860000000 1.0
C      1  0.6730620000000  0.4420990000000  0.3694450000000 1.0
C      1  0.4988830000000  0.3194590000000  0.3675220000000 1.0
C      1  0.3282400000000  0.4439210000000  0.3640400000000 1.0
C      1  0.3935370000000  0.6463720000000  0.3692470000000 1.0
C      1  0.6068180000000  0.6448160000000  0.6300140000000 1.0
C      1  0.6730620000000  0.4420990000000  0.6305550000000 1.0
C      1  0.4988830000000  0.3194590000000  0.6324780000000 1.0
C      1  0.3282400000000  0.4439210000000  0.6359600000000 1.0
C      1  0.3935370000000  0.6463720000000  0.6307530000000 1.0
C      1  0.4545870000000  0.5701100000000  0.6783680000000 1.0
C      1  0.5544680000000  0.5673180000000  0.6787090000000 1.0
C      1  0.5811020000000  0.4713040000000  0.6784230000000 1.0
C      1  0.4984270000000  0.4153160000000  0.6807860000000 1.0
C      1  0.4213750000000  0.4762610000000  0.6800880000000 1.0
C      1  0.4545870000000  0.5701100000000  0.3216320000000 1.0
C      1  0.5544680000000  0.5673180000000  0.3212910000000 1.0
C      1  0.5811020000000  0.4713040000000  0.3215770000000 1.0
C      1  0.4984270000000  0.4153160000000  0.3192140000000 1.0
C      1  0.4213750000000  0.4762610000000  0.3199120000000 1.0
C      1  0.2770950000000  0.4788270000000  0.5588140000000 1.0
C      1  0.4133460000000  0.7051350000000  0.5523100000000 1.0
C      1  0.6700050000000  0.6445880000000  0.5497580000000 1.0
C      1  0.6927320000000  0.3827070000000  0.5512020000000 1.0
C      1  0.4500930000000  0.2824950000000  0.5515830000000 1.0
C      1  0.2770950000000  0.4788270000000  0.4411860000000 1.0
C      1  0.4133460000000  0.7051350000000  0.4476900000000 1.0
C      1  0.6700050000000  0.6445880000000  0.4502420000000 1.0
C      1  0.6927320000000  0.3827070000000  0.4487980000000 1.0
C      1  0.4500930000000  0.2824950000000  0.4484170000000 1.0
C      1  0.7232980000000  0.5090550000000  0.5977370000000 1.0
C      1  0.5781130000000  0.2900380000000  0.5999030000000 1.0
C      1  0.3252710000000  0.3594190000000  0.6018890000000 1.0
C      1  0.2996160000000  0.6320490000000  0.6192360000000 1.0
C      1  0.5635800000000  0.7305810000000  0.6199750000000 1.0
C      1  0.7232980000000  0.5090550000000  0.4022630000000 1.0
C      1  0.5781130000000  0.2900380000000  0.4000970000000 1.0
C      1  0.3252710000000  0.3594190000000  0.3981110000000 1.0
C      1  0.2996160000000  0.6320490000000  0.3807640000000 1.0
C      1  0.5635800000000  0.7305810000000  0.3800250000000 1.0
END
