TITL C-1525613-7943-5799 0.105373036361064 3375 -8845.99586916041 0 0 60 (C1) n - 1
REM
REM in /home/nfs/bkarasulu/CARBON/AIRSS/Generating-Clusters/ReaxFF-fromJPCA2015/Units_Real/Try2-Higher-symm/Only-C60
REM
REM
REM
REM
REM
REM ./C.cell (863b2abdce7293c0672fb3ba77bf323a)
REM AIRSS Version 0.9.1 bugfix July 2018 build 013d7b7c2542+ Fri, 06 Jul 2018 19:26:36 +0100
REM compiler GCC version 9.2.1 20190827 (Red Hat 9.2.1-1)
REM options -cpp -mtune=generic -march=x86-64 -g -O0 -fpre-include=/usr/include/finclude/math-vector-fortran.h
REM seed -1698584443 -837005593 -103053201 390104435 -216772696 -1975151407 -974685573 -767488931 852412538 -1984580701 1965486106 1747161206 -280854128 459476547 1256953469 -1849587660 -692002412 -1030841315 -938076176 -1046563642 -315277583 1027358599 -2144380028 1822468073 -766731075 1852670125 -524407780 2014986110 1329752463 -1111910976 -204281622 1610806638 -1251238782
REM
CELL 1.54180   15.00000   15.00000   15.00000   90.00000   90.00000   90.00000
LATT -1
SFAC C  
C      1  0.5475810000000  0.5493790000000  0.3721670000000 1.0
C      1  0.5485120000000  0.3935550000000  0.4149580000000 1.0
C      1  0.5484520000000  0.3830740000000  0.5772430000000 1.0
C      1  0.5478830000000  0.5365630000000  0.6335800000000 1.0
C      1  0.5479630000000  0.6401440000000  0.5070250000000 1.0
C      1  0.4523030000000  0.5479710000000  0.3734740000000 1.0
C      1  0.4532030000000  0.3952120000000  0.4157450000000 1.0
C      1  0.4522110000000  0.3825510000000  0.5771590000000 1.0
C      1  0.4515680000000  0.5363180000000  0.6331400000000 1.0
C      1  0.4517350000000  0.6402190000000  0.5066510000000 1.0
C      1  0.3196260000000  0.4508190000000  0.3462730000000 1.0
C      1  0.3127290000000  0.3372100000000  0.4937410000000 1.0
C      1  0.3105270000000  0.4442790000000  0.6513510000000 1.0
C      1  0.3102590000000  0.6270750000000  0.5986160000000 1.0
C      1  0.3120100000000  0.6345080000000  0.4083890000000 1.0
C      1  0.6892830000000  0.4561350000000  0.3444450000000 1.0
C      1  0.6895600000000  0.3382560000000  0.4943590000000 1.0
C      1  0.6893330000000  0.4448480000000  0.6524690000000 1.0
C      1  0.6890220000000  0.6280250000000  0.5999490000000 1.0
C      1  0.6890060000000  0.6346030000000  0.4092710000000 1.0
C      1  0.5913140000000  0.6239690000000  0.4197410000000 1.0
C      1  0.5917020000000  0.4624780000000  0.3589740000000 1.0
C      1  0.5919260000000  0.3530660000000  0.4931580000000 1.0
C      1  0.5916900000000  0.4477030000000  0.6378900000000 1.0
C      1  0.5914170000000  0.6149960000000  0.5925020000000 1.0
C      1  0.4093020000000  0.6243430000000  0.4191570000000 1.0
C      1  0.4114060000000  0.4635850000000  0.3664880000000 1.0
C      1  0.4099010000000  0.3521510000000  0.4930730000000 1.0
C      1  0.4081940000000  0.4472800000000  0.6372940000000 1.0
C      1  0.4079360000000  0.6145700000000  0.5918140000000 1.0
C      1  0.7494190000000  0.5646180000000  0.5505600000000 1.0
C      1  0.7494920000000  0.5683440000000  0.4545350000000 1.0
C      1  0.7499130000000  0.4780970000000  0.4214090000000 1.0
C      1  0.7498280000000  0.4186300000000  0.4969640000000 1.0
C      1  0.7495980000000  0.4721580000000  0.5767670000000 1.0
C      1  0.2508150000000  0.5633270000000  0.5485520000000 1.0
C      1  0.2530000000000  0.5662730000000  0.4524810000000 1.0
C      1  0.2557670000000  0.4761330000000  0.4195390000000 1.0
C      1  0.2522810000000  0.4174790000000  0.4953940000000 1.0
C      1  0.2506160000000  0.4710640000000  0.5751740000000 1.0
C      1  0.3097580000000  0.4823960000000  0.7347790000000 1.0
C      1  0.3097060000000  0.7182810000000  0.5886100000000 1.0
C      1  0.3132250000000  0.6519810000000  0.3180960000000 1.0
C      1  0.3024870000000  0.3747200000000  0.2982090000000 1.0
C      1  0.3127760000000  0.2698120000000  0.5562250000000 1.0
C      1  0.6896700000000  0.4827760000000  0.7359200000000 1.0
C      1  0.6893670000000  0.7191010000000  0.5894620000000 1.0
C      1  0.6886880000000  0.6522830000000  0.3192690000000 1.0
C      1  0.6882510000000  0.3764910000000  0.2989170000000 1.0
C      1  0.6897490000000  0.2704040000000  0.5561130000000 1.0
C      1  0.6896730000000  0.7998280000000  0.5801660000000 1.0
C      1  0.6883780000000  0.6679630000000  0.2395080000000 1.0
C      1  0.6873370000000  0.3059280000000  0.2585800000000 1.0
C      1  0.6899170000000  0.2102970000000  0.6108200000000 1.0
C      1  0.6899680000000  0.5164000000000  0.8098990000000 1.0
C      1  0.3092150000000  0.7990570000000  0.5797490000000 1.0
C      1  0.3142980000000  0.6674210000000  0.2383100000000 1.0
C      1  0.2874180000000  0.3074700000000  0.2557160000000 1.0
C      1  0.3127600000000  0.2102170000000  0.6114920000000 1.0
C      1  0.3090770000000  0.5161640000000  0.8086880000000 1.0
END
