TITL C-1525613-7943-1057 0.0721175965895396 3375 -8692.50591508088 0 0 60 (C1) n - 1
REM
REM in /home/nfs/bkarasulu/CARBON/AIRSS/Generating-Clusters/ReaxFF-fromJPCA2015/Units_Real/Try2-Higher-symm/Only-C60
REM
REM
REM
REM
REM
REM ./C.cell (863b2abdce7293c0672fb3ba77bf323a)
REM AIRSS Version 0.9.1 bugfix July 2018 build 013d7b7c2542+ Fri, 06 Jul 2018 19:26:36 +0100
REM compiler GCC version 9.2.1 20190827 (Red Hat 9.2.1-1)
REM options -cpp -mtune=generic -march=x86-64 -g -O0 -fpre-include=/usr/include/finclude/math-vector-fortran.h
REM seed -30878400 -186200441 688528268 -2085897750 589754796 -688391206 -31870569 554459217 458791864 -696584024 -100145420 755826262 1915598753 230775514 -1213750550 901132102 516597893 1670919094 -669566398 -1675607501 -788512422 -1495651798 -1936585371 295600381 -1348430602 1383102541 1163475199 -1305877820 699872876 990709109 505743527 -1208692493 -1620924113
REM
CELL 1.54180   15.00000   15.00000   15.00000   90.00000   90.00000   90.00000
LATT -1
SFAC C  
C      1  0.7944790000000  0.5440270000000  0.4183920000000 1.0
C      1  0.6424880000000  0.5408670000000  0.3313940000000 1.0
C      1  0.4983910000000  0.5354940000000  0.2470770000000 1.0
C      1  0.3205970000000  0.5375270000000  0.2877300000000 1.0
C      1  0.2123320000000  0.5344320000000  0.4063080000000 1.0
C      1  0.3281140000000  0.4809280000000  0.6118940000000 1.0
C      1  0.3667510000000  0.5396680000000  0.6819610000000 1.0
C      1  0.5090770000000  0.5541900000000  0.7930380000000 1.0
C      1  0.6701200000000  0.5398910000000  0.7116940000000 1.0
C      1  0.7593800000000  0.5321260000000  0.5816810000000 1.0
C      1  0.8128640000000  0.4974690000000  0.5060920000000 1.0
C      1  0.7289540000000  0.5004930000000  0.3570360000000 1.0
C      1  0.5610540000000  0.4895720000000  0.3061650000000 1.0
C      1  0.4031420000000  0.5069550000000  0.2448580000000 1.0
C      1  0.2462800000000  0.4821970000000  0.3295700000000 1.0
C      1  0.1809290000000  0.4945950000000  0.4940030000000 1.0
C      1  0.2400760000000  0.4963360000000  0.5722620000000 1.0
C      1  0.4349300000000  0.5081550000000  0.7437260000000 1.0
C      1  0.6022400000000  0.5203940000000  0.7793570000000 1.0
C      1  0.7395760000000  0.4842580000000  0.6712210000000 1.0
C      1  0.4018360000000  0.2447310000000  0.5616540000000 1.0
C      1  0.4561440000000  0.2588940000000  0.6345410000000 1.0
C      1  0.5556240000000  0.2759550000000  0.6528470000000 1.0
C      1  0.6358910000000  0.2843490000000  0.5986950000000 1.0
C      1  0.6654270000000  0.2789900000000  0.5062140000000 1.0
C      1  0.6217190000000  0.2619980000000  0.4147970000000 1.0
C      1  0.5372810000000  0.2461580000000  0.3815890000000 1.0
C      1  0.4526660000000  0.2595290000000  0.3456610000000 1.0
C      1  0.3625540000000  0.2664370000000  0.3907980000000 1.0
C      1  0.3445870000000  0.2589400000000  0.4898760000000 1.0
C      1  0.6341770000000  0.6384150000000  0.3457300000000 1.0
C      1  0.5188780000000  0.6309360000000  0.2290340000000 1.0
C      1  0.3947910000000  0.6896630000000  0.3250160000000 1.0
C      1  0.2537540000000  0.6244330000000  0.4077140000000 1.0
C      1  0.2671260000000  0.7134540000000  0.5552910000000 1.0
C      1  0.3609200000000  0.6410640000000  0.6815140000000 1.0
C      1  0.4896080000000  0.6514030000000  0.7924990000000 1.0
C      1  0.5900650000000  0.6802250000000  0.6774260000000 1.0
C      1  0.7090500000000  0.6145570000000  0.5694620000000 1.0
C      1  0.7762270000000  0.6405720000000  0.4291160000000 1.0
C      1  0.6503950000000  0.3753190000000  0.4933430000000 1.0
C      1  0.6125300000000  0.3627350000000  0.4040100000000 1.0
C      1  0.5409180000000  0.4078960000000  0.3526190000000 1.0
C      1  0.4548290000000  0.3612440000000  0.3442490000000 1.0
C      1  0.3706380000000  0.3639810000000  0.3971690000000 1.0
C      1  0.3459260000000  0.3606220000000  0.4936310000000 1.0
C      1  0.3774490000000  0.4061690000000  0.5746690000000 1.0
C      1  0.4426750000000  0.3597440000000  0.6322590000000 1.0
C      1  0.5388510000000  0.3727320000000  0.6459190000000 1.0
C      1  0.6208730000000  0.3815950000000  0.5889550000000 1.0
C      1  0.4238810000000  0.6911450000000  0.7377210000000 1.0
C      1  0.5207760000000  0.7179910000000  0.7216050000000 1.0
C      1  0.6564920000000  0.6256370000000  0.6498870000000 1.0
C      1  0.7222900000000  0.6726240000000  0.4956280000000 1.0
C      1  0.6963530000000  0.6829700000000  0.4045580000000 1.0
C      1  0.5757300000000  0.6845260000000  0.2845260000000 1.0
C      1  0.4775840000000  0.7077090000000  0.2747950000000 1.0
C      1  0.3212530000000  0.6264010000000  0.3363490000000 1.0
C      1  0.2595590000000  0.6746710000000  0.4862150000000 1.0
C      1  0.3109020000000  0.6840150000000  0.6169650000000 1.0
END
