TITL C-1525613-7943-7687 -0.0260080222823447 3375 -8602.06500750956 0 0 60 (C2) n - 1
REM
REM in /home/nfs/bkarasulu/CARBON/AIRSS/Generating-Clusters/ReaxFF-fromJPCA2015/Units_Real/Try2-Higher-symm/Only-C60
REM
REM
REM
REM
REM
REM ./C.cell (863b2abdce7293c0672fb3ba77bf323a)
REM AIRSS Version 0.9.1 bugfix July 2018 build 013d7b7c2542+ Fri, 06 Jul 2018 19:26:36 +0100
REM compiler GCC version 9.2.1 20190827 (Red Hat 9.2.1-1)
REM options -cpp -mtune=generic -march=x86-64 -g -O0 -fpre-include=/usr/include/finclude/math-vector-fortran.h
REM seed -536248816 -494771305 1728367749 1229505241 287766914 1308520801 1433805235 1130227918 947080763 -1836069582 1676521756 1359729411 -1413930118 487037404 293068401 620884937 -1042927284 1262564934 858968982 1274260927 -2144594845 1967341852 1279423513 -2116541681 -910299317 106003425 1693426305 -945842569 1753639946 -885184709 -1628534270 -1958590572 390173840
REM
CELL 1.54180   15.00000   15.00000   15.00000   90.00000   90.00000   90.00000
LATT -1
SFAC C  
C      1  0.5461220000000  0.7108640000000  0.5889900000000 1.0
C      1  0.4508710000000  0.4963810000000  0.7257750000000 1.0
C      1  0.3684170000000  0.3112000000000  0.5448350000000 1.0
C      1  0.4127890000000  0.4114150000000  0.2962030000000 1.0
C      1  0.5226070000000  0.6583860000000  0.3235100000000 1.0
C      1  0.4539570000000  0.2890450000000  0.5889310000000 1.0
C      1  0.5493660000000  0.5034550000000  0.7257190000000 1.0
C      1  0.6316110000000  0.6887330000000  0.5447820000000 1.0
C      1  0.5869500000000  0.5886490000000  0.2961500000000 1.0
C      1  0.4771630000000  0.3416650000000  0.3234530000000 1.0
C      1  0.6620790000000  0.5937460000000  0.5454310000000 1.0
C      1  0.6003730000000  0.4549170000000  0.6550380000000 1.0
C      1  0.5389490000000  0.3166950000000  0.5445810000000 1.0
C      1  0.5625280000000  0.3700730000000  0.3665880000000 1.0
C      1  0.6385410000000  0.5412680000000  0.3671760000000 1.0
C      1  0.3379500000000  0.4061870000000  0.5455690000000 1.0
C      1  0.3997830000000  0.5449570000000  0.6551790000000 1.0
C      1  0.4610780000000  0.6832380000000  0.5447230000000 1.0
C      1  0.4372930000000  0.6299550000000  0.3667290000000 1.0
C      1  0.3612810000000  0.4587590000000  0.3673140000000 1.0
C      1  0.4506010000000  0.4965230000000  0.2659650000000 1.0
C      1  0.5460330000000  0.7109370000000  0.4027300000000 1.0
C      1  0.5227550000000  0.6582910000000  0.6682090000000 1.0
C      1  0.4130460000000  0.4112750000000  0.6955440000000 1.0
C      1  0.3683690000000  0.3112340000000  0.4469140000000 1.0
C      1  0.5491030000000  0.5035580000000  0.2659100000000 1.0
C      1  0.4538290000000  0.2890710000000  0.4026720000000 1.0
C      1  0.4774160000000  0.3415760000000  0.6681510000000 1.0
C      1  0.5871560000000  0.5885780000000  0.6954890000000 1.0
C      1  0.6315450000000  0.6887510000000  0.4468610000000 1.0
C      1  0.0876499000000  0.4070160000000  0.6433180000000 1.0
C      1  0.0656220000000  0.3605010000000  0.4442520000000 1.0
C      1  0.1417030000000  0.5164020000000  0.3337820000000 1.0
C      1  0.2163390000000  0.6564870000000  0.4647420000000 1.0
C      1  0.1752620000000  0.5927120000000  0.6558590000000 1.0
C      1  0.9127440000000  0.5932350000000  0.6429660000000 1.0
C      1  0.9343460000000  0.6394670000000  0.4437870000000 1.0
C      1  0.8579920000000  0.4834270000000  0.3337020000000 1.0
C      1  0.7835470000000  0.3435750000000  0.4650190000000 1.0
C      1  0.8250780000000  0.4075960000000  0.6559580000000 1.0
C      1  0.3995180000000  0.5450930000000  0.3365730000000 1.0
C      1  0.4610390000000  0.6832720000000  0.4470600000000 1.0
C      1  0.4373860000000  0.6299040000000  0.6250560000000 1.0
C      1  0.3614330000000  0.4586410000000  0.6245240000000 1.0
C      1  0.3379580000000  0.4062380000000  0.4462740000000 1.0
C      1  0.6002690000000  0.4549500000000  0.3364330000000 1.0
C      1  0.5388760000000  0.3167120000000  0.4469180000000 1.0
C      1  0.5627350000000  0.3699860000000  0.6249150000000 1.0
C      1  0.6386860000000  0.5412500000000  0.6243850000000 1.0
C      1  0.6619570000000  0.5937470000000  0.4461360000000 1.0
C      1  0.8224950000000  0.4148550000000  0.4856910000000 1.0
C      1  0.8597910000000  0.4884470000000  0.4173490000000 1.0
C      1  0.9003310000000  0.5693580000000  0.4746660000000 1.0
C      1  0.8893670000000  0.5451360000000  0.5784290000000 1.0
C      1  0.8424710000000  0.4490540000000  0.5852120000000 1.0
C      1  0.1774810000000  0.5852130000000  0.4855970000000 1.0
C      1  0.1400740000000  0.5115050000000  0.4174400000000 1.0
C      1  0.0996849000000  0.4306620000000  0.4749580000000 1.0
C      1  0.1108650000000  0.4550340000000  0.5786640000000 1.0
C      1  0.1577370000000  0.5511450000000  0.5852100000000 1.0
END
