TITL C-1525613-7943-2602 0.688753711497851 3375 -8493.98062889619 0 0 60 (C5) n - 1
REM
REM in /home/nfs/bkarasulu/CARBON/AIRSS/Generating-Clusters/ReaxFF-fromJPCA2015/Units_Real/Try2-Higher-symm/Only-C60
REM
REM
REM
REM
REM
REM ./C.cell (863b2abdce7293c0672fb3ba77bf323a)
REM AIRSS Version 0.9.1 bugfix July 2018 build 013d7b7c2542+ Fri, 06 Jul 2018 19:26:36 +0100
REM compiler GCC version 9.2.1 20190827 (Red Hat 9.2.1-1)
REM options -cpp -mtune=generic -march=x86-64 -g -O0 -fpre-include=/usr/include/finclude/math-vector-fortran.h
REM seed -1969216660 -87896393 -1560966670 322951548 2031894027 1376685178 1960758775 -423876969 -1172572691 -797180131 1852665663 1685473996 1362842550 2030033893 -56051744 1926045370 -468838875 -3224799 1952081807 -346804372 -399893608 1619389186 1116162251 -743714868 1927639019 1186640917 -1031722991 865994942 592020091 -2128607767 1801335953 -1673409861 89558981
REM
CELL 1.54180   15.00000   15.00000   15.00000   90.00000   90.00000   90.00000
LATT -1
SFAC C  
C      1  0.7559790000000  0.5406110000000  0.6242880000000 1.0
C      1  0.4611660000000  0.5408450000000  0.7818690000000 1.0
C      1  0.2196910000000  0.5405570000000  0.5502680000000 1.0
C      1  0.3658400000000  0.5407440000000  0.2484530000000 1.0
C      1  0.6974150000000  0.5406990000000  0.2947960000000 1.0
C      1  0.7563460000000  0.5407100000000  0.3756300000000 1.0
C      1  0.4610250000000  0.5406430000000  0.2177160000000 1.0
C      1  0.2197740000000  0.5407650000000  0.4502450000000 1.0
C      1  0.3660070000000  0.5409260000000  0.7510270000000 1.0
C      1  0.6971690000000  0.5405200000000  0.7052020000000 1.0
C      1  0.6124470000000  0.6928920000000  0.6880120000000 1.0
C      1  0.3557670000000  0.6937140000000  0.6657360000000 1.0
C      1  0.2981880000000  0.6935770000000  0.4141740000000 1.0
C      1  0.5191820000000  0.6936650000000  0.2811520000000 1.0
C      1  0.7141120000000  0.6936610000000  0.4506150000000 1.0
C      1  0.6128820000000  0.6935170000000  0.3117090000000 1.0
C      1  0.3555350000000  0.6937710000000  0.3340500000000 1.0
C      1  0.2979120000000  0.6933940000000  0.5859990000000 1.0
C      1  0.5189310000000  0.6938820000000  0.7189810000000 1.0
C      1  0.7136390000000  0.6932110000000  0.5491270000000 1.0
C      1  0.5893960000000  0.3419080000000  0.6223440000000 1.0
C      1  0.4113860000000  0.3422950000000  0.6226080000000 1.0
C      1  0.3558110000000  0.3420950000000  0.4536220000000 1.0
C      1  0.4996530000000  0.3424060000000  0.3488040000000 1.0
C      1  0.6438240000000  0.3423520000000  0.4530070000000 1.0
C      1  0.5892990000000  0.3422320000000  0.3778640000000 1.0
C      1  0.4113560000000  0.3423810000000  0.3774750000000 1.0
C      1  0.3558170000000  0.3419950000000  0.5464660000000 1.0
C      1  0.4996910000000  0.3423060000000  0.6512700000000 1.0
C      1  0.6439760000000  0.3420150000000  0.5472530000000 1.0
C      1  0.2841730000000  0.3835610000000  0.4038880000000 1.0
C      1  0.5247730000000  0.3836550000000  0.2652120000000 1.0
C      1  0.7309930000000  0.3837690000000  0.4510320000000 1.0
C      1  0.6181420000000  0.3833760000000  0.7046800000000 1.0
C      1  0.3420650000000  0.3838040000000  0.6754610000000 1.0
C      1  0.2841790000000  0.3834380000000  0.5962140000000 1.0
C      1  0.5247530000000  0.3836920000000  0.7348180000000 1.0
C      1  0.7312100000000  0.3834030000000  0.5491640000000 1.0
C      1  0.6181130000000  0.3835350000000  0.2954720000000 1.0
C      1  0.3420040000000  0.3837860000000  0.3246030000000 1.0
C      1  0.6964940000000  0.4413770000000  0.2964990000000 1.0
C      1  0.7543710000000  0.4412800000000  0.6240310000000 1.0
C      1  0.4607940000000  0.4415250000000  0.7801310000000 1.0
C      1  0.2213530000000  0.4412470000000  0.5492770000000 1.0
C      1  0.3671570000000  0.4414200000000  0.2501990000000 1.0
C      1  0.6965360000000  0.4412090000000  0.7036460000000 1.0
C      1  0.7544090000000  0.4413970000000  0.3760550000000 1.0
C      1  0.4607380000000  0.4413290000000  0.2197800000000 1.0
C      1  0.2214450000000  0.4414270000000  0.4508740000000 1.0
C      1  0.3672070000000  0.4415960000000  0.7497410000000 1.0
C      1  0.6906520000000  0.5986290000000  0.4216010000000 1.0
C      1  0.6329450000000  0.5980220000000  0.6566940000000 1.0
C      1  0.3921840000000  0.5988250000000  0.6752190000000 1.0
C      1  0.2998830000000  0.5987700000000  0.4518990000000 1.0
C      1  0.4842190000000  0.5986660000000  0.2943810000000 1.0
C      1  0.6901080000000  0.5983320000000  0.5783380000000 1.0
C      1  0.6335590000000  0.5986670000000  0.3432080000000 1.0
C      1  0.3919020000000  0.5988910000000  0.3241120000000 1.0
C      1  0.2999520000000  0.5983500000000  0.5488930000000 1.0
C      1  0.4844670000000  0.5987320000000  0.7051160000000 1.0
END
