TITL C-1525613-7943-5028 0.0523179052470653 3375 -8800.42631543411 0 0 60 (C1) n - 1
REM
REM in /home/nfs/bkarasulu/CARBON/AIRSS/Generating-Clusters/ReaxFF-fromJPCA2015/Units_Real/Try2-Higher-symm/Only-C60
REM
REM
REM
REM
REM
REM ./C.cell (863b2abdce7293c0672fb3ba77bf323a)
REM AIRSS Version 0.9.1 bugfix July 2018 build 013d7b7c2542+ Fri, 06 Jul 2018 19:26:36 +0100
REM compiler GCC version 9.2.1 20190827 (Red Hat 9.2.1-1)
REM options -cpp -mtune=generic -march=x86-64 -g -O0 -fpre-include=/usr/include/finclude/math-vector-fortran.h
REM seed 1710394933 4969133 -767311429 364160255 -389932406 377338320 -520443692 -2106780100 -80180375 1540621134 -70488837 -950078796 -940365061 -182362738 1009647756 233188094 473126985 -1771266888 244313115 721963624 -965555017 844031253 644497506 1286934145 -1330277538 126718890 -620651441 -1147284223 1616493772 -1920995024 -865249286 -2013869159 531956437
REM
CELL 1.54180   15.00000   15.00000   15.00000   90.00000   90.00000   90.00000
LATT -1
SFAC C  
C      1  0.5411570000000  0.3111790000000  0.4298370000000 1.0
C      1  0.5491230000000  0.3996850000000  0.2617970000000 1.0
C      1  0.5342650000000  0.5321410000000  0.2843570000000 1.0
C      1  0.5302220000000  0.6177410000000  0.3190490000000 1.0
C      1  0.5385580000000  0.7159440000000  0.4770070000000 1.0
C      1  0.5413330000000  0.6903100000000  0.5697750000000 1.0
C      1  0.5501550000000  0.6030310000000  0.7348570000000 1.0
C      1  0.5408920000000  0.4679610000000  0.7147430000000 1.0
C      1  0.5321470000000  0.3785880000000  0.6830690000000 1.0
C      1  0.5408240000000  0.2819270000000  0.5216960000000 1.0
C      1  0.4620500000000  0.4017700000000  0.3067580000000 1.0
C      1  0.4536210000000  0.5041740000000  0.3170380000000 1.0
C      1  0.4551570000000  0.6736960000000  0.3483520000000 1.0
C      1  0.4596270000000  0.7229120000000  0.4258780000000 1.0
C      1  0.4644780000000  0.6624490000000  0.6154600000000 1.0
C      1  0.4631210000000  0.5983630000000  0.6929230000000 1.0
C      1  0.4575300000000  0.4953160000000  0.6870920000000 1.0
C      1  0.4552130000000  0.3262570000000  0.6516430000000 1.0
C      1  0.4597640000000  0.2807230000000  0.5725500000000 1.0
C      1  0.4640470000000  0.3364370000000  0.3829160000000 1.0
C      1  0.3642470000000  0.7363590000000  0.4572100000000 1.0
C      1  0.3710410000000  0.6983430000000  0.6079770000000 1.0
C      1  0.3527720000000  0.6108000000000  0.7189910000000 1.0
C      1  0.3638580000000  0.4681930000000  0.7186990000000 1.0
C      1  0.3522780000000  0.3286360000000  0.6714920000000 1.0
C      1  0.3588110000000  0.2644240000000  0.5415850000000 1.0
C      1  0.3711620000000  0.2987420000000  0.3906260000000 1.0
C      1  0.3556900000000  0.3873720000000  0.2779080000000 1.0
C      1  0.3616150000000  0.5280250000000  0.2912810000000 1.0
C      1  0.3578500000000  0.6704950000000  0.3297630000000 1.0
C      1  0.7029400000000  0.3561820000000  0.4451730000000 1.0
C      1  0.7589830000000  0.4272790000000  0.4033130000000 1.0
C      1  0.7171580000000  0.5091010000000  0.3654720000000 1.0
C      1  0.6954290000000  0.6053660000000  0.3776720000000 1.0
C      1  0.6983100000000  0.6631620000000  0.4590750000000 1.0
C      1  0.7033730000000  0.6441070000000  0.5538490000000 1.0
C      1  0.7579930000000  0.5724630000000  0.5966090000000 1.0
C      1  0.7163290000000  0.4910670000000  0.6354030000000 1.0
C      1  0.6969600000000  0.3941500000000  0.6221580000000 1.0
C      1  0.6991370000000  0.3374390000000  0.5398550000000 1.0
C      1  0.3046720000000  0.3480690000000  0.3439000000000 1.0
C      1  0.3040510000000  0.4631730000000  0.2881250000000 1.0
C      1  0.3110110000000  0.5915670000000  0.3175720000000 1.0
C      1  0.3042880000000  0.6883300000000  0.4046380000000 1.0
C      1  0.3173660000000  0.7056830000000  0.5321500000000 1.0
C      1  0.3026360000000  0.6505190000000  0.6526140000000 1.0
C      1  0.2984760000000  0.5359800000000  0.7108100000000 1.0
C      1  0.3027260000000  0.4066820000000  0.6839550000000 1.0
C      1  0.2988590000000  0.3122300000000  0.5953020000000 1.0
C      1  0.3151140000000  0.2966870000000  0.4661600000000 1.0
C      1  0.6168900000000  0.3455790000000  0.6498000000000 1.0
C      1  0.6192850000000  0.2944400000000  0.5717380000000 1.0
C      1  0.6254240000000  0.3377550000000  0.3910660000000 1.0
C      1  0.6218630000000  0.3761760000000  0.3057830000000 1.0
C      1  0.6107260000000  0.4706550000000  0.2857160000000 1.0
C      1  0.6150500000000  0.6533410000000  0.3498880000000 1.0
C      1  0.6175280000000  0.7045610000000  0.4284290000000 1.0
C      1  0.6261530000000  0.6640950000000  0.6076120000000 1.0
C      1  0.6239630000000  0.6280270000000  0.6950900000000 1.0
C      1  0.6146940000000  0.5341410000000  0.7187430000000 1.0
END
