TITL C-1525613-7943-3651 0.344406502865665 3375 -8652.08831411017 0 0 60 (C1) n - 1
REM
REM in /home/nfs/bkarasulu/CARBON/AIRSS/Generating-Clusters/ReaxFF-fromJPCA2015/Units_Real/Try2-Higher-symm/Only-C60
REM
REM
REM
REM
REM
REM ./C.cell (863b2abdce7293c0672fb3ba77bf323a)
REM AIRSS Version 0.9.1 bugfix July 2018 build 013d7b7c2542+ Fri, 06 Jul 2018 19:26:36 +0100
REM compiler GCC version 9.2.1 20190827 (Red Hat 9.2.1-1)
REM options -cpp -mtune=generic -march=x86-64 -g -O0 -fpre-include=/usr/include/finclude/math-vector-fortran.h
REM seed 981617865 -1792051577 1838642606 667667113 -204364637 917289011 -1253833656 -1847455272 250865873 1082411491 255022806 -930857860 348618095 -494026037 1786752117 -382744362 -214587366 105097222 856974831 1077914055 1135928698 -954651763 -1155134981 -35697399 -2002857076 581635297 940222001 1707181468 -2080827042 758373305 -812406705 23292293 1619790005
REM
CELL 1.54180   15.00000   15.00000   15.00000   90.00000   90.00000   90.00000
LATT -1
SFAC C  
C      1  0.5882530000000  0.4866310000000  0.2896010000000 1.0
C      1  0.5891340000000  0.2925540000000  0.4466340000000 1.0
C      1  0.5909510000000  0.3850900000000  0.6816900000000 1.0
C      1  0.5877850000000  0.6350920000000  0.6646950000000 1.0
C      1  0.5896080000000  0.6990100000000  0.4223770000000 1.0
C      1  0.4093940000000  0.4877350000000  0.7140680000000 1.0
C      1  0.4110730000000  0.2934440000000  0.5529510000000 1.0
C      1  0.4099190000000  0.3844420000000  0.3186750000000 1.0
C      1  0.4100720000000  0.6374460000000  0.3343220000000 1.0
C      1  0.4096990000000  0.7003330000000  0.5789250000000 1.0
C      1  0.5731620000000  0.5053410000000  0.5782910000000 1.0
C      1  0.5719950000000  0.5760620000000  0.5167920000000 1.0
C      1  0.5729080000000  0.5377720000000  0.4322820000000 1.0
C      1  0.5748540000000  0.4465290000000  0.4411890000000 1.0
C      1  0.5751280000000  0.4258770000000  0.5301650000000 1.0
C      1  0.4268860000000  0.5065440000000  0.4209050000000 1.0
C      1  0.4273370000000  0.5773670000000  0.4810620000000 1.0
C      1  0.4272270000000  0.5415320000000  0.5673760000000 1.0
C      1  0.4273360000000  0.4488770000000  0.5592510000000 1.0
C      1  0.4271080000000  0.4273960000000  0.4689850000000 1.0
C      1  0.5870520000000  0.4764900000000  0.7158140000000 1.0
C      1  0.5864410000000  0.6953780000000  0.5882770000000 1.0
C      1  0.5874960000000  0.6447530000000  0.3414100000000 1.0
C      1  0.5860990000000  0.3922650000000  0.3149400000000 1.0
C      1  0.5890790000000  0.2897470000000  0.5441210000000 1.0
C      1  0.4122910000000  0.4765010000000  0.2851310000000 1.0
C      1  0.4124150000000  0.6981440000000  0.4110370000000 1.0
C      1  0.4113640000000  0.6472900000000  0.6610190000000 1.0
C      1  0.4133030000000  0.3940050000000  0.6863680000000 1.0
C      1  0.4121470000000  0.2884340000000  0.4555890000000 1.0
C      1  0.3563770000000  0.3427460000000  0.3935450000000 1.0
C      1  0.3573600000000  0.3506480000000  0.6166880000000 1.0
C      1  0.3560530000000  0.5663400000000  0.6782070000000 1.0
C      1  0.3562430000000  0.6900560000000  0.4930840000000 1.0
C      1  0.3569220000000  0.5526180000000  0.3168810000000 1.0
C      1  0.6455970000000  0.3431210000000  0.6067760000000 1.0
C      1  0.6438740000000  0.3491820000000  0.3832260000000 1.0
C      1  0.6431190000000  0.5648530000000  0.3222590000000 1.0
C      1  0.6437580000000  0.6887700000000  0.5071510000000 1.0
C      1  0.6426390000000  0.5517920000000  0.6828170000000 1.0
C      1  0.3262610000000  0.5390030000000  0.5867200000000 1.0
C      1  0.3263580000000  0.5947440000000  0.4895790000000 1.0
C      1  0.3263100000000  0.5200490000000  0.4057520000000 1.0
C      1  0.3259730000000  0.4175510000000  0.4520080000000 1.0
C      1  0.3267740000000  0.4295370000000  0.5632890000000 1.0
C      1  0.6735490000000  0.5382830000000  0.4129760000000 1.0
C      1  0.6737890000000  0.5939990000000  0.5092140000000 1.0
C      1  0.6732680000000  0.5192750000000  0.5934390000000 1.0
C      1  0.6760180000000  0.4170380000000  0.5475680000000 1.0
C      1  0.6755730000000  0.4279620000000  0.4355320000000 1.0
C      1  0.5012300000000  0.2951410000000  0.5872670000000 1.0
C      1  0.4992710000000  0.5214660000000  0.7246790000000 1.0
C      1  0.4994800000000  0.7202740000000  0.5493830000000 1.0
C      1  0.4999780000000  0.6159140000000  0.3068130000000 1.0
C      1  0.4991250000000  0.3489480000000  0.3304890000000 1.0
C      1  0.4992620000000  0.2917110000000  0.4106890000000 1.0
C      1  0.4992760000000  0.5216910000000  0.2778660000000 1.0
C      1  0.4996650000000  0.7200900000000  0.4508310000000 1.0
C      1  0.4983000000000  0.6152250000000  0.6950030000000 1.0
C      1  0.5010780000000  0.3538890000000  0.6663290000000 1.0
END
