TITL C-1525613-7943-5007 -0.0578898068576866 3375 -8986.90688714837 0 0 60 (D5) n - 1
REM
REM in /home/nfs/bkarasulu/CARBON/AIRSS/Generating-Clusters/ReaxFF-fromJPCA2015/Units_Real/Try2-Higher-symm/Only-C60
REM
REM
REM
REM
REM
REM ./C.cell (863b2abdce7293c0672fb3ba77bf323a)
REM AIRSS Version 0.9.1 bugfix July 2018 build 013d7b7c2542+ Fri, 06 Jul 2018 19:26:36 +0100
REM compiler GCC version 9.2.1 20190827 (Red Hat 9.2.1-1)
REM options -cpp -mtune=generic -march=x86-64 -g -O0 -fpre-include=/usr/include/finclude/math-vector-fortran.h
REM seed 2029469963 -1407071061 241844897 -1862206317 1091669473 1051728865 -1880191287 -1092997082 -925958234 -809174299 381286420 453808287 208274012 -549417767 -143420163 10725563 -1690253084 512686551 1927903010 1416408995 889321476 -813510882 828033140 -324799081 -134255294 -1224822532 -115359033 -1082350936 -661945888 2087848954 -2010172978 -988534855 -1853702225
REM
CELL 1.54180   15.00000   15.00000   15.00000   90.00000   90.00000   90.00000
LATT -1
SFAC C  
C      1  0.5757860000000  0.6403960000000  0.7007100000000 1.0
C      1  0.7142870000000  0.6404710000000  0.4899200000000 1.0
C      1  0.5565510000000  0.6404820000000  0.2929930000000 1.0
C      1  0.3206980000000  0.6403740000000  0.3821970000000 1.0
C      1  0.3327070000000  0.6404620000000  0.6341780000000 1.0
C      1  0.5757860000000  0.3596040000000  0.2992900000000 1.0
C      1  0.7142870000000  0.3595290000000  0.5100800000000 1.0
C      1  0.5565510000000  0.3595180000000  0.7070070000000 1.0
C      1  0.3206980000000  0.3596260000000  0.6178030000000 1.0
C      1  0.3327070000000  0.3595380000000  0.3658220000000 1.0
C      1  0.4933960000000  0.4052130000000  0.3251020000000 1.0
C      1  0.3317600000000  0.4052580000000  0.4523000000000 1.0
C      1  0.4024380000000  0.4052180000000  0.6454350000000 1.0
C      1  0.6081520000000  0.4051520000000  0.6375900000000 1.0
C      1  0.6641530000000  0.4051890000000  0.4396150000000 1.0
C      1  0.4933960000000  0.5947870000000  0.6748980000000 1.0
C      1  0.3317600000000  0.5947420000000  0.5477000000000 1.0
C      1  0.4024380000000  0.5947820000000  0.3545650000000 1.0
C      1  0.6081520000000  0.5948480000000  0.3624100000000 1.0
C      1  0.6641530000000  0.5948110000000  0.5603850000000 1.0
C      1  0.4213440000000  0.4315050000000  0.4774900000000 1.0
C      1  0.4542710000000  0.4315030000000  0.5677780000000 1.0
C      1  0.5504250000000  0.4314740000000  0.5643910000000 1.0
C      1  0.5768250000000  0.4315700000000  0.4719930000000 1.0
C      1  0.4969990000000  0.4316710000000  0.4183040000000 1.0
C      1  0.4213440000000  0.5684950000000  0.5225100000000 1.0
C      1  0.4542710000000  0.5684970000000  0.4322220000000 1.0
C      1  0.5504250000000  0.5685260000000  0.4356090000000 1.0
C      1  0.5768250000000  0.5684300000000  0.5280070000000 1.0
C      1  0.4969990000000  0.5683290000000  0.5816960000000 1.0
C      1  0.5029360000000  0.7502470000000  0.4167330000000 1.0
C      1  0.4217630000000  0.7503330000000  0.4713360000000 1.0
C      1  0.4487380000000  0.7502650000000  0.5655440000000 1.0
C      1  0.5466010000000  0.7503410000000  0.5691840000000 1.0
C      1  0.5800870000000  0.7502660000000  0.4772060000000 1.0
C      1  0.5029360000000  0.2497530000000  0.5832670000000 1.0
C      1  0.4217630000000  0.2496670000000  0.5286640000000 1.0
C      1  0.4487380000000  0.2497350000000  0.4344560000000 1.0
C      1  0.5466010000000  0.2496590000000  0.4308160000000 1.0
C      1  0.5800870000000  0.2497340000000  0.5227940000000 1.0
C      1  0.3337410000000  0.7189790000000  0.4391860000000 1.0
C      1  0.3910550000000  0.7190680000000  0.6393540000000 1.0
C      1  0.5988100000000  0.7190050000000  0.6469450000000 1.0
C      1  0.6701910000000  0.7190050000000  0.4514270000000 1.0
C      1  0.5062320000000  0.7189190000000  0.3231110000000 1.0
C      1  0.3337410000000  0.2810210000000  0.5608140000000 1.0
C      1  0.3910550000000  0.2809320000000  0.3606460000000 1.0
C      1  0.5988100000000  0.2809950000000  0.3530550000000 1.0
C      1  0.6701910000000  0.2809950000000  0.5485730000000 1.0
C      1  0.5062320000000  0.2810810000000  0.6768890000000 1.0
C      1  0.6878580000000  0.3596180000000  0.6041210000000 1.0
C      1  0.6570480000000  0.3597370000000  0.3534760000000 1.0
C      1  0.4093030000000  0.3597000000000  0.3053940000000 1.0
C      1  0.2868810000000  0.3596800000000  0.5262190000000 1.0
C      1  0.4589670000000  0.3597480000000  0.7108660000000 1.0
C      1  0.6878580000000  0.6403820000000  0.3958790000000 1.0
C      1  0.6570480000000  0.6402630000000  0.6465240000000 1.0
C      1  0.4093030000000  0.6403000000000  0.6946060000000 1.0
C      1  0.2868810000000  0.6403200000000  0.4737810000000 1.0
C      1  0.4589670000000  0.6402520000000  0.2891340000000 1.0
END
