TITL C-1525613-7943-3730 0.263186564002195 3375 -8086.82665345535 0 0 60 (D5) n - 1
REM
REM in /home/nfs/bkarasulu/CARBON/AIRSS/Generating-Clusters/ReaxFF-fromJPCA2015/Units_Real/Try2-Higher-symm/Only-C60
REM
REM
REM
REM
REM
REM ./C.cell (863b2abdce7293c0672fb3ba77bf323a)
REM AIRSS Version 0.9.1 bugfix July 2018 build 013d7b7c2542+ Fri, 06 Jul 2018 19:26:36 +0100
REM compiler GCC version 9.2.1 20190827 (Red Hat 9.2.1-1)
REM options -cpp -mtune=generic -march=x86-64 -g -O0 -fpre-include=/usr/include/finclude/math-vector-fortran.h
REM seed -648882391 1393107176 -1158700000 -4648080 -580271372 273542080 -830976655 -732159877 -715321591 -897283402 1069469947 1795639077 898534810 1039982401 -33946910 1438570140 112153132 -1042714371 -1206083240 -1435005582 -601638459 -1859115384 746545364 570258517 2073941700 -777673883 -1769928909 2046918544 -117932605 -1608986709 1856174420 1083788098 1755995565
REM
CELL 1.54180   15.00000   15.00000   15.00000   90.00000   90.00000   90.00000
LATT -1
SFAC C  
C      1  0.3752630000000  0.3158710000000  0.3947880000000 1.0
C      1  0.6368910000000  0.3248220000000  0.3952090000000 1.0
C      1  0.7089220000000  0.5754950000000  0.3950630000000 1.0
C      1  0.4923970000000  0.7226560000000  0.3952050000000 1.0
C      1  0.2867530000000  0.5615100000000  0.3949020000000 1.0
C      1  0.6244420000000  0.3156380000000  0.6047850000000 1.0
C      1  0.3633740000000  0.3248730000000  0.6048300000000 1.0
C      1  0.2906200000000  0.5754570000000  0.6052190000000 1.0
C      1  0.5077450000000  0.7227160000000  0.6047820000000 1.0
C      1  0.7132270000000  0.5618890000000  0.6051680000000 1.0
C      1  0.2648360000000  0.4627700000000  0.5297200000000 1.0
C      1  0.4626750000000  0.2654210000000  0.5294530000000 1.0
C      1  0.7120410000000  0.3919260000000  0.5301130000000 1.0
C      1  0.6683060000000  0.6684020000000  0.5296090000000 1.0
C      1  0.3921570000000  0.7118060000000  0.5300740000000 1.0
C      1  0.7350500000000  0.4628500000000  0.4705330000000 1.0
C      1  0.5372710000000  0.2650550000000  0.4698030000000 1.0
C      1  0.2879110000000  0.3918450000000  0.4701760000000 1.0
C      1  0.3319260000000  0.6678750000000  0.4703990000000 1.0
C      1  0.6079220000000  0.7120950000000  0.4699130000000 1.0
C      1  0.4200410000000  0.5115500000000  0.5638780000000 1.0
C      1  0.4649930000000  0.4276680000000  0.5637340000000 1.0
C      1  0.5580230000000  0.4436130000000  0.5641500000000 1.0
C      1  0.5717490000000  0.5373080000000  0.5645480000000 1.0
C      1  0.4866250000000  0.5793100000000  0.5642540000000 1.0
C      1  0.5798510000000  0.5111260000000  0.4360760000000 1.0
C      1  0.5352190000000  0.4276050000000  0.4358350000000 1.0
C      1  0.4418900000000  0.4434210000000  0.4363720000000 1.0
C      1  0.4290440000000  0.5370540000000  0.4353420000000 1.0
C      1  0.5136290000000  0.5792050000000  0.4358330000000 1.0
C      1  0.3035790000000  0.4875590000000  0.6252180000000 1.0
C      1  0.4508040000000  0.3098830000000  0.6246230000000 1.0
C      1  0.6656410000000  0.3941960000000  0.6254640000000 1.0
C      1  0.6515350000000  0.6256960000000  0.6248960000000 1.0
C      1  0.4285250000000  0.6829480000000  0.6252910000000 1.0
C      1  0.6963600000000  0.4876050000000  0.3750740000000 1.0
C      1  0.5496170000000  0.3096680000000  0.3747300000000 1.0
C      1  0.3340970000000  0.3944650000000  0.3747820000000 1.0
C      1  0.3483800000000  0.6251970000000  0.3749470000000 1.0
C      1  0.5716800000000  0.6829380000000  0.3746970000000 1.0
C      1  0.7364130000000  0.6223560000000  0.4734720000000 1.0
C      1  0.4564860000000  0.7630180000000  0.4738800000000 1.0
C      1  0.2371100000000  0.5401600000000  0.4736290000000 1.0
C      1  0.3802360000000  0.2624200000000  0.4737160000000 1.0
C      1  0.6895270000000  0.3128990000000  0.4739330000000 1.0
C      1  0.2635860000000  0.6221980000000  0.5266460000000 1.0
C      1  0.5433070000000  0.7630260000000  0.5259180000000 1.0
C      1  0.7628360000000  0.5403580000000  0.5265520000000 1.0
C      1  0.6193340000000  0.2619160000000  0.5260730000000 1.0
C      1  0.3102090000000  0.3129430000000  0.5265520000000 1.0
C      1  0.4173420000000  0.4375340000000  0.3422000000000 1.0
C      1  0.5339470000000  0.4022890000000  0.3418190000000 1.0
C      1  0.6035520000000  0.5012740000000  0.3420560000000 1.0
C      1  0.5294740000000  0.5990550000000  0.3417130000000 1.0
C      1  0.4153120000000  0.5593680000000  0.3415510000000 1.0
C      1  0.5822740000000  0.4371200000000  0.6581890000000 1.0
C      1  0.4661770000000  0.4025140000000  0.6580190000000 1.0
C      1  0.3963990000000  0.5011750000000  0.6578060000000 1.0
C      1  0.4709520000000  0.5992240000000  0.6584070000000 1.0
C      1  0.5845170000000  0.5601630000000  0.6583830000000 1.0
END
