TITL C-1525613-7943-3627 -0.0999253126651527 3375 -9105.59027252246 0 0 60 (Ci) n - 1
REM
REM in /home/nfs/bkarasulu/CARBON/AIRSS/Generating-Clusters/ReaxFF-fromJPCA2015/Units_Real/Try2-Higher-symm/Only-C60
REM
REM
REM
REM
REM
REM ./C.cell (863b2abdce7293c0672fb3ba77bf323a)
REM AIRSS Version 0.9.1 bugfix July 2018 build 013d7b7c2542+ Fri, 06 Jul 2018 19:26:36 +0100
REM compiler GCC version 9.2.1 20190827 (Red Hat 9.2.1-1)
REM options -cpp -mtune=generic -march=x86-64 -g -O0 -fpre-include=/usr/include/finclude/math-vector-fortran.h
REM seed 650176391 -403292165 -1942313235 211322280 -1005046205 2041539032 -411991384 -1809137725 -860113903 1738425808 1222723745 -870196689 806241369 -1466804065 -1712968741 50471295 1560556708 -1094153115 597321322 -1234598066 1351799836 -81434072 1359108293 -1019622819 -1323720121 -2089497195 624939309 711179009 735222829 -1607601220 -1942738365 -149411762 -897135394
REM
CELL 1.54180   15.00000   15.00000   15.00000   90.00000   90.00000   90.00000
LATT -1
SFAC C  
C      1  0.5827280000000  0.7050210000000  0.4309280000000 1.0
C      1  0.4139540000000  0.7081070000000  0.5675510000000 1.0
C      1  0.5926710000000  0.6299700000000  0.6773500000000 1.0
C      1  0.4176820000000  0.5020070000000  0.7120390000000 1.0
C      1  0.5941090000000  0.3704380000000  0.6800690000000 1.0
C      1  0.4173950000000  0.2950070000000  0.5689860000000 1.0
C      1  0.5862290000000  0.2918420000000  0.4324520000000 1.0
C      1  0.4072300000000  0.3700110000000  0.3226500000000 1.0
C      1  0.5822860000000  0.4979200000000  0.2879800000000 1.0
C      1  0.4058960000000  0.6295570000000  0.3199290000000 1.0
C      1  0.7081330000000  0.4825370000000  0.5780190000000 1.0
C      1  0.2934520000000  0.4402620000000  0.5512200000000 1.0
C      1  0.7089710000000  0.4165100000000  0.5091340000000 1.0
C      1  0.2930810000000  0.4283680000000  0.4564210000000 1.0
C      1  0.7065130000000  0.4664680000000  0.4280090000000 1.0
C      1  0.2918190000000  0.5174700000000  0.4220340000000 1.0
C      1  0.7066100000000  0.5596570000000  0.4488590000000 1.0
C      1  0.2910740000000  0.5835220000000  0.4908790000000 1.0
C      1  0.7069110000000  0.5716410000000  0.5436130000000 1.0
C      1  0.2934340000000  0.5335050000000  0.5719620000000 1.0
C      1  0.5702490000000  0.4181240000000  0.5132610000000 1.0
C      1  0.4361950000000  0.4308910000000  0.4541620000000 1.0
C      1  0.5634530000000  0.4661900000000  0.4310120000000 1.0
C      1  0.4304530000000  0.5199380000000  0.4178430000000 1.0
C      1  0.5679490000000  0.5580260000000  0.4516260000000 1.0
C      1  0.4297050000000  0.5819240000000  0.4867540000000 1.0
C      1  0.5638060000000  0.5691770000000  0.5458110000000 1.0
C      1  0.4365200000000  0.5339080000000  0.5690400000000 1.0
C      1  0.5694530000000  0.4801310000000  0.5821840000000 1.0
C      1  0.4319860000000  0.4420350000000  0.5483860000000 1.0
C      1  0.3696600000000  0.5644060000000  0.6444380000000 1.0
C      1  0.6326100000000  0.4650070000000  0.6592030000000 1.0
C      1  0.3718920000000  0.3824550000000  0.6031510000000 1.0
C      1  0.6331160000000  0.3390540000000  0.5172150000000 1.0
C      1  0.3678320000000  0.3619290000000  0.4171450000000 1.0
C      1  0.6302640000000  0.4355750000000  0.3555860000000 1.0
C      1  0.3673470000000  0.5350160000000  0.3407600000000 1.0
C      1  0.6281250000000  0.6174920000000  0.3968600000000 1.0
C      1  0.3668830000000  0.6610340000000  0.4828240000000 1.0
C      1  0.6321650000000  0.6380800000000  0.5828850000000 1.0
C      1  0.4054910000000  0.6928350000000  0.3920290000000 1.0
C      1  0.5903020000000  0.7185280000000  0.5259530000000 1.0
C      1  0.4147590000000  0.6562420000000  0.6492580000000 1.0
C      1  0.5926660000000  0.5426180000000  0.7165860000000 1.0
C      1  0.4188690000000  0.4100840000000  0.6916830000000 1.0
C      1  0.5945800000000  0.3071670000000  0.6079840000000 1.0
C      1  0.4098380000000  0.2814910000000  0.4739770000000 1.0
C      1  0.5851690000000  0.3437090000000  0.3507480000000 1.0
C      1  0.4072770000000  0.4573820000000  0.2834190000000 1.0
C      1  0.5811440000000  0.5898620000000  0.3083430000000 1.0
C      1  0.4982760000000  0.2857910000000  0.6236050000000 1.0
C      1  0.4989240000000  0.2770570000000  0.4562660000000 1.0
C      1  0.5039090000000  0.3572630000000  0.2978500000000 1.0
C      1  0.5028150000000  0.4485100000000  0.2573140000000 1.0
C      1  0.5019990000000  0.6477580000000  0.3014530000000 1.0
C      1  0.5017830000000  0.7141880000000  0.3763560000000 1.0
C      1  0.5012180000000  0.7230090000000  0.5435360000000 1.0
C      1  0.4959800000000  0.6426720000000  0.7021630000000 1.0
C      1  0.4971340000000  0.5514210000000  0.7427120000000 1.0
C      1  0.4980280000000  0.3522030000000  0.6985340000000 1.0
END
