TITL C-1525613-7943-4693 0.145175085243442 3375 -9288.92788579751 0 0 60 (Ci) n - 1
REM
REM in /home/nfs/bkarasulu/CARBON/AIRSS/Generating-Clusters/ReaxFF-fromJPCA2015/Units_Real/Try2-Higher-symm/Only-C60
REM
REM
REM
REM
REM
REM ./C.cell (863b2abdce7293c0672fb3ba77bf323a)
REM AIRSS Version 0.9.1 bugfix July 2018 build 013d7b7c2542+ Fri, 06 Jul 2018 19:26:36 +0100
REM compiler GCC version 9.2.1 20190827 (Red Hat 9.2.1-1)
REM options -cpp -mtune=generic -march=x86-64 -g -O0 -fpre-include=/usr/include/finclude/math-vector-fortran.h
REM seed 1941984174 1626616033 1931952136 2043547584 879952946 1860979372 -1986531071 1268216160 140902638 -682698347 -874324535 1913545281 1277440343 -2015081204 -1386180138 -422484098 -626093281 -919449740 419942887 1814071657 -1209079716 822796436 -1959071672 1226473513 1817573719 1021511322 -674378960 301613220 2041718681 1968300681 -1308918311 1774963668 -596017189
REM
CELL 1.54180   15.00000   15.00000   15.00000   90.00000   90.00000   90.00000
LATT -1
SFAC C  
C      1  0.3872590000000  0.4087470000000  0.3120130000000 1.0
C      1  0.6253820000000  0.5436930000000  0.2800940000000 1.0
C      1  0.3826230000000  0.6605280000000  0.3499860000000 1.0
C      1  0.6210020000000  0.7201040000000  0.4678350000000 1.0
C      1  0.3771850000000  0.6848850000000  0.5957560000000 1.0
C      1  0.6142940000000  0.5904240000000  0.6876660000000 1.0
C      1  0.3750500000000  0.4560310000000  0.7198860000000 1.0
C      1  0.6174910000000  0.3387310000000  0.6496690000000 1.0
C      1  0.3781190000000  0.2805780000000  0.5314400000000 1.0
C      1  0.6218340000000  0.3155860000000  0.4060330000000 1.0
C      1  0.3821540000000  0.2910790000000  0.4334550000000 1.0
C      1  0.6245050000000  0.3761500000000  0.3279720000000 1.0
C      1  0.3906190000000  0.5064690000000  0.3053170000000 1.0
C      1  0.6240730000000  0.6337470000000  0.3210880000000 1.0
C      1  0.3774180000000  0.7146820000000  0.4315700000000 1.0
C      1  0.6167950000000  0.7096580000000  0.5658250000000 1.0
C      1  0.3761660000000  0.6249320000000  0.6742650000000 1.0
C      1  0.6113340000000  0.4928930000000  0.6950740000000 1.0
C      1  0.3762850000000  0.3655830000000  0.6779280000000 1.0
C      1  0.6213610000000  0.2845890000000  0.5680310000000 1.0
C      1  0.6545310000000  0.4687900000000  0.3373020000000 1.0
C      1  0.3665500000000  0.5686700000000  0.3775260000000 1.0
C      1  0.6570830000000  0.6480460000000  0.4119120000000 1.0
C      1  0.3473550000000  0.6583700000000  0.5061520000000 1.0
C      1  0.6333500000000  0.6175760000000  0.5958070000000 1.0
C      1  0.3462860000000  0.5323900000000  0.6633320000000 1.0
C      1  0.6339880000000  0.4308740000000  0.6228280000000 1.0
C      1  0.3420240000000  0.3524770000000  0.5876750000000 1.0
C      1  0.6516790000000  0.3423730000000  0.4951880000000 1.0
C      1  0.3663220000000  0.3827860000000  0.4038370000000 1.0
C      1  0.6211700000000  0.5684270000000  0.4560260000000 1.0
C      1  0.4682870000000  0.5610420000000  0.5337670000000 1.0
C      1  0.5662100000000  0.5742750000000  0.5356110000000 1.0
C      1  0.4151290000000  0.5062880000000  0.5954870000000 1.0
C      1  0.6097590000000  0.4256350000000  0.5268000000000 1.0
C      1  0.3779030000000  0.4329560000000  0.5446490000000 1.0
C      1  0.5299720000000  0.4385700000000  0.4670200000000 1.0
C      1  0.4317140000000  0.4283060000000  0.4639730000000 1.0
C      1  0.5854740000000  0.4924970000000  0.4070810000000 1.0
C      1  0.3913160000000  0.5779600000000  0.4727300000000 1.0
C      1  0.5378380000000  0.3532520000000  0.7043670000000 1.0
C      1  0.4596340000000  0.2636130000000  0.5808640000000 1.0
C      1  0.5428540000000  0.2646280000000  0.4308560000000 1.0
C      1  0.4650240000000  0.3512920000000  0.3046270000000 1.0
C      1  0.5444610000000  0.4984400000000  0.2522260000000 1.0
C      1  0.4621650000000  0.6460600000000  0.2948350000000 1.0
C      1  0.5393770000000  0.7354340000000  0.4180090000000 1.0
C      1  0.4564100000000  0.7346380000000  0.5692960000000 1.0
C      1  0.5364220000000  0.6480120000000  0.6937760000000 1.0
C      1  0.4572630000000  0.5011400000000  0.7471730000000 1.0
C      1  0.4591240000000  0.7488520000000  0.4713520000000 1.0
C      1  0.5369520000000  0.7172500000000  0.6214850000000 1.0
C      1  0.4566740000000  0.5990260000000  0.7225960000000 1.0
C      1  0.5372510000000  0.4461370000000  0.7372440000000 1.0
C      1  0.4578370000000  0.3137850000000  0.6666240000000 1.0
C      1  0.5401890000000  0.2485840000000  0.5283380000000 1.0
C      1  0.4627710000000  0.2835880000000  0.3781420000000 1.0
C      1  0.5447800000000  0.4005370000000  0.2780930000000 1.0
C      1  0.4636740000000  0.5531040000000  0.2621390000000 1.0
C      1  0.5422500000000  0.6852280000000  0.3323510000000 1.0
END
