TITL C-1525613-7943-1649 0.0966509049215415 3375 -8322.68514199666 0 0 60 (C5) n - 1
REM
REM in /home/nfs/bkarasulu/CARBON/AIRSS/Generating-Clusters/ReaxFF-fromJPCA2015/Units_Real/Try2-Higher-symm/Only-C60
REM
REM
REM
REM
REM
REM ./C.cell (863b2abdce7293c0672fb3ba77bf323a)
REM AIRSS Version 0.9.1 bugfix July 2018 build 013d7b7c2542+ Fri, 06 Jul 2018 19:26:36 +0100
REM compiler GCC version 9.2.1 20190827 (Red Hat 9.2.1-1)
REM options -cpp -mtune=generic -march=x86-64 -g -O0 -fpre-include=/usr/include/finclude/math-vector-fortran.h
REM seed -638254342 -140157927 336516198 -1746184011 -1342275725 -529948154 125137126 -183626064 1214308681 -146234446 -1356009031 -277407181 243257409 -225634975 425409231 1380727153 691768272 1980669155 -2050386605 -651689593 1946740186 -326318882 -1577655404 1884739521 -135736340 391204866 389900588 -517566319 873902313 -967683487 2046527564 1284929563 -1678246009
REM
CELL 1.54180   15.00000   15.00000   15.00000   90.00000   90.00000   90.00000
LATT -1
SFAC C  
C      1  0.5154630000000  0.4510680000000  0.6736700000000 1.0
C      1  0.6683280000000  0.4516960000000  0.5395590000000 1.0
C      1  0.5901700000000  0.4509570000000  0.3498700000000 1.0
C      1  0.3860670000000  0.4516570000000  0.3684080000000 1.0
C      1  0.3407600000000  0.4515640000000  0.5676410000000 1.0
C      1  0.5154610000000  0.5489310000000  0.6736700000000 1.0
C      1  0.6683140000000  0.5483370000000  0.5395520000000 1.0
C      1  0.5901700000000  0.5490430000000  0.3498710000000 1.0
C      1  0.3860690000000  0.5483510000000  0.3684120000000 1.0
C      1  0.3407460000000  0.5484210000000  0.5676330000000 1.0
C      1  0.2688880000000  0.4491270000000  0.5027110000000 1.0
C      1  0.4299720000000  0.4489990000000  0.7208850000000 1.0
C      1  0.6887420000000  0.4491900000000  0.6342730000000 1.0
C      1  0.6869570000000  0.4489610000000  0.3623420000000 1.0
C      1  0.4260960000000  0.4492680000000  0.2801570000000 1.0
C      1  0.2688620000000  0.5508860000000  0.5026900000000 1.0
C      1  0.4299720000000  0.5510010000000  0.7208860000000 1.0
C      1  0.6887300000000  0.5507890000000  0.6342320000000 1.0
C      1  0.6869570000000  0.5510390000000  0.3623420000000 1.0
C      1  0.4260920000000  0.5507260000000  0.2801670000000 1.0
C      1  0.6491260000000  0.3623440000000  0.6546070000000 1.0
C      1  0.6945270000000  0.3620300000000  0.4060820000000 1.0
C      1  0.4702200000000  0.3623650000000  0.2875190000000 1.0
C      1  0.2880570000000  0.3623220000000  0.4627910000000 1.0
C      1  0.3979530000000  0.3618680000000  0.6900320000000 1.0
C      1  0.6491300000000  0.6376480000000  0.6546040000000 1.0
C      1  0.6945270000000  0.6379700000000  0.4060820000000 1.0
C      1  0.4702200000000  0.6376340000000  0.2875190000000 1.0
C      1  0.2880610000000  0.6376820000000  0.4627910000000 1.0
C      1  0.3979530000000  0.6381320000000  0.6900330000000 1.0
C      1  0.3841220000000  0.6956850000000  0.6101460000000 1.0
C      1  0.5684610000000  0.6946160000000  0.6427910000000 1.0
C      1  0.6585280000000  0.6954530000000  0.4787490000000 1.0
C      1  0.5286940000000  0.6947400000000  0.3441200000000 1.0
C      1  0.3597210000000  0.6950840000000  0.4249760000000 1.0
C      1  0.3841210000000  0.3043140000000  0.6101450000000 1.0
C      1  0.5684630000000  0.3053850000000  0.6427920000000 1.0
C      1  0.6585290000000  0.3045470000000  0.4787490000000 1.0
C      1  0.5286930000000  0.3052600000000  0.3441200000000 1.0
C      1  0.3597220000000  0.3049160000000  0.4249750000000 1.0
C      1  0.4460620000000  0.4231660000000  0.4402880000000 1.0
C      1  0.4269490000000  0.4212330000000  0.5324430000000 1.0
C      1  0.5088470000000  0.4211460000000  0.5790550000000 1.0
C      1  0.5785550000000  0.4207370000000  0.5157550000000 1.0
C      1  0.5393610000000  0.4228450000000  0.4301230000000 1.0
C      1  0.4460600000000  0.5768320000000  0.4402850000000 1.0
C      1  0.4269530000000  0.5787700000000  0.5324390000000 1.0
C      1  0.5088470000000  0.5788520000000  0.5790540000000 1.0
C      1  0.5785640000000  0.5792590000000  0.5157580000000 1.0
C      1  0.5393610000000  0.5771550000000  0.4301240000000 1.0
C      1  0.6175650000000  0.3014200000000  0.3918900000000 1.0
C      1  0.4332170000000  0.3015130000000  0.3558940000000 1.0
C      1  0.3408240000000  0.3006160000000  0.5192230000000 1.0
C      1  0.4684540000000  0.3012710000000  0.6562450000000 1.0
C      1  0.6393370000000  0.3011140000000  0.5777900000000 1.0
C      1  0.6175650000000  0.6985800000000  0.3918900000000 1.0
C      1  0.4332170000000  0.6984870000000  0.3558940000000 1.0
C      1  0.3408240000000  0.6993840000000  0.5192220000000 1.0
C      1  0.4684550000000  0.6987290000000  0.6562460000000 1.0
C      1  0.6393360000000  0.6988860000000  0.5777890000000 1.0
END
