TITL C-1525613-7943-425 -0.0320616422277446 3375 -9074.16314279443 0 0 60 (C2) n - 1
REM
REM in /home/nfs/bkarasulu/CARBON/AIRSS/Generating-Clusters/ReaxFF-fromJPCA2015/Units_Real/Try2-Higher-symm/Only-C60
REM
REM
REM
REM
REM
REM ./C.cell (863b2abdce7293c0672fb3ba77bf323a)
REM AIRSS Version 0.9.1 bugfix July 2018 build 013d7b7c2542+ Fri, 06 Jul 2018 19:26:36 +0100
REM compiler GCC version 9.2.1 20190827 (Red Hat 9.2.1-1)
REM options -cpp -mtune=generic -march=x86-64 -g -O0 -fpre-include=/usr/include/finclude/math-vector-fortran.h
REM seed -1333145565 1084907621 -1356390875 401847426 220501224 -2125394734 987403673 1321291116 2101929459 365242582 -1784000578 -1243661029 1480898981 -1436642395 -1176205364 1577243301 2106171609 1489684211 972453251 -1818941191 -810556167 -1886894066 -832251589 136481429 535949660 -337938551 1599528508 944736141 1620388107 1111783361 -836415038 313885672 -178098626
REM
CELL 1.54180   15.00000   15.00000   15.00000   90.00000   90.00000   90.00000
LATT -1
SFAC C  
C      1  0.2811730000000  0.5455960000000  0.3924970000000 1.0
C      1  0.2921130000000  0.3684940000000  0.3826130000000 1.0
C      1  0.3605110000000  0.2975550000000  0.3864600000000 1.0
C      1  0.5230520000000  0.2745170000000  0.3997290000000 1.0
C      1  0.6543760000000  0.3278800000000  0.3904470000000 1.0
C      1  0.7188270000000  0.4544040000000  0.3924970000000 1.0
C      1  0.7078870000000  0.6315060000000  0.3826130000000 1.0
C      1  0.6394890000000  0.7024450000000  0.3864600000000 1.0
C      1  0.4769480000000  0.7254830000000  0.3997290000000 1.0
C      1  0.3456240000000  0.6721200000000  0.3904470000000 1.0
C      1  0.4620820000000  0.3401530000000  0.6718290000000 1.0
C      1  0.5654570000000  0.3452930000000  0.6731760000000 1.0
C      1  0.6433870000000  0.4106070000000  0.6721050000000 1.0
C      1  0.6632650000000  0.5127880000000  0.6678880000000 1.0
C      1  0.6263080000000  0.6072120000000  0.6824240000000 1.0
C      1  0.5379180000000  0.6598470000000  0.6718290000000 1.0
C      1  0.4345430000000  0.6547070000000  0.6731760000000 1.0
C      1  0.3566130000000  0.5893930000000  0.6721050000000 1.0
C      1  0.3367350000000  0.4872120000000  0.6678880000000 1.0
C      1  0.3736920000000  0.3927880000000  0.6824240000000 1.0
C      1  0.4655410000000  0.7763600000000  0.4748080000000 1.0
C      1  0.3124900000000  0.7022400000000  0.4729460000000 1.0
C      1  0.2315540000000  0.5522710000000  0.4696180000000 1.0
C      1  0.2584080000000  0.3796160000000  0.4736970000000 1.0
C      1  0.3657900000000  0.2622260000000  0.4774070000000 1.0
C      1  0.5344590000000  0.2236400000000  0.4748080000000 1.0
C      1  0.6875100000000  0.2977600000000  0.4729460000000 1.0
C      1  0.7684460000000  0.4477290000000  0.4696180000000 1.0
C      1  0.7415920000000  0.6203840000000  0.4736970000000 1.0
C      1  0.6342100000000  0.7377740000000  0.4774070000000 1.0
C      1  0.3403060000000  0.5240320000000  0.3262770000000 1.0
C      1  0.3550430000000  0.4250300000000  0.3284570000000 1.0
C      1  0.4246200000000  0.3573010000000  0.3362870000000 1.0
C      1  0.5233230000000  0.3362340000000  0.3318500000000 1.0
C      1  0.6161860000000  0.3830000000000  0.3262830000000 1.0
C      1  0.6596940000000  0.4759680000000  0.3262770000000 1.0
C      1  0.6449570000000  0.5749700000000  0.3284570000000 1.0
C      1  0.5753800000000  0.6426990000000  0.3362870000000 1.0
C      1  0.4766770000000  0.6637660000000  0.3318500000000 1.0
C      1  0.3838140000000  0.6170000000000  0.3262830000000 1.0
C      1  0.2795750000000  0.4656840000000  0.6002790000000 1.0
C      1  0.3297070000000  0.3367910000000  0.6217070000000 1.0
C      1  0.4574040000000  0.2773620000000  0.6053000000000 1.0
C      1  0.6011550000000  0.2906980000000  0.6075340000000 1.0
C      1  0.7028760000000  0.3901470000000  0.6041610000000 1.0
C      1  0.7204250000000  0.5343160000000  0.6002790000000 1.0
C      1  0.6702930000000  0.6632090000000  0.6217070000000 1.0
C      1  0.5425960000000  0.7226380000000  0.6053000000000 1.0
C      1  0.3988450000000  0.7093020000000  0.6075340000000 1.0
C      1  0.2971240000000  0.6098530000000  0.6041610000000 1.0
C      1  0.3821690000000  0.7514950000000  0.5256160000000 1.0
C      1  0.2587860000000  0.6334980000000  0.5226320000000 1.0
C      1  0.2331490000000  0.4630460000000  0.5188320000000 1.0
C      1  0.3019540000000  0.3129540000000  0.5324810000000 1.0
C      1  0.4459110000000  0.2304020000000  0.5246650000000 1.0
C      1  0.6178310000000  0.2485050000000  0.5256160000000 1.0
C      1  0.7412140000000  0.3665020000000  0.5226320000000 1.0
C      1  0.7668510000000  0.5369540000000  0.5188320000000 1.0
C      1  0.6980460000000  0.6870460000000  0.5324810000000 1.0
C      1  0.5540890000000  0.7695980000000  0.5246650000000 1.0
END
