TITL C-1525613-7943-5606 -0.0880285404908189 3375 -8943.90124733392 0 0 60 (Cs) n - 1
REM
REM in /home/nfs/bkarasulu/CARBON/AIRSS/Generating-Clusters/ReaxFF-fromJPCA2015/Units_Real/Try2-Higher-symm/Only-C60
REM
REM
REM
REM
REM
REM ./C.cell (863b2abdce7293c0672fb3ba77bf323a)
REM AIRSS Version 0.9.1 bugfix July 2018 build 013d7b7c2542+ Fri, 06 Jul 2018 19:26:36 +0100
REM compiler GCC version 9.2.1 20190827 (Red Hat 9.2.1-1)
REM options -cpp -mtune=generic -march=x86-64 -g -O0 -fpre-include=/usr/include/finclude/math-vector-fortran.h
REM seed -344353375 226258828 1481392444 -474909922 -246382652 359807889 1040852910 -853353683 -1677989790 -840551394 -1289450636 516090942 80758916 -2057096024 -1503063440 -1442510711 -1546714086 -1178959575 515996859 -1693965975 -1965695827 1406154458 -723392291 -986789727 821806199 -1953424098 1503974298 -1916223870 -167816102 -709069649 1203550193 -1246216419 -1461492499
REM
CELL 1.54180   15.00000   15.00000   15.00000   90.00000   90.00000   90.00000
LATT -1
SFAC C  
C      1  0.3826480000000  0.6916530000000  0.5730620000000 1.0
C      1  0.4016550000000  0.6615040000000  0.4184250000000 1.0
C      1  0.5513460000000  0.6515670000000  0.3716270000000 1.0
C      1  0.6363440000000  0.6616120000000  0.5077860000000 1.0
C      1  0.5320820000000  0.6604130000000  0.6315890000000 1.0
C      1  0.3826740000000  0.3083410000000  0.5730580000000 1.0
C      1  0.4015910000000  0.3385500000000  0.4184490000000 1.0
C      1  0.5512940000000  0.3482200000000  0.3717970000000 1.0
C      1  0.6363330000000  0.3383220000000  0.5077690000000 1.0
C      1  0.5320950000000  0.3396060000000  0.6315920000000 1.0
C      1  0.5246920000000  0.5473600000000  0.2744480000000 1.0
C      1  0.7222300000000  0.5477140000000  0.4540860000000 1.0
C      1  0.6110610000000  0.5477570000000  0.6956460000000 1.0
C      1  0.3469110000000  0.5481980000000  0.6684380000000 1.0
C      1  0.2943580000000  0.5479270000000  0.4103440000000 1.0
C      1  0.5247700000000  0.4527460000000  0.2745820000000 1.0
C      1  0.7221730000000  0.4522850000000  0.4540500000000 1.0
C      1  0.6110670000000  0.4522610000000  0.6956700000000 1.0
C      1  0.3469130000000  0.4517990000000  0.6684460000000 1.0
C      1  0.2943740000000  0.4520920000000  0.4103180000000 1.0
C      1  0.2906270000000  0.5481560000000  0.5816520000000 1.0
C      1  0.3591560000000  0.5475120000000  0.3285480000000 1.0
C      1  0.6231630000000  0.5472530000000  0.3095970000000 1.0
C      1  0.7156500000000  0.5476050000000  0.5577940000000 1.0
C      1  0.5105630000000  0.5478690000000  0.7215510000000 1.0
C      1  0.2906330000000  0.4518470000000  0.5816470000000 1.0
C      1  0.3591950000000  0.4525390000000  0.3285240000000 1.0
C      1  0.6232830000000  0.4528380000000  0.3095820000000 1.0
C      1  0.7156610000000  0.4523990000000  0.5577680000000 1.0
C      1  0.5105570000000  0.4521320000000  0.7215430000000 1.0
C      1  0.6360040000000  0.6790010000000  0.4108820000000 1.0
C      1  0.6225070000000  0.6815940000000  0.6026520000000 1.0
C      1  0.4362890000000  0.6849200000000  0.6487330000000 1.0
C      1  0.3365290000000  0.6846460000000  0.4935350000000 1.0
C      1  0.4620480000000  0.6806240000000  0.3443570000000 1.0
C      1  0.6360720000000  0.3209650000000  0.4108390000000 1.0
C      1  0.6225220000000  0.3184090000000  0.6026930000000 1.0
C      1  0.4362920000000  0.3150760000000  0.6487220000000 1.0
C      1  0.3365260000000  0.3153130000000  0.4935260000000 1.0
C      1  0.4620140000000  0.3193130000000  0.3443190000000 1.0
C      1  0.5171060000000  0.5822480000000  0.5769900000000 1.0
C      1  0.4343480000000  0.5474370000000  0.5410820000000 1.0
C      1  0.4410090000000  0.5796060000000  0.4505860000000 1.0
C      1  0.5331080000000  0.5652630000000  0.4215130000000 1.0
C      1  0.5776770000000  0.5842970000000  0.5054090000000 1.0
C      1  0.5171210000000  0.4177450000000  0.5769920000000 1.0
C      1  0.4343240000000  0.4525660000000  0.5410710000000 1.0
C      1  0.4410690000000  0.4204110000000  0.4505460000000 1.0
C      1  0.5331170000000  0.4345640000000  0.4214750000000 1.0
C      1  0.5776600000000  0.4157250000000  0.5053780000000 1.0
C      1  0.6772880000000  0.4034970000000  0.3794290000000 1.0
C      1  0.6651970000000  0.4021780000000  0.6286700000000 1.0
C      1  0.4272830000000  0.4032660000000  0.6967440000000 1.0
C      1  0.2901970000000  0.4037930000000  0.4960600000000 1.0
C      1  0.4408440000000  0.4032660000000  0.2988220000000 1.0
C      1  0.6773910000000  0.5965730000000  0.3793910000000 1.0
C      1  0.6651650000000  0.5978270000000  0.6286480000000 1.0
C      1  0.4272920000000  0.5967540000000  0.6967270000000 1.0
C      1  0.2901700000000  0.5962170000000  0.4960830000000 1.0
C      1  0.4407320000000  0.5968270000000  0.2987400000000 1.0
END
