TITL C-1525613-7943-3059 -0.0363025663046458 3375 -8531.30567003034 0 0 60 (C1) n - 1
REM
REM in /home/nfs/bkarasulu/CARBON/AIRSS/Generating-Clusters/ReaxFF-fromJPCA2015/Units_Real/Try2-Higher-symm/Only-C60
REM
REM
REM
REM
REM
REM ./C.cell (863b2abdce7293c0672fb3ba77bf323a)
REM AIRSS Version 0.9.1 bugfix July 2018 build 013d7b7c2542+ Fri, 06 Jul 2018 19:26:36 +0100
REM compiler GCC version 9.2.1 20190827 (Red Hat 9.2.1-1)
REM options -cpp -mtune=generic -march=x86-64 -g -O0 -fpre-include=/usr/include/finclude/math-vector-fortran.h
REM seed -2064467896 -1872206955 573723540 2810355 -215245364 -1172565565 1397714757 -700932346 1821733480 -2069068842 539657980 1150964804 -1631452443 -1820566222 1732241380 -58049470 1700886461 -1476419724 -1680993438 817150098 1672809139 261050391 1482259987 1932014664 -1131823984 -1442703184 -1280583432 -2094428262 494557875 1937211728 -1977395919 -1463745500 -52324674
REM
CELL 1.54180   15.00000   15.00000   15.00000   90.00000   90.00000   90.00000
LATT -1
SFAC C  
C      1  0.4619970000000  0.3052420000000  0.3829640000000 1.0
C      1  0.5434230000000  0.4165550000000  0.2931280000000 1.0
C      1  0.4566050000000  0.5548320000000  0.2693710000000 1.0
C      1  0.5409250000000  0.6797080000000  0.3438210000000 1.0
C      1  0.4626670000000  0.7340960000000  0.4813230000000 1.0
C      1  0.5422760000000  0.6940360000000  0.6153360000000 1.0
C      1  0.4591070000000  0.5866410000000  0.7084560000000 1.0
C      1  0.5445750000000  0.4449840000000  0.7286590000000 1.0
C      1  0.4605540000000  0.3179070000000  0.6554760000000 1.0
C      1  0.5404210000000  0.2649280000000  0.5219390000000 1.0
C      1  0.4130910000000  0.6730280000000  0.4036150000000 1.0
C      1  0.5903090000000  0.6899130000000  0.5206510000000 1.0
C      1  0.4056520000000  0.6281280000000  0.6211100000000 1.0
C      1  0.5904020000000  0.5308040000000  0.6882870000000 1.0
C      1  0.4132320000000  0.4125350000000  0.6779610000000 1.0
C      1  0.5893940000000  0.3227270000000  0.5959750000000 1.0
C      1  0.4089940000000  0.3090280000000  0.4822490000000 1.0
C      1  0.5919560000000  0.3772440000000  0.3836680000000 1.0
C      1  0.4087350000000  0.4719800000000  0.3105780000000 1.0
C      1  0.5891500000000  0.5863560000000  0.3174590000000 1.0
C      1  0.6825350000000  0.5162310000000  0.6357760000000 1.0
C      1  0.3216790000000  0.4260110000000  0.6524870000000 1.0
C      1  0.6802120000000  0.3485400000000  0.5806900000000 1.0
C      1  0.3159000000000  0.3635040000000  0.4912790000000 1.0
C      1  0.6700750000000  0.4229330000000  0.4272640000000 1.0
C      1  0.3157830000000  0.4845550000000  0.3641330000000 1.0
C      1  0.6797180000000  0.5724130000000  0.3450210000000 1.0
C      1  0.3213320000000  0.6488160000000  0.4181290000000 1.0
C      1  0.6828070000000  0.6371010000000  0.5090950000000 1.0
C      1  0.3243310000000  0.5823430000000  0.5777570000000 1.0
C      1  0.2814590000000  0.5680210000000  0.4027400000000 1.0
C      1  0.7177100000000  0.5935240000000  0.4275230000000 1.0
C      1  0.2875360000000  0.6063470000000  0.4924460000000 1.0
C      1  0.6826920000000  0.5769510000000  0.5726320000000 1.0
C      1  0.2883000000000  0.4978750000000  0.6055370000000 1.0
C      1  0.7176200000000  0.4322610000000  0.5969360000000 1.0
C      1  0.2814470000000  0.4061280000000  0.5726690000000 1.0
C      1  0.7091780000000  0.3961550000000  0.5083190000000 1.0
C      1  0.3160740000000  0.4234400000000  0.4271870000000 1.0
C      1  0.7085830000000  0.5028940000000  0.3968290000000 1.0
C      1  0.4771230000000  0.4427710000000  0.6116800000000 1.0
C      1  0.5321150000000  0.3993990000000  0.5556240000000 1.0
C      1  0.4686890000000  0.3877030000000  0.4902400000000 1.0
C      1  0.5107020000000  0.4184470000000  0.4223780000000 1.0
C      1  0.4682880000000  0.4842890000000  0.3883650000000 1.0
C      1  0.5317790000000  0.5498490000000  0.3962270000000 1.0
C      1  0.4774310000000  0.6086360000000  0.4371570000000 1.0
C      1  0.5262240000000  0.6109930000000  0.5099440000000 1.0
C      1  0.4724160000000  0.5750560000000  0.5710820000000 1.0
C      1  0.5242550000000  0.5153470000000  0.6115080000000 1.0
C      1  0.4616160000000  0.3726450000000  0.3115760000000 1.0
C      1  0.5404170000000  0.5095940000000  0.2639500000000 1.0
C      1  0.4600910000000  0.6450540000000  0.3097300000000 1.0
C      1  0.5444090000000  0.7253360000000  0.4330830000000 1.0
C      1  0.4583680000000  0.7134910000000  0.5759400000000 1.0
C      1  0.5423880000000  0.6257150000000  0.6870450000000 1.0
C      1  0.4628530000000  0.4937710000000  0.7351790000000 1.0
C      1  0.5414890000000  0.3535600000000  0.6880570000000 1.0
C      1  0.4568870000000  0.2727260000000  0.5674570000000 1.0
C      1  0.5440230000000  0.2889020000000  0.4273030000000 1.0
END
