TITL C-1525613-7943-3204 0.441420908607041 3375 -8367.38535527889 0 0 60 (C5) n - 1
REM
REM in /home/nfs/bkarasulu/CARBON/AIRSS/Generating-Clusters/ReaxFF-fromJPCA2015/Units_Real/Try2-Higher-symm/Only-C60
REM
REM
REM
REM
REM
REM ./C.cell (863b2abdce7293c0672fb3ba77bf323a)
REM AIRSS Version 0.9.1 bugfix July 2018 build 013d7b7c2542+ Fri, 06 Jul 2018 19:26:36 +0100
REM compiler GCC version 9.2.1 20190827 (Red Hat 9.2.1-1)
REM options -cpp -mtune=generic -march=x86-64 -g -O0 -fpre-include=/usr/include/finclude/math-vector-fortran.h
REM seed -228014188 1451639845 2114530015 -1525969521 -1354587650 -479230342 84649641 -2084829562 1019109584 -1150880443 -112075235 -75929376 -1221369883 -62683906 -662811574 986059039 38458602 -35270505 230565710 -1861620697 1538395463 -1384139276 568213034 -1499923483 832909107 -1496739864 840387528 292814830 -1206889828 -199054387 -1541257829 1532400527 1862823395
REM
CELL 1.54180   15.00000   15.00000   15.00000   90.00000   90.00000   90.00000
LATT -1
SFAC C  
C      1  0.4520080000000  0.6791420000000  0.3966030000000 1.0
C      1  0.6589440000000  0.6002260000000  0.3961420000000 1.0
C      1  0.6453140000000  0.3818320000000  0.3961850000000 1.0
C      1  0.4338740000000  0.3257510000000  0.3967140000000 1.0
C      1  0.3148210000000  0.5091150000000  0.3965720000000 1.0
C      1  0.5462090000000  0.6809880000000  0.3970250000000 1.0
C      1  0.3424810000000  0.6008440000000  0.3965290000000 1.0
C      1  0.3553400000000  0.3808120000000  0.3962150000000 1.0
C      1  0.5677320000000  0.3255680000000  0.3966110000000 1.0
C      1  0.6848440000000  0.5093940000000  0.3969310000000 1.0
C      1  0.4512610000000  0.6480980000000  0.3031550000000 1.0
C      1  0.6268700000000  0.5922720000000  0.3032770000000 1.0
C      1  0.6264300000000  0.4082150000000  0.3030700000000 1.0
C      1  0.4516210000000  0.3518360000000  0.3041240000000 1.0
C      1  0.3442250000000  0.4997320000000  0.3039130000000 1.0
C      1  0.5484510000000  0.6488610000000  0.3036960000000 1.0
C      1  0.3735570000000  0.5916410000000  0.3028880000000 1.0
C      1  0.3735790000000  0.4082600000000  0.3029670000000 1.0
C      1  0.5480210000000  0.3514830000000  0.3034660000000 1.0
C      1  0.6558450000000  0.4996780000000  0.3037000000000 1.0
C      1  0.4514280000000  0.6490680000000  0.6951800000000 1.0
C      1  0.6262260000000  0.5919290000000  0.6941580000000 1.0
C      1  0.6261200000000  0.4083910000000  0.6941560000000 1.0
C      1  0.4517170000000  0.3520730000000  0.6940470000000 1.0
C      1  0.3433400000000  0.5002950000000  0.6948640000000 1.0
C      1  0.5486610000000  0.6489840000000  0.6950830000000 1.0
C      1  0.3737540000000  0.5921810000000  0.6944080000000 1.0
C      1  0.3733570000000  0.4086900000000  0.6945780000000 1.0
C      1  0.5481000000000  0.3516880000000  0.6943470000000 1.0
C      1  0.6564040000000  0.4999490000000  0.6947880000000 1.0
C      1  0.4528330000000  0.3066010000000  0.6091040000000 1.0
C      1  0.3008600000000  0.4855320000000  0.6095800000000 1.0
C      1  0.4252960000000  0.6842110000000  0.6091800000000 1.0
C      1  0.6488430000000  0.6274110000000  0.6064270000000 1.0
C      1  0.6685360000000  0.3968500000000  0.6074460000000 1.0
C      1  0.5463010000000  0.3068760000000  0.6079760000000 1.0
C      1  0.6990540000000  0.4852660000000  0.6096260000000 1.0
C      1  0.5748260000000  0.6840920000000  0.6092200000000 1.0
C      1  0.3510560000000  0.6272120000000  0.6065590000000 1.0
C      1  0.3310460000000  0.3969770000000  0.6077990000000 1.0
C      1  0.6899620000000  0.6784090000000  0.5345030000000 1.0
C      1  0.7283100000000  0.3743310000000  0.5339050000000 1.0
C      1  0.4515950000000  0.2425330000000  0.5353990000000 1.0
C      1  0.2396170000000  0.4665670000000  0.5357960000000 1.0
C      1  0.3875950000000  0.7372680000000  0.5362750000000 1.0
C      1  0.3099060000000  0.6785490000000  0.5345560000000 1.0
C      1  0.2714010000000  0.3743340000000  0.5341880000000 1.0
C      1  0.5491660000000  0.2438270000000  0.5339370000000 1.0
C      1  0.7602050000000  0.4664810000000  0.5357940000000 1.0
C      1  0.6123980000000  0.7373010000000  0.5361250000000 1.0
C      1  0.7255070000000  0.6256270000000  0.4620870000000 1.0
C      1  0.6880530000000  0.3238460000000  0.4616820000000 1.0
C      1  0.3906240000000  0.2680010000000  0.4618780000000 1.0
C      1  0.2453540000000  0.5322240000000  0.4615840000000 1.0
C      1  0.4519420000000  0.7524790000000  0.4620480000000 1.0
C      1  0.2736150000000  0.6257280000000  0.4625010000000 1.0
C      1  0.3114510000000  0.3237670000000  0.4626760000000 1.0
C      1  0.6095510000000  0.2664090000000  0.4619140000000 1.0
C      1  0.7551700000000  0.5323900000000  0.4620330000000 1.0
C      1  0.5493960000000  0.7519030000000  0.4628140000000 1.0
END
