TITL C-1525613-7943-5784 -6.88007272438158e-05 3375 -9891.22344323259 0 0 60 (Ih) n - 1
REM
REM in /home/nfs/bkarasulu/CARBON/AIRSS/Generating-Clusters/ReaxFF-fromJPCA2015/Units_Real/Try2-Higher-symm/Only-C60
REM
REM
REM
REM
REM
REM ./C.cell (863b2abdce7293c0672fb3ba77bf323a)
REM AIRSS Version 0.9.1 bugfix July 2018 build 013d7b7c2542+ Fri, 06 Jul 2018 19:26:36 +0100
REM compiler GCC version 9.2.1 20190827 (Red Hat 9.2.1-1)
REM options -cpp -mtune=generic -march=x86-64 -g -O0 -fpre-include=/usr/include/finclude/math-vector-fortran.h
REM seed 971956719 225651284 2120175634 135528340 888820441 -1151271533 -1230621569 1806496820 1651786601 -754221042 77561204 1600065711 920371762 -102897612 -151918130 25400008 587384263 -732953403 -642223696 -1205550164 -753274319 1820142235 -693372111 -1727474606 -1758495695 -1860017694 1865397604 2099542073 1352827809 -207084160 1910562777 -237062573 -716695591
REM
CELL 1.54180   15.00000   15.00000   15.00000   90.00000   90.00000   90.00000
LATT -1
SFAC C  
C      1  0.3320480000000  0.6622460000000  0.4594160000000 1.0
C      1  0.2687600000000  0.5325440000000  0.5405910000000 1.0
C      1  0.2937930000000  0.3904050000000  0.4594280000000 1.0
C      1  0.3975950000000  0.2901340000000  0.5405950000000 1.0
C      1  0.5405070000000  0.2700190000000  0.4594230000000 1.0
C      1  0.6679520000000  0.3377540000000  0.5405840000000 1.0
C      1  0.7312400000000  0.4674560000000  0.4594090000000 1.0
C      1  0.7062070000000  0.6095950000000  0.5405720000000 1.0
C      1  0.6024050000000  0.7098660000000  0.4594050000000 1.0
C      1  0.4594930000000  0.7299810000000  0.5405770000000 1.0
C      1  0.5095430000000  0.7333230000000  0.4594070000000 1.0
C      1  0.3705780000000  0.6943750000000  0.5405810000000 1.0
C      1  0.2810430000000  0.5811770000000  0.4594210000000 1.0
C      1  0.2751470000000  0.4369780000000  0.5405940000000 1.0
C      1  0.3551320000000  0.3168450000000  0.4594280000000 1.0
C      1  0.4904570000000  0.2666770000000  0.5405930000000 1.0
C      1  0.6294220000000  0.3056250000000  0.4594190000000 1.0
C      1  0.7189570000000  0.4188230000000  0.5405790000000 1.0
C      1  0.7248530000000  0.5630220000000  0.4594060000000 1.0
C      1  0.6448680000000  0.6831550000000  0.5405720000000 1.0
C      1  0.5291330000000  0.2989280000000  0.6220650000000 1.0
C      1  0.6417510000000  0.3544420000000  0.3779420000000 1.0
C      1  0.7002410000000  0.4655710000000  0.6220520000000 1.0
C      1  0.6822300000000  0.5898340000000  0.3779320000000 1.0
C      1  0.5946290000000  0.6798000000000  0.6220480000000 1.0
C      1  0.4708670000000  0.7010720000000  0.3779350000000 1.0
C      1  0.3582490000000  0.6455580000000  0.6220580000000 1.0
C      1  0.2997590000000  0.5344290000000  0.3779480000000 1.0
C      1  0.3177700000000  0.4101660000000  0.6220680000000 1.0
C      1  0.4053710000000  0.3202000000000  0.3779520000000 1.0
C      1  0.4800540000000  0.4210150000000  0.7225800000000 1.0
C      1  0.5302800000000  0.4243560000000  0.2774250000000 1.0
C      1  0.5689690000000  0.4566210000000  0.7225760000000 1.0
C      1  0.5812850000000  0.5054250000000  0.2774200000000 1.0
C      1  0.5625820000000  0.5521870000000  0.7225730000000 1.0
C      1  0.5199460000000  0.5789850000000  0.2774200000000 1.0
C      1  0.4697200000000  0.5756440000000  0.7225750000000 1.0
C      1  0.4310310000000  0.5433790000000  0.2774240000000 1.0
C      1  0.4187150000000  0.4945750000000  0.7225800000000 1.0
C      1  0.4374180000000  0.4478130000000  0.2774270000000 1.0
C      1  0.3074360000000  0.5647950000000  0.6220630000000 1.0
C      1  0.3061220000000  0.4392230000000  0.3779510000000 1.0
C      1  0.3788790000000  0.3368830000000  0.6220690000000 1.0
C      1  0.4978840000000  0.2968310000000  0.3779490000000 1.0
C      1  0.6177130000000  0.3344000000000  0.6220600000000 1.0
C      1  0.6925640000000  0.4352050000000  0.3779370000000 1.0
C      1  0.6938780000000  0.5607770000000  0.6220490000000 1.0
C      1  0.6211210000000  0.6631170000000  0.3779310000000 1.0
C      1  0.5021160000000  0.7031690000000  0.6220510000000 1.0
C      1  0.3822870000000  0.6656000000000  0.3779400000000 1.0
C      1  0.3377260000000  0.4891610000000  0.6724180000000 1.0
C      1  0.3750810000000  0.3958330000000  0.3275960000000 1.0
C      1  0.4601730000000  0.3423170000000  0.6724200000000 1.0
C      1  0.5604560000000  0.3490070000000  0.3275910000000 1.0
C      1  0.6376680000000  0.4133950000000  0.6724110000000 1.0
C      1  0.6622740000000  0.5108390000000  0.3275820000000 1.0
C      1  0.6249190000000  0.6041670000000  0.6724040000000 1.0
C      1  0.5398270000000  0.6576830000000  0.3275800000000 1.0
C      1  0.4395440000000  0.6509930000000  0.6724090000000 1.0
C      1  0.3623320000000  0.5866050000000  0.3275890000000 1.0
END
