TITL C-1525613-7943-7685 1.25242305219279 3375 -8096.35745173252 0 0 60 (C2) n - 1
REM
REM in /home/nfs/bkarasulu/CARBON/AIRSS/Generating-Clusters/ReaxFF-fromJPCA2015/Units_Real/Try2-Higher-symm/Only-C60
REM
REM
REM
REM
REM
REM ./C.cell (863b2abdce7293c0672fb3ba77bf323a)
REM AIRSS Version 0.9.1 bugfix July 2018 build 013d7b7c2542+ Fri, 06 Jul 2018 19:26:36 +0100
REM compiler GCC version 9.2.1 20190827 (Red Hat 9.2.1-1)
REM options -cpp -mtune=generic -march=x86-64 -g -O0 -fpre-include=/usr/include/finclude/math-vector-fortran.h
REM seed -1516244078 -43627746 931893209 -1364155329 1869711073 612290148 -316326871 1869632389 1083142991 -109103102 -1033678668 1405354206 871409046 1072477927 1619524731 984110549 1879372844 136213713 -868793568 2086789305 88465081 -2024881038 1249040762 2008452953 272891329 -888488731 -324038225 -1119559475 -1590058528 -1238811640 -1130387388 1949318710 1870423670
REM
CELL 1.54180   15.00000   15.00000   15.00000   90.00000   90.00000   90.00000
LATT -1
SFAC C  
C      1  0.4407850000000  0.5462160000000  0.2185700000000 1.0
C      1  0.4469800000000  0.6990490000000  0.3121070000000 1.0
C      1  0.4314750000000  0.7819960000000  0.4549160000000 1.0
C      1  0.4476120000000  0.7226320000000  0.6061850000000 1.0
C      1  0.4481590000000  0.6422310000000  0.7538530000000 1.0
C      1  0.4410440000000  0.4522080000000  0.7830820000000 1.0
C      1  0.4466670000000  0.3017830000000  0.6866860000000 1.0
C      1  0.4317610000000  0.2182820000000  0.5437050000000 1.0
C      1  0.4466350000000  0.2794010000000  0.3955680000000 1.0
C      1  0.4486490000000  0.3576930000000  0.2463290000000 1.0
C      1  0.3725880000000  0.3943930000000  0.4446630000000 1.0
C      1  0.4239400000000  0.4341180000000  0.3858820000000 1.0
C      1  0.4223050000000  0.5172780000000  0.3582920000000 1.0
C      1  0.3942650000000  0.5914810000000  0.4025580000000 1.0
C      1  0.4086360000000  0.6342710000000  0.4820340000000 1.0
C      1  0.3727770000000  0.6046980000000  0.5543840000000 1.0
C      1  0.4189400000000  0.5660260000000  0.6169990000000 1.0
C      1  0.4225320000000  0.4804380000000  0.6408520000000 1.0
C      1  0.3972950000000  0.4074320000000  0.5966130000000 1.0
C      1  0.4081600000000  0.3680940000000  0.5189400000000 1.0
C      1  0.3654750000000  0.3225470000000  0.6342340000000 1.0
C      1  0.3651840000000  0.2841540000000  0.5380550000000 1.0
C      1  0.3649710000000  0.3084350000000  0.4046790000000 1.0
C      1  0.3800500000000  0.4024340000000  0.3045340000000 1.0
C      1  0.3746240000000  0.5022970000000  0.2735300000000 1.0
C      1  0.3662800000000  0.6768760000000  0.3645230000000 1.0
C      1  0.3637200000000  0.7192870000000  0.4586220000000 1.0
C      1  0.3665880000000  0.6916120000000  0.5929950000000 1.0
C      1  0.3784490000000  0.5970030000000  0.7008680000000 1.0
C      1  0.3756440000000  0.4949970000000  0.7260940000000 1.0
C      1  0.6574990000000  0.4294340000000  0.6473370000000 1.0
C      1  0.6674670000000  0.3692480000000  0.5668400000000 1.0
C      1  0.6749610000000  0.3870740000000  0.4773300000000 1.0
C      1  0.6623060000000  0.3907090000000  0.3862650000000 1.0
C      1  0.6526960000000  0.4771160000000  0.3351480000000 1.0
C      1  0.6572420000000  0.5706770000000  0.3526100000000 1.0
C      1  0.6671970000000  0.6307210000000  0.4330690000000 1.0
C      1  0.6750660000000  0.6128650000000  0.5225240000000 1.0
C      1  0.6627330000000  0.6090780000000  0.6136390000000 1.0
C      1  0.6528990000000  0.5228790000000  0.6647780000000 1.0
C      1  0.5738110000000  0.2481860000000  0.4963770000000 1.0
C      1  0.5887140000000  0.3330680000000  0.3485870000000 1.0
C      1  0.5843610000000  0.4634390000000  0.2691190000000 1.0
C      1  0.5887450000000  0.6088810000000  0.2965390000000 1.0
C      1  0.5894130000000  0.6955730000000  0.4263700000000 1.0
C      1  0.5743430000000  0.7520780000000  0.5035440000000 1.0
C      1  0.5891000000000  0.6665770000000  0.6517940000000 1.0
C      1  0.5841650000000  0.5365550000000  0.7307690000000 1.0
C      1  0.5886460000000  0.3916000000000  0.7032860000000 1.0
C      1  0.5897090000000  0.3045400000000  0.5733200000000 1.0
C      1  0.5402830000000  0.2704750000000  0.4023870000000 1.0
C      1  0.5434550000000  0.3728490000000  0.2717570000000 1.0
C      1  0.5401940000000  0.5447450000000  0.2411500000000 1.0
C      1  0.5416090000000  0.6835500000000  0.3391040000000 1.0
C      1  0.5070710000000  0.8003760000000  0.4607770000000 1.0
C      1  0.5416620000000  0.7301910000000  0.5979870000000 1.0
C      1  0.5442030000000  0.6266190000000  0.7278950000000 1.0
C      1  0.5401790000000  0.4550420000000  0.7592020000000 1.0
C      1  0.5411770000000  0.3169810000000  0.6604200000000 1.0
C      1  0.5069030000000  0.1995090000000  0.5397260000000 1.0
END
