TITL C-1525613-7943-1972 -0.00377898586272453 3375 -9016.32300136908 0 0 60 (C5) n - 1
REM
REM in /home/nfs/bkarasulu/CARBON/AIRSS/Generating-Clusters/ReaxFF-fromJPCA2015/Units_Real/Try2-Higher-symm/Only-C60
REM
REM
REM
REM
REM
REM ./C.cell (863b2abdce7293c0672fb3ba77bf323a)
REM AIRSS Version 0.9.1 bugfix July 2018 build 013d7b7c2542+ Fri, 06 Jul 2018 19:26:36 +0100
REM compiler GCC version 9.2.1 20190827 (Red Hat 9.2.1-1)
REM options -cpp -mtune=generic -march=x86-64 -g -O0 -fpre-include=/usr/include/finclude/math-vector-fortran.h
REM seed -497325839 -190628664 1113917487 1707198616 -1268356746 699441645 1591243139 1475024023 1521135027 1399756522 253272211 -625560682 1559751298 -2080792017 -1574163955 -1621753517 1372611343 -491926905 1336977863 1995992196 -1310889881 -512943864 1037187171 1060404647 -691582229 -1750176157 1388747129 -1269313254 1602595121 1737407465 911239252 2089194718 -1548021642
REM
CELL 1.54180   15.00000   15.00000   15.00000   90.00000   90.00000   90.00000
LATT -1
SFAC C  
C      1  0.2441660000000  0.5477760000000  0.5320890000000 1.0
C      1  0.4518380000000  0.5485930000000  0.7562630000000 1.0
C      1  0.7312870000000  0.5472650000000  0.6259760000000 1.0
C      1  0.6883440000000  0.5486590000000  0.3236430000000 1.0
C      1  0.3870490000000  0.5473310000000  0.2621290000000 1.0
C      1  0.2398420000000  0.4519580000000  0.5335580000000 1.0
C      1  0.4521540000000  0.4527220000000  0.7568300000000 1.0
C      1  0.7261160000000  0.4513820000000  0.6246210000000 1.0
C      1  0.6912230000000  0.4528070000000  0.3190830000000 1.0
C      1  0.3903760000000  0.4514770000000  0.2660150000000 1.0
C      1  0.3185490000000  0.3832910000000  0.6705950000000 1.0
C      1  0.6054330000000  0.3845160000000  0.7252560000000 1.0
C      1  0.7469790000000  0.3829090000000  0.4686490000000 1.0
C      1  0.5469870000000  0.3845580000000  0.2557120000000 1.0
C      1  0.2813670000000  0.3827410000000  0.3792310000000 1.0
C      1  0.3176280000000  0.6168810000000  0.6704390000000 1.0
C      1  0.6064970000000  0.6171280000000  0.7254210000000 1.0
C      1  0.7468140000000  0.6155540000000  0.4693240000000 1.0
C      1  0.5465840000000  0.6171860000000  0.2553720000000 1.0
C      1  0.2823140000000  0.6153620000000  0.3799070000000 1.0
C      1  0.3604910000000  0.4512250000000  0.7249030000000 1.0
C      1  0.6681230000000  0.4506130000000  0.7005580000000 1.0
C      1  0.7460290000000  0.4515210000000  0.4001250000000 1.0
C      1  0.4819770000000  0.4507220000000  0.2391360000000 1.0
C      1  0.2422190000000  0.4510840000000  0.4358150000000 1.0
C      1  0.3601470000000  0.5494760000000  0.7248440000000 1.0
C      1  0.6712570000000  0.5485140000000  0.7032340000000 1.0
C      1  0.7424010000000  0.5493900000000  0.4023410000000 1.0
C      1  0.4810790000000  0.5485900000000  0.2351280000000 1.0
C      1  0.2461900000000  0.5489930000000  0.4365230000000 1.0
C      1  0.4312160000000  0.6545300000000  0.5436760000000 1.0
C      1  0.5200850000000  0.6541610000000  0.5789670000000 1.0
C      1  0.5811490000000  0.6544100000000  0.5053700000000 1.0
C      1  0.5299870000000  0.6543980000000  0.4245750000000 1.0
C      1  0.4374290000000  0.6545450000000  0.4480650000000 1.0
C      1  0.4309710000000  0.3458480000000  0.5432640000000 1.0
C      1  0.5199290000000  0.3453930000000  0.5785610000000 1.0
C      1  0.5809570000000  0.3454880000000  0.5050430000000 1.0
C      1  0.5299800000000  0.3453860000000  0.4242380000000 1.0
C      1  0.4371860000000  0.3456320000000  0.4478520000000 1.0
C      1  0.6321200000000  0.6156160000000  0.2922080000000 1.0
C      1  0.3399990000000  0.6148160000000  0.3089520000000 1.0
C      1  0.2702110000000  0.6149390000000  0.5908730000000 1.0
C      1  0.5160430000000  0.6159240000000  0.7467260000000 1.0
C      1  0.7419070000000  0.6148770000000  0.5606150000000 1.0
C      1  0.6322910000000  0.3852190000000  0.2886210000000 1.0
C      1  0.3428320000000  0.3844250000000  0.3093620000000 1.0
C      1  0.2698570000000  0.3842240000000  0.5918440000000 1.0
C      1  0.5170370000000  0.3855460000000  0.7481500000000 1.0
C      1  0.7384180000000  0.3844270000000  0.5613630000000 1.0
C      1  0.6774050000000  0.6606460000000  0.5114280000000 1.0
C      1  0.5652980000000  0.6604930000000  0.3364650000000 1.0
C      1  0.3631800000000  0.6605070000000  0.3866640000000 1.0
C      1  0.3499670000000  0.6607870000000  0.5943630000000 1.0
C      1  0.5435410000000  0.6601930000000  0.6710980000000 1.0
C      1  0.6756580000000  0.3395620000000  0.5114740000000 1.0
C      1  0.5655260000000  0.3393370000000  0.3346250000000 1.0
C      1  0.3641420000000  0.3393490000000  0.3865760000000 1.0
C      1  0.3503340000000  0.3399160000000  0.5942350000000 1.0
C      1  0.5438850000000  0.3391840000000  0.6720260000000 1.0
END
