TITL C-1525613-7943-1765 -0.145220309536192 3375 -8304.48736874031 0 0 60 (C1) n - 1
REM
REM in /home/nfs/bkarasulu/CARBON/AIRSS/Generating-Clusters/ReaxFF-fromJPCA2015/Units_Real/Try2-Higher-symm/Only-C60
REM
REM
REM
REM
REM
REM ./C.cell (863b2abdce7293c0672fb3ba77bf323a)
REM AIRSS Version 0.9.1 bugfix July 2018 build 013d7b7c2542+ Fri, 06 Jul 2018 19:26:36 +0100
REM compiler GCC version 9.2.1 20190827 (Red Hat 9.2.1-1)
REM options -cpp -mtune=generic -march=x86-64 -g -O0 -fpre-include=/usr/include/finclude/math-vector-fortran.h
REM seed 1080921717 1863250451 -1240470397 466402934 1803346219 -1685043846 217269912 -1427621309 -870059330 1378516021 2128616016 446696142 1908317795 -1126281744 1354819596 -1023724818 1395682894 -95309450 -732086126 -1999379829 1771442411 2136810572 -624279955 -1027020215 -85362463 632872940 -533533840 734367329 820592774 7013752 287585798 247552189 -1001214759
REM
CELL 1.54180   15.00000   15.00000   15.00000   90.00000   90.00000   90.00000
LATT -1
SFAC C  
C      1  0.3376890000000  0.6033240000000  0.4808140000000 1.0
C      1  0.3364940000000  0.6577150000000  0.5603060000000 1.0
C      1  0.3369480000000  0.6090770000000  0.6483820000000 1.0
C      1  0.3450640000000  0.5098310000000  0.6647160000000 1.0
C      1  0.3316900000000  0.4304860000000  0.6075160000000 1.0
C      1  0.3443580000000  0.4019320000000  0.5175390000000 1.0
C      1  0.3382240000000  0.3528760000000  0.4346410000000 1.0
C      1  0.3392260000000  0.4049960000000  0.3513580000000 1.0
C      1  0.3454360000000  0.5011540000000  0.3330330000000 1.0
C      1  0.3499040000000  0.5864490000000  0.3854650000000 1.0
C      1  0.5897300000000  0.3824620000000  0.2941400000000 1.0
C      1  0.5981840000000  0.5164400000000  0.2696320000000 1.0
C      1  0.6055240000000  0.6721890000000  0.3445240000000 1.0
C      1  0.6194940000000  0.7404690000000  0.4579530000000 1.0
C      1  0.5850410000000  0.7218940000000  0.5788140000000 1.0
C      1  0.5963620000000  0.5970380000000  0.7208770000000 1.0
C      1  0.5978000000000  0.5015670000000  0.7404660000000 1.0
C      1  0.6124200000000  0.3296510000000  0.6562810000000 1.0
C      1  0.6158270000000  0.2645600000000  0.5392300000000 1.0
C      1  0.5882890000000  0.2879290000000  0.4101540000000 1.0
C      1  0.4473410000000  0.3157680000000  0.6965690000000 1.0
C      1  0.4362530000000  0.2511900000000  0.5235060000000 1.0
C      1  0.4017940000000  0.2743190000000  0.4361320000000 1.0
C      1  0.4233060000000  0.3682480000000  0.3120470000000 1.0
C      1  0.4178940000000  0.5096600000000  0.2680110000000 1.0
C      1  0.4351630000000  0.6657150000000  0.3167230000000 1.0
C      1  0.4384380000000  0.7424560000000  0.4696210000000 1.0
C      1  0.4015200000000  0.7322370000000  0.5573630000000 1.0
C      1  0.4065590000000  0.6261230000000  0.7115710000000 1.0
C      1  0.4156130000000  0.4947560000000  0.7331490000000 1.0
C      1  0.6519990000000  0.4865090000000  0.6565310000000 1.0
C      1  0.6639460000000  0.3973090000000  0.6158110000000 1.0
C      1  0.6687600000000  0.3450750000000  0.5308350000000 1.0
C      1  0.6547750000000  0.3535550000000  0.4312210000000 1.0
C      1  0.6547940000000  0.4192540000000  0.3524980000000 1.0
C      1  0.6616960000000  0.5176220000000  0.3379670000000 1.0
C      1  0.6636140000000  0.6088790000000  0.3821600000000 1.0
C      1  0.6706460000000  0.6583160000000  0.4665110000000 1.0
C      1  0.6485100000000  0.6502520000000  0.5661770000000 1.0
C      1  0.6540300000000  0.5832390000000  0.6411060000000 1.0
C      1  0.4450080000000  0.5980060000000  0.3867040000000 1.0
C      1  0.4335950000000  0.6340580000000  0.4738560000000 1.0
C      1  0.4952390000000  0.6223300000000  0.5512180000000 1.0
C      1  0.4973300000000  0.5678540000000  0.6265660000000 1.0
C      1  0.4852570000000  0.4729650000000  0.6546580000000 1.0
C      1  0.4206840000000  0.3874770000000  0.6281820000000 1.0
C      1  0.4322620000000  0.3563530000000  0.5362190000000 1.0
C      1  0.4937680000000  0.3747300000000  0.4576010000000 1.0
C      1  0.4695550000000  0.4245460000000  0.3803250000000 1.0
C      1  0.4842080000000  0.5118470000000  0.3449530000000 1.0
C      1  0.4934910000000  0.2937920000000  0.4031130000000 1.0
C      1  0.5047570000000  0.3601350000000  0.2692090000000 1.0
C      1  0.5092510000000  0.5232150000000  0.2402270000000 1.0
C      1  0.5197360000000  0.6797330000000  0.3171670000000 1.0
C      1  0.5287650000000  0.7554090000000  0.4588760000000 1.0
C      1  0.4907170000000  0.7095030000000  0.5932300000000 1.0
C      1  0.5019580000000  0.6284560000000  0.7053760000000 1.0
C      1  0.5067310000000  0.4668440000000  0.7520200000000 1.0
C      1  0.5300580000000  0.3168120000000  0.6831990000000 1.0
C      1  0.5272750000000  0.2434120000000  0.5359480000000 1.0
END
