TITL C-1525613-7943-2621 -0.000883436302800128 3375 -9330.50717469036 0 0 60 (C1) n - 1
REM
REM in /home/nfs/bkarasulu/CARBON/AIRSS/Generating-Clusters/ReaxFF-fromJPCA2015/Units_Real/Try2-Higher-symm/Only-C60
REM
REM
REM
REM
REM
REM ./C.cell (863b2abdce7293c0672fb3ba77bf323a)
REM AIRSS Version 0.9.1 bugfix July 2018 build 013d7b7c2542+ Fri, 06 Jul 2018 19:26:36 +0100
REM compiler GCC version 9.2.1 20190827 (Red Hat 9.2.1-1)
REM options -cpp -mtune=generic -march=x86-64 -g -O0 -fpre-include=/usr/include/finclude/math-vector-fortran.h
REM seed -1353023955 -1196412903 -1973969684 277778686 1888822925 -1946981390 468055928 984124182 -299960897 10808825 1270504211 -990980554 482829037 1841936843 1847988594 -1212470430 67661555 -171696625 616433579 -1476186924 -1589449529 876778001 1130164002 -346232196 766130851 647261916 1644979696 -215205633 -680425592 1711221513 -1820166999 -698586898 -1145977022
REM
CELL 1.54180   15.00000   15.00000   15.00000   90.00000   90.00000   90.00000
LATT -1
SFAC C  
C      1  0.5626260000000  0.6556680000000  0.3260230000000 1.0
C      1  0.4746570000000  0.6346920000000  0.3270380000000 1.0
C      1  0.3822930000000  0.6127390000000  0.3290020000000 1.0
C      1  0.3700430000000  0.5164400000000  0.3280860000000 1.0
C      1  0.3566070000000  0.4268900000000  0.3300930000000 1.0
C      1  0.4355150000000  0.3556540000000  0.3277440000000 1.0
C      1  0.5231600000000  0.3817790000000  0.3230880000000 1.0
C      1  0.6135520000000  0.3974180000000  0.3288160000000 1.0
C      1  0.6082510000000  0.4874220000000  0.3196080000000 1.0
C      1  0.6304110000000  0.5754070000000  0.3274020000000 1.0
C      1  0.2333450000000  0.4926330000000  0.5265290000000 1.0
C      1  0.3418910000000  0.2997770000000  0.5347430000000 1.0
C      1  0.4249600000000  0.2530520000000  0.5452620000000 1.0
C      1  0.6501190000000  0.2905300000000  0.5624650000000 1.0
C      1  0.7670120000000  0.4048370000000  0.5389520000000 1.0
C      1  0.7630720000000  0.5015220000000  0.5298610000000 1.0
C      1  0.6610900000000  0.6981040000000  0.5372920000000 1.0
C      1  0.5811660000000  0.7498720000000  0.5477390000000 1.0
C      1  0.3563610000000  0.7101840000000  0.5583020000000 1.0
C      1  0.2471080000000  0.5882500000000  0.5213410000000 1.0
C      1  0.5569370000000  0.2662090000000  0.4580180000000 1.0
C      1  0.6938190000000  0.3448840000000  0.3876390000000 1.0
C      1  0.7495610000000  0.4321180000000  0.3878590000000 1.0
C      1  0.6959800000000  0.5935640000000  0.3985190000000 1.0
C      1  0.6004030000000  0.7182640000000  0.3930110000000 1.0
C      1  0.4524710000000  0.7514910000000  0.4540440000000 1.0
C      1  0.3247180000000  0.6664190000000  0.3927610000000 1.0
C      1  0.2142980000000  0.5382560000000  0.3974270000000 1.0
C      1  0.2893000000000  0.3910000000000  0.3934340000000 1.0
C      1  0.4073100000000  0.2866840000000  0.3906110000000 1.0
C      1  0.5328130000000  0.6499020000000  0.6782120000000 1.0
C      1  0.4337930000000  0.6406220000000  0.6823660000000 1.0
C      1  0.3644390000000  0.5795810000000  0.6497520000000 1.0
C      1  0.3398550000000  0.4865420000000  0.6645310000000 1.0
C      1  0.3853300000000  0.3981910000000  0.6689020000000 1.0
C      1  0.4693840000000  0.3508680000000  0.6792530000000 1.0
C      1  0.5684550000000  0.3595520000000  0.6855940000000 1.0
C      1  0.6412520000000  0.4187680000000  0.6572900000000 1.0
C      1  0.6618130000000  0.5131090000000  0.6687580000000 1.0
C      1  0.6172680000000  0.6019780000000  0.6736210000000 1.0
C      1  0.3167130000000  0.3604900000000  0.6074890000000 1.0
C      1  0.4805730000000  0.2694510000000  0.6237800000000 1.0
C      1  0.5789460000000  0.2787260000000  0.6298580000000 1.0
C      1  0.6997460000000  0.3667700000000  0.5978830000000 1.0
C      1  0.7301830000000  0.5513310000000  0.6072510000000 1.0
C      1  0.6856920000000  0.6388750000000  0.6115620000000 1.0
C      1  0.5228720000000  0.7317690000000  0.6235080000000 1.0
C      1  0.4235570000000  0.7227510000000  0.6277840000000 1.0
C      1  0.3105910000000  0.6292210000000  0.5833500000000 1.0
C      1  0.2707020000000  0.4472850000000  0.6046320000000 1.0
C      1  0.5427160000000  0.7698020000000  0.4560230000000 1.0
C      1  0.3636100000000  0.7308420000000  0.4572940000000 1.0
C      1  0.2438930000000  0.6232660000000  0.4249810000000 1.0
C      1  0.2224430000000  0.4519930000000  0.4330830000000 1.0
C      1  0.3274140000000  0.3142350000000  0.4375610000000 1.0
C      1  0.4678370000000  0.2419050000000  0.4552170000000 1.0
C      1  0.6403910000000  0.2892280000000  0.4628720000000 1.0
C      1  0.7717370000000  0.3645380000000  0.4489720000000 1.0
C      1  0.7443880000000  0.5177720000000  0.4350540000000 1.0
C      1  0.6735590000000  0.6788790000000  0.4408560000000 1.0
END
