TITL C-1525613-7943-7802 -0.00733727399655413 3375 -9426.65990288128 0 0 60 (C1) n - 1
REM
REM in /home/nfs/bkarasulu/CARBON/AIRSS/Generating-Clusters/ReaxFF-fromJPCA2015/Units_Real/Try2-Higher-symm/Only-C60
REM
REM
REM
REM
REM
REM ./C.cell (863b2abdce7293c0672fb3ba77bf323a)
REM AIRSS Version 0.9.1 bugfix July 2018 build 013d7b7c2542+ Fri, 06 Jul 2018 19:26:36 +0100
REM compiler GCC version 9.2.1 20190827 (Red Hat 9.2.1-1)
REM options -cpp -mtune=generic -march=x86-64 -g -O0 -fpre-include=/usr/include/finclude/math-vector-fortran.h
REM seed 136709724 -2054071321 1079029959 -1926010965 1776373142 -445936759 -1660649487 2098346520 -646328551 -1924430871 338413125 -385546290 1079379597 415942889 1160683207 1972142380 -2137923843 -722740482 807741370 -1283258779 -1502896892 -1378901342 -344823903 -2026060699 1208032700 1227928363 -447985820 -1891677419 1877822139 974411486 -1011395542 -1407325345 1958387315
REM
CELL 1.54180   15.00000   15.00000   15.00000   90.00000   90.00000   90.00000
LATT -1
SFAC C  
C      1  0.5671140000000  0.5944300000000  0.7235760000000 1.0
C      1  0.4726510000000  0.6058720000000  0.7052080000000 1.0
C      1  0.2875910000000  0.6173630000000  0.6132670000000 1.0
C      1  0.2617050000000  0.6165460000000  0.5186350000000 1.0
C      1  0.3631450000000  0.6193320000000  0.3342460000000 1.0
C      1  0.4357900000000  0.6005080000000  0.2717560000000 1.0
C      1  0.5291540000000  0.6068100000000  0.2955810000000 1.0
C      1  0.7149900000000  0.6284450000000  0.3882240000000 1.0
C      1  0.7397920000000  0.6258110000000  0.4791130000000 1.0
C      1  0.6348450000000  0.6049340000000  0.6552440000000 1.0
C      1  0.6802060000000  0.5191420000000  0.6478700000000 1.0
C      1  0.5785120000000  0.5085090000000  0.7598640000000 1.0
C      1  0.4315850000000  0.5210050000000  0.7262530000000 1.0
C      1  0.2894090000000  0.5280780000000  0.6403930000000 1.0
C      1  0.2535300000000  0.5215220000000  0.4918500000000 1.0
C      1  0.3066750000000  0.5399570000000  0.3343030000000 1.0
C      1  0.4226310000000  0.5164870000000  0.2321930000000 1.0
C      1  0.5666170000000  0.5170880000000  0.2812970000000 1.0
C      1  0.7170470000000  0.5388630000000  0.3529040000000 1.0
C      1  0.7619960000000  0.5391620000000  0.5033070000000 1.0
C      1  0.3613260000000  0.6790060000000  0.5931140000000 1.0
C      1  0.3333070000000  0.6805910000000  0.4992310000000 1.0
C      1  0.3795550000000  0.6840580000000  0.4091410000000 1.0
C      1  0.4695740000000  0.6912760000000  0.3927090000000 1.0
C      1  0.5542600000000  0.6803900000000  0.3596550000000 1.0
C      1  0.6402200000000  0.6865290000000  0.4103550000000 1.0
C      1  0.6658540000000  0.6815790000000  0.5046660000000 1.0
C      1  0.6169140000000  0.6758820000000  0.5899440000000 1.0
C      1  0.5294310000000  0.7218990000000  0.6028620000000 1.0
C      1  0.4499170000000  0.6757060000000  0.6397550000000 1.0
C      1  0.4300660000000  0.3011480000000  0.4009810000000 1.0
C      1  0.4999430000000  0.3075910000000  0.3415280000000 1.0
C      1  0.5987110000000  0.3152130000000  0.3755470000000 1.0
C      1  0.6160400000000  0.3051410000000  0.4644930000000 1.0
C      1  0.6446840000000  0.3185420000000  0.5514780000000 1.0
C      1  0.5899970000000  0.3131270000000  0.6344540000000 1.0
C      1  0.4952670000000  0.3223500000000  0.6590810000000 1.0
C      1  0.4063470000000  0.3311410000000  0.6257980000000 1.0
C      1  0.3443590000000  0.3179230000000  0.5507740000000 1.0
C      1  0.3543140000000  0.3188400000000  0.4516640000000 1.0
C      1  0.4989430000000  0.4607250000000  0.7605210000000 1.0
C      1  0.3520730000000  0.4811700000000  0.6902290000000 1.0
C      1  0.2548650000000  0.4714320000000  0.5738040000000 1.0
C      1  0.2838730000000  0.4824950000000  0.4094760000000 1.0
C      1  0.3433660000000  0.4816830000000  0.2659150000000 1.0
C      1  0.4959170000000  0.4600960000000  0.2480280000000 1.0
C      1  0.6473360000000  0.4812010000000  0.3200480000000 1.0
C      1  0.7635430000000  0.4908860000000  0.4214400000000 1.0
C      1  0.7229090000000  0.4815830000000  0.5695040000000 1.0
C      1  0.6469970000000  0.4607400000000  0.7171740000000 1.0
C      1  0.3435360000000  0.3908550000000  0.6651030000000 1.0
C      1  0.2816600000000  0.3801370000000  0.5936980000000 1.0
C      1  0.3222110000000  0.3930580000000  0.3923350000000 1.0
C      1  0.3640820000000  0.3959120000000  0.3051610000000 1.0
C      1  0.4588500000000  0.3778300000000  0.2867190000000 1.0
C      1  0.6588650000000  0.3924030000000  0.3617460000000 1.0
C      1  0.7253220000000  0.4033980000000  0.4329230000000 1.0
C      1  0.7056010000000  0.3945700000000  0.5278910000000 1.0
C      1  0.6139770000000  0.3684830000000  0.7114970000000 1.0
C      1  0.5210080000000  0.3735460000000  0.7344770000000 1.0
END
