TITL C-1525613-7943-473 0.748579626934416 3375 -8069.09087731059 0 0 60 (C1) n - 1
REM
REM in /home/nfs/bkarasulu/CARBON/AIRSS/Generating-Clusters/ReaxFF-fromJPCA2015/Units_Real/Try2-Higher-symm/Only-C60
REM
REM
REM
REM
REM
REM ./C.cell (863b2abdce7293c0672fb3ba77bf323a)
REM AIRSS Version 0.9.1 bugfix July 2018 build 013d7b7c2542+ Fri, 06 Jul 2018 19:26:36 +0100
REM compiler GCC version 9.2.1 20190827 (Red Hat 9.2.1-1)
REM options -cpp -mtune=generic -march=x86-64 -g -O0 -fpre-include=/usr/include/finclude/math-vector-fortran.h
REM seed -1185322138 1199916666 1014901937 1079517553 19683213 -722473151 -554612954 1489211670 1282382172 1204401428 -1336230129 220361150 549786792 825558820 13478376 2005527118 2059670503 -1946559863 1131126765 1291535079 1214509067 -840093772 1355708435 1371735731 -98717407 -477827175 -1088664222 61988532 -1171602219 -828092671 -1718414063 -2027437244 1318003075
REM
CELL 1.54180   15.00000   15.00000   15.00000   90.00000   90.00000   90.00000
LATT -1
SFAC C  
C      1  0.3082860000000  0.3526050000000  0.4642010000000 1.0
C      1  0.3309810000000  0.4903030000000  0.5977470000000 1.0
C      1  0.3857520000000  0.5731950000000  0.5518460000000 1.0
C      1  0.3838510000000  0.5609730000000  0.4434950000000 1.0
C      1  0.3800850000000  0.4682050000000  0.4138000000000 1.0
C      1  0.6502980000000  0.3700110000000  0.5504560000000 1.0
C      1  0.6710930000000  0.4797350000000  0.4048170000000 1.0
C      1  0.6195850000000  0.5730930000000  0.4425930000000 1.0
C      1  0.6343100000000  0.5539070000000  0.5375610000000 1.0
C      1  0.6439810000000  0.4685010000000  0.5675790000000 1.0
C      1  0.6212510000000  0.4941670000000  0.2769150000000 1.0
C      1  0.6281890000000  0.3384210000000  0.3724600000000 1.0
C      1  0.6304290000000  0.3619960000000  0.6495310000000 1.0
C      1  0.6414910000000  0.5525850000000  0.6885760000000 1.0
C      1  0.6417610000000  0.7182580000000  0.4739270000000 1.0
C      1  0.3846810000000  0.4926040000000  0.7246890000000 1.0
C      1  0.3703690000000  0.3399710000000  0.6224400000000 1.0
C      1  0.3638570000000  0.3343650000000  0.3995720000000 1.0
C      1  0.3402390000000  0.5762960000000  0.3091650000000 1.0
C      1  0.3573470000000  0.7160600000000  0.5209870000000 1.0
C      1  0.6911140000000  0.6444030000000  0.4346920000000 1.0
C      1  0.6623930000000  0.4245070000000  0.3277650000000 1.0
C      1  0.6635030000000  0.3246890000000  0.4630520000000 1.0
C      1  0.6568200000000  0.4570860000000  0.6631170000000 1.0
C      1  0.6785920000000  0.6004300000000  0.6095260000000 1.0
C      1  0.3112780000000  0.6380560000000  0.5605300000000 1.0
C      1  0.3419840000000  0.4274600000000  0.6702890000000 1.0
C      1  0.3509340000000  0.3334050000000  0.5341930000000 1.0
C      1  0.3140100000000  0.4844170000000  0.3440500000000 1.0
C      1  0.3100410000000  0.6138490000000  0.3950120000000 1.0
C      1  0.5491360000000  0.5390140000000  0.2707480000000 1.0
C      1  0.5327900000000  0.3171310000000  0.3872870000000 1.0
C      1  0.5352740000000  0.3470700000000  0.6669440000000 1.0
C      1  0.5529010000000  0.5877100000000  0.7145270000000 1.0
C      1  0.5471950000000  0.7437690000000  0.4941510000000 1.0
C      1  0.4678690000000  0.5336870000000  0.7318560000000 1.0
C      1  0.4625090000000  0.3066240000000  0.6115260000000 1.0
C      1  0.4432980000000  0.3368540000000  0.3526390000000 1.0
C      1  0.4320680000000  0.5965210000000  0.2773650000000 1.0
C      1  0.4516450000000  0.7401670000000  0.5044460000000 1.0
C      1  0.2457110000000  0.4242920000000  0.4727110000000 1.0
C      1  0.2470470000000  0.4858910000000  0.5499530000000 1.0
C      1  0.2356490000000  0.5818600000000  0.5322030000000 1.0
C      1  0.2288570000000  0.5789040000000  0.4349900000000 1.0
C      1  0.2343110000000  0.4870250000000  0.4004380000000 1.0
C      1  0.7972100000000  0.4302880000000  0.5102870000000 1.0
C      1  0.7592600000000  0.4941640000000  0.4403330000000 1.0
C      1  0.7622970000000  0.5882220000000  0.4693360000000 1.0
C      1  0.7644650000000  0.5824480000000  0.5663090000000 1.0
C      1  0.7955440000000  0.4896130000000  0.5899530000000 1.0
C      1  0.5266050000000  0.6117570000000  0.4614110000000 1.0
C      1  0.5115450000000  0.5168890000000  0.3531170000000 1.0
C      1  0.5209960000000  0.3821180000000  0.4554500000000 1.0
C      1  0.5188080000000  0.4276210000000  0.6135040000000 1.0
C      1  0.5327300000000  0.5879770000000  0.6188600000000 1.0
C      1  0.4791410000000  0.6128950000000  0.5452340000000 1.0
C      1  0.4807500000000  0.5095590000000  0.6346690000000 1.0
C      1  0.4864630000000  0.3733730000000  0.5427710000000 1.0
C      1  0.4662380000000  0.4325480000000  0.3896040000000 1.0
C      1  0.4631830000000  0.5904540000000  0.3928000000000 1.0
END
