TITL C-1525613-7943-5092 -0.000715279065465297 3375 -9274.34658491123 0 0 60 (C1) n - 1
REM
REM in /home/nfs/bkarasulu/CARBON/AIRSS/Generating-Clusters/ReaxFF-fromJPCA2015/Units_Real/Try2-Higher-symm/Only-C60
REM
REM
REM
REM
REM
REM ./C.cell (863b2abdce7293c0672fb3ba77bf323a)
REM AIRSS Version 0.9.1 bugfix July 2018 build 013d7b7c2542+ Fri, 06 Jul 2018 19:26:36 +0100
REM compiler GCC version 9.2.1 20190827 (Red Hat 9.2.1-1)
REM options -cpp -mtune=generic -march=x86-64 -g -O0 -fpre-include=/usr/include/finclude/math-vector-fortran.h
REM seed -631688645 -1071806104 -69398256 1212911715 -346410695 -312146039 -556268478 -343557034 947112665 1462311950 -220145179 2005794692 -18292301 1780503596 1471436106 785223953 1491114836 1438328212 -242021347 -813178526 -1246389371 226820758 465703638 178933221 1249294883 -848164940 1830279632 -204726018 -1125263573 -943524816 -1935139079 -105787017 -1604937544
REM
CELL 1.54180   15.00000   15.00000   15.00000   90.00000   90.00000   90.00000
LATT -1
SFAC C  
C      1  0.4743110000000  0.7186880000000  0.6441530000000 1.0
C      1  0.4852830000000  0.5844010000000  0.7313320000000 1.0
C      1  0.4670270000000  0.4250290000000  0.7600620000000 1.0
C      1  0.4670960000000  0.2901510000000  0.6711740000000 1.0
C      1  0.4853580000000  0.2538680000000  0.5133440000000 1.0
C      1  0.4743230000000  0.2814580000000  0.3556320000000 1.0
C      1  0.4850130000000  0.4166790000000  0.2678990000000 1.0
C      1  0.4674700000000  0.5754080000000  0.2389640000000 1.0
C      1  0.4675310000000  0.7105590000000  0.3280440000000 1.0
C      1  0.4850730000000  0.7464070000000  0.4853650000000 1.0
C      1  0.3858920000000  0.7387800000000  0.4871500000000 1.0
C      1  0.3764530000000  0.7070120000000  0.6358650000000 1.0
C      1  0.3860400000000  0.5825150000000  0.7226270000000 1.0
C      1  0.3701360000000  0.4323350000000  0.7420580000000 1.0
C      1  0.3701820000000  0.3036810000000  0.6574150000000 1.0
C      1  0.3861030000000  0.2623660000000  0.5116770000000 1.0
C      1  0.3764650000000  0.2936340000000  0.3631560000000 1.0
C      1  0.3858430000000  0.4180980000000  0.2758350000000 1.0
C      1  0.3703150000000  0.5683530000000  0.2569890000000 1.0
C      1  0.3703560000000  0.6968960000000  0.3415770000000 1.0
C      1  0.3422010000000  0.7010000000000  0.4226700000000 1.0
C      1  0.3441890000000  0.7065950000000  0.5559120000000 1.0
C      1  0.3441200000000  0.6331340000000  0.6661680000000 1.0
C      1  0.3422270000000  0.5084050000000  0.7133910000000 1.0
C      1  0.3360540000000  0.3793900000000  0.6824300000000 1.0
C      1  0.3422390000000  0.2998680000000  0.5762310000000 1.0
C      1  0.3441380000000  0.2944600000000  0.4429890000000 1.0
C      1  0.3441910000000  0.3674560000000  0.3324250000000 1.0
C      1  0.3421930000000  0.4922440000000  0.2853350000000 1.0
C      1  0.3363250000000  0.6212000000000  0.3166490000000 1.0
C      1  0.5274510000000  0.7452690000000  0.5694410000000 1.0
C      1  0.5268760000000  0.6613210000000  0.6983640000000 1.0
C      1  0.5252900000000  0.4995580000000  0.7454540000000 1.0
C      1  0.5101540000000  0.3470840000000  0.7315950000000 1.0
C      1  0.5253600000000  0.2743290000000  0.5968900000000 1.0
C      1  0.5269320000000  0.2541030000000  0.4296380000000 1.0
C      1  0.5274150000000  0.3397810000000  0.3018550000000 1.0
C      1  0.5248690000000  0.5008480000000  0.2544640000000 1.0
C      1  0.5113620000000  0.6529940000000  0.2682900000000 1.0
C      1  0.5249270000000  0.7255840000000  0.4027050000000 1.0
C      1  0.6636420000000  0.4886680000000  0.3585960000000 1.0
C      1  0.6706660000000  0.5553200000000  0.4162540000000 1.0
C      1  0.6636740000000  0.6345520000000  0.4548540000000 1.0
C      1  0.6737550000000  0.6621360000000  0.5479260000000 1.0
C      1  0.6780530000000  0.6103130000000  0.6301360000000 1.0
C      1  0.6725670000000  0.5113660000000  0.6473400000000 1.0
C      1  0.6796310000000  0.4410810000000  0.5892200000000 1.0
C      1  0.6726150000000  0.3599950000000  0.5474650000000 1.0
C      1  0.6780890000000  0.3369580000000  0.4497130000000 1.0
C      1  0.6737270000000  0.3922380000000  0.3697930000000 1.0
C      1  0.6089850000000  0.3217630000000  0.6146300000000 1.0
C      1  0.6171290000000  0.2736230000000  0.4071720000000 1.0
C      1  0.6152550000000  0.3285250000000  0.3302630000000 1.0
C      1  0.6081640000000  0.5347980000000  0.2937510000000 1.0
C      1  0.5945940000000  0.6297170000000  0.3035340000000 1.0
C      1  0.6081830000000  0.6760370000000  0.3869570000000 1.0
C      1  0.6152700000000  0.7235120000000  0.5909820000000 1.0
C      1  0.6170910000000  0.6743180000000  0.6716640000000 1.0
C      1  0.6089580000000  0.4646170000000  0.7089040000000 1.0
C      1  0.5951690000000  0.3695220000000  0.6976310000000 1.0
END
