TITL C-1525613-7943-4321 -0.000116136667621261 3375 -9273.06071189798 0 0 60 (C5) n - 1
REM
REM in /home/nfs/bkarasulu/CARBON/AIRSS/Generating-Clusters/ReaxFF-fromJPCA2015/Units_Real/Try2-Higher-symm/Only-C60
REM
REM
REM
REM
REM
REM ./C.cell (863b2abdce7293c0672fb3ba77bf323a)
REM AIRSS Version 0.9.1 bugfix July 2018 build 013d7b7c2542+ Fri, 06 Jul 2018 19:26:36 +0100
REM compiler GCC version 9.2.1 20190827 (Red Hat 9.2.1-1)
REM options -cpp -mtune=generic -march=x86-64 -g -O0 -fpre-include=/usr/include/finclude/math-vector-fortran.h
REM seed -158740831 -559909026 1675340214 -1537609152 -1921088411 1740326227 40036454 -1813744367 -1234513064 537840479 105319427 1260118718 -594748463 -799639334 614761914 1149431428 1135451627 -719627804 -115780936 -1864720234 -907569776 962072368 267657374 255924666 -699217431 1863420864 645614358 2071996177 -1249146065 1626613421 642366224 -1987657571 -1006832457
REM
CELL 1.54180   15.00000   15.00000   15.00000   90.00000   90.00000   90.00000
LATT -1
SFAC C  
C      1  0.5492940000000  0.2759810000000  0.3780880000000 1.0
C      1  0.3021480000000  0.3838930000000  0.3780430000000 1.0
C      1  0.3284350000000  0.6522940000000  0.3780250000000 1.0
C      1  0.5918210000000  0.7102310000000  0.3780310000000 1.0
C      1  0.7283150000000  0.4776490000000  0.3780590000000 1.0
C      1  0.4507260000000  0.2759720000000  0.3780750000000 1.0
C      1  0.6978750000000  0.3838990000000  0.3780350000000 1.0
C      1  0.6715710000000  0.6523030000000  0.3780230000000 1.0
C      1  0.4081810000000  0.7102260000000  0.3780330000000 1.0
C      1  0.2716950000000  0.4776390000000  0.3780510000000 1.0
C      1  0.3899160000000  0.7357960000000  0.5371910000000 1.0
C      1  0.6902440000000  0.6775900000000  0.5371750000000 1.0
C      1  0.7276960000000  0.3739640000000  0.5371830000000 1.0
C      1  0.4504780000000  0.2445860000000  0.5372330000000 1.0
C      1  0.2417360000000  0.4681810000000  0.5372120000000 1.0
C      1  0.6100860000000  0.7358080000000  0.5371880000000 1.0
C      1  0.3097590000000  0.6775770000000  0.5371770000000 1.0
C      1  0.2723310000000  0.3739590000000  0.5371960000000 1.0
C      1  0.5495420000000  0.2446010000000  0.5372520000000 1.0
C      1  0.7582720000000  0.4681940000000  0.5372240000000 1.0
C      1  0.3716610000000  0.4058940000000  0.3106660000000 1.0
C      1  0.3708380000000  0.5929840000000  0.3106450000000 1.0
C      1  0.5485190000000  0.6515740000000  0.3106520000000 1.0
C      1  0.6591500000000  0.5007090000000  0.3106780000000 1.0
C      1  0.5498530000000  0.3488830000000  0.3107020000000 1.0
C      1  0.6283670000000  0.4058990000000  0.3106530000000 1.0
C      1  0.6291710000000  0.5929940000000  0.3106400000000 1.0
C      1  0.4514870000000  0.6515700000000  0.3106540000000 1.0
C      1  0.3408620000000  0.5006990000000  0.3106720000000 1.0
C      1  0.4501720000000  0.3488720000000  0.3106880000000 1.0
C      1  0.6815200000000  0.6652290000000  0.6354650000000 1.0
C      1  0.7132470000000  0.3784070000000  0.6354770000000 1.0
C      1  0.4502640000000  0.2595970000000  0.6355470000000 1.0
C      1  0.2559890000000  0.4729920000000  0.6355210000000 1.0
C      1  0.3989280000000  0.7236920000000  0.6354890000000 1.0
C      1  0.3184670000000  0.6652360000000  0.6354710000000 1.0
C      1  0.2867260000000  0.3784130000000  0.6354990000000 1.0
C      1  0.5497120000000  0.2595900000000  0.6355720000000 1.0
C      1  0.7439950000000  0.4729840000000  0.6355310000000 1.0
C      1  0.6010630000000  0.7236890000000  0.6354840000000 1.0
C      1  0.6014550000000  0.2777190000000  0.4612930000000 1.0
C      1  0.3199060000000  0.3348270000000  0.4612550000000 1.0
C      1  0.2872530000000  0.6202400000000  0.4612340000000 1.0
C      1  0.5486050000000  0.7394880000000  0.4612390000000 1.0
C      1  0.7427800000000  0.5277950000000  0.4612660000000 1.0
C      1  0.3985610000000  0.2777050000000  0.4612770000000 1.0
C      1  0.6801170000000  0.3348320000000  0.4612460000000 1.0
C      1  0.7127500000000  0.6202490000000  0.4612340000000 1.0
C      1  0.4513950000000  0.7394840000000  0.4612410000000 1.0
C      1  0.2572230000000  0.5277850000000  0.4612560000000 1.0
C      1  0.6576050000000  0.5005920000000  0.6774190000000 1.0
C      1  0.5492850000000  0.3502600000000  0.6775030000000 1.0
C      1  0.3728890000000  0.4068480000000  0.6773050000000 1.0
C      1  0.3721440000000  0.5920650000000  0.6772350000000 1.0
C      1  0.5480820000000  0.6500260000000  0.6772760000000 1.0
C      1  0.3423800000000  0.5006090000000  0.6774030000000 1.0
C      1  0.4506780000000  0.3502960000000  0.6774140000000 1.0
C      1  0.6270500000000  0.4068470000000  0.6772020000000 1.0
C      1  0.6278300000000  0.5920480000000  0.6771970000000 1.0
C      1  0.4519000000000  0.6500370000000  0.6773010000000 1.0
END
