TITL C-1525613-7943-749 0.036831033274681 3375 -8237.55628837911 0 0 60 (C2) n - 1
REM
REM in /home/nfs/bkarasulu/CARBON/AIRSS/Generating-Clusters/ReaxFF-fromJPCA2015/Units_Real/Try2-Higher-symm/Only-C60
REM
REM
REM
REM
REM
REM ./C.cell (863b2abdce7293c0672fb3ba77bf323a)
REM AIRSS Version 0.9.1 bugfix July 2018 build 013d7b7c2542+ Fri, 06 Jul 2018 19:26:36 +0100
REM compiler GCC version 9.2.1 20190827 (Red Hat 9.2.1-1)
REM options -cpp -mtune=generic -march=x86-64 -g -O0 -fpre-include=/usr/include/finclude/math-vector-fortran.h
REM seed -147789721 324681574 1268880755 966235579 1457565060 -728793720 -1041947518 1970868266 -919800987 -714320037 -686482046 -262013128 2051089231 -1349846658 904721274 -1135496810 -791779325 1793266054 1860471838 -1205511137 -99123294 153770090 955828943 86038529 -981265670 27905122 247485107 -236173102 -1536860566 1224087366 -1023086409 -471390983 1841989270
REM
CELL 1.54180   15.00000   15.00000   15.00000   90.00000   90.00000   90.00000
LATT -1
SFAC C  
C      1  0.5119560000000  0.3191230000000  0.6541820000000 1.0
C      1  0.5711630000000  0.3240500000000  0.5882230000000 1.0
C      1  0.6454290000000  0.3422260000000  0.5380290000000 1.0
C      1  0.6056890000000  0.3309140000000  0.4564850000000 1.0
C      1  0.5843180000000  0.3316120000000  0.3701230000000 1.0
C      1  0.4880420000000  0.3191130000000  0.3458260000000 1.0
C      1  0.4288320000000  0.3240390000000  0.4117860000000 1.0
C      1  0.3545790000000  0.3422370000000  0.4619830000000 1.0
C      1  0.3943080000000  0.3309500000000  0.5435310000000 1.0
C      1  0.4156750000000  0.3316380000000  0.6298930000000 1.0
C      1  0.3780620000000  0.6269880000000  0.6726600000000 1.0
C      1  0.5050040000000  0.6283920000000  0.7080180000000 1.0
C      1  0.6318820000000  0.6191310000000  0.6723330000000 1.0
C      1  0.7180480000000  0.6049780000000  0.5658140000000 1.0
C      1  0.7088690000000  0.6167390000000  0.4276400000000 1.0
C      1  0.6219450000000  0.6270040000000  0.3273980000000 1.0
C      1  0.4950730000000  0.6283080000000  0.2919320000000 1.0
C      1  0.3681460000000  0.6191120000000  0.3277180000000 1.0
C      1  0.2819940000000  0.6049860000000  0.4342440000000 1.0
C      1  0.2910940000000  0.6167240000000  0.5723230000000 1.0
C      1  0.2777420000000  0.6598710000000  0.5021280000000 1.0
C      1  0.3284080000000  0.6746980000000  0.6232090000000 1.0
C      1  0.4401710000000  0.6822680000000  0.6933120000000 1.0
C      1  0.5722250000000  0.6775010000000  0.6925890000000 1.0
C      1  0.6830830000000  0.6618690000000  0.6225480000000 1.0
C      1  0.7223020000000  0.6598620000000  0.4978710000000 1.0
C      1  0.6715510000000  0.6747530000000  0.3768720000000 1.0
C      1  0.5597470000000  0.6821910000000  0.3067320000000 1.0
C      1  0.4277140000000  0.6775610000000  0.3073360000000 1.0
C      1  0.3169800000000  0.6618340000000  0.3774180000000 1.0
C      1  0.7938410000000  0.4398710000000  0.3904790000000 1.0
C      1  0.6461570000000  0.4103560000000  0.2345140000000 1.0
C      1  0.4581780000000  0.3932580000000  0.1885060000000 1.0
C      1  0.2996000000000  0.4577090000000  0.2467820000000 1.0
C      1  0.2061200000000  0.4173540000000  0.4220090000000 1.0
C      1  0.2061690000000  0.4398160000000  0.6094940000000 1.0
C      1  0.3538040000000  0.4103620000000  0.7654980000000 1.0
C      1  0.5418450000000  0.3932430000000  0.8114990000000 1.0
C      1  0.7003630000000  0.4576580000000  0.7531690000000 1.0
C      1  0.7938910000000  0.4173210000000  0.5779800000000 1.0
C      1  0.4169390000000  0.5509590000000  0.6191830000000 1.0
C      1  0.5043090000000  0.5510360000000  0.6434200000000 1.0
C      1  0.5995870000000  0.5268580000000  0.6348470000000 1.0
C      1  0.6655670000000  0.5194340000000  0.5509960000000 1.0
C      1  0.6576820000000  0.5264100000000  0.4404460000000 1.0
C      1  0.5830730000000  0.5510180000000  0.3808570000000 1.0
C      1  0.4956600000000  0.5510250000000  0.3564070000000 1.0
C      1  0.4004400000000  0.5267640000000  0.3651520000000 1.0
C      1  0.3344390000000  0.5194320000000  0.4490760000000 1.0
C      1  0.3423100000000  0.5264290000000  0.5595400000000 1.0
C      1  0.3753560000000  0.4568820000000  0.2830350000000 1.0
C      1  0.2880260000000  0.4277270000000  0.4389520000000 1.0
C      1  0.2881740000000  0.4539480000000  0.6165200000000 1.0
C      1  0.3492490000000  0.3945390000000  0.6828240000000 1.0
C      1  0.5582760000000  0.3734220000000  0.7326220000000 1.0
C      1  0.6246190000000  0.4568920000000  0.7169500000000 1.0
C      1  0.7119740000000  0.4277210000000  0.5610480000000 1.0
C      1  0.7118260000000  0.4539300000000  0.3834740000000 1.0
C      1  0.6507440000000  0.3945170000000  0.3171850000000 1.0
C      1  0.4417480000000  0.3734380000000  0.2673830000000 1.0
END
