TITL C-1525613-7943-4926 0.103458201623454 3375 -8812.07108983921 0 0 60 (Ci) n - 1
REM
REM in /home/nfs/bkarasulu/CARBON/AIRSS/Generating-Clusters/ReaxFF-fromJPCA2015/Units_Real/Try2-Higher-symm/Only-C60
REM
REM
REM
REM
REM
REM ./C.cell (863b2abdce7293c0672fb3ba77bf323a)
REM AIRSS Version 0.9.1 bugfix July 2018 build 013d7b7c2542+ Fri, 06 Jul 2018 19:26:36 +0100
REM compiler GCC version 9.2.1 20190827 (Red Hat 9.2.1-1)
REM options -cpp -mtune=generic -march=x86-64 -g -O0 -fpre-include=/usr/include/finclude/math-vector-fortran.h
REM seed 548099678 1871745234 -1229435950 -313884531 1405648484 -1828226994 -1471813437 -1914269774 -1351600476 2107425881 -673954444 1275620716 -1542155821 576486035 -2113303470 -1425260813 722040378 -964813597 1674678397 -1584580134 -1366336008 -340352441 -878371320 -1683315319 -1150628126 1898786618 2112430779 -384102099 978511624 1114020577 13666815 1778242540 751490060
REM
CELL 1.54180   15.00000   15.00000   15.00000   90.00000   90.00000   90.00000
LATT -1
SFAC C  
C      1  0.3339520000000  0.3833390000000  0.5209900000000 1.0
C      1  0.3744720000000  0.6184260000000  0.6129760000000 1.0
C      1  0.4673210000000  0.3833710000000  0.6649310000000 1.0
C      1  0.5705130000000  0.6160790000000  0.6521610000000 1.0
C      1  0.6457660000000  0.3837600000000  0.5822130000000 1.0
C      1  0.6661630000000  0.6170270000000  0.4789630000000 1.0
C      1  0.6248060000000  0.3825950000000  0.3862590000000 1.0
C      1  0.5330680000000  0.6167020000000  0.3349800000000 1.0
C      1  0.4296250000000  0.3841710000000  0.3478790000000 1.0
C      1  0.3542400000000  0.6163820000000  0.4177610000000 1.0
C      1  0.3023530000000  0.4125780000000  0.6157520000000 1.0
C      1  0.4077600000000  0.5878390000000  0.7077940000000 1.0
C      1  0.5492210000000  0.4121730000000  0.7233690000000 1.0
C      1  0.6732710000000  0.5844400000000  0.6505130000000 1.0
C      1  0.7295320000000  0.4136270000000  0.5243560000000 1.0
C      1  0.6973470000000  0.5875780000000  0.3843020000000 1.0
C      1  0.5919360000000  0.4119750000000  0.2916620000000 1.0
C      1  0.4509190000000  0.5876430000000  0.2767360000000 1.0
C      1  0.3268870000000  0.4155080000000  0.3495350000000 1.0
C      1  0.2705480000000  0.5863170000000  0.4755780000000 1.0
C      1  0.6318800000000  0.5871100000000  0.3134530000000 1.0
C      1  0.4965540000000  0.4126520000000  0.2730590000000 1.0
C      1  0.3632460000000  0.5893340000000  0.3175450000000 1.0
C      1  0.2788240000000  0.4096360000000  0.4339960000000 1.0
C      1  0.2820200000000  0.5876650000000  0.5726950000000 1.0
C      1  0.3678730000000  0.4128160000000  0.6867710000000 1.0
C      1  0.5042250000000  0.5872080000000  0.7265580000000 1.0
C      1  0.6367630000000  0.4106230000000  0.6825560000000 1.0
C      1  0.7211270000000  0.5903190000000  0.5659670000000 1.0
C      1  0.7181090000000  0.4124200000000  0.4273280000000 1.0
C      1  0.4057230000000  0.5242720000000  0.5887830000000 1.0
C      1  0.4753050000000  0.4761930000000  0.6268540000000 1.0
C      1  0.5524030000000  0.5235230000000  0.6150600000000 1.0
C      1  0.6067600000000  0.4752560000000  0.5595560000000 1.0
C      1  0.6225180000000  0.5245170000000  0.4841730000000 1.0
C      1  0.5935920000000  0.4760130000000  0.4118590000000 1.0
C      1  0.5254480000000  0.5234250000000  0.3734790000000 1.0
C      1  0.4477440000000  0.4762720000000  0.3849180000000 1.0
C      1  0.3935180000000  0.5246800000000  0.4406020000000 1.0
C      1  0.3771210000000  0.4755760000000  0.5156460000000 1.0
C      1  0.5338950000000  0.6767210000000  0.5738580000000 1.0
C      1  0.5713970000000  0.3219630000000  0.5392050000000 1.0
C      1  0.5800520000000  0.6776790000000  0.4902570000000 1.0
C      1  0.5597200000000  0.3226570000000  0.4445020000000 1.0
C      1  0.5151160000000  0.6773200000000  0.4206550000000 1.0
C      1  0.4660680000000  0.3232890000000  0.4260490000000 1.0
C      1  0.4286530000000  0.6780130000000  0.4605980000000 1.0
C      1  0.4200040000000  0.3223700000000  0.5097900000000 1.0
C      1  0.4400650000000  0.6773740000000  0.5554650000000 1.0
C      1  0.4849280000000  0.3225260000000  0.5792150000000 1.0
C      1  0.6811310000000  0.4978190000000  0.6974870000000 1.0
C      1  0.7397590000000  0.5019100000000  0.5506450000000 1.0
C      1  0.7430920000000  0.4994470000000  0.3894320000000 1.0
C      1  0.6323450000000  0.4991100000000  0.2683970000000 1.0
C      1  0.4687350000000  0.4996810000000  0.2353280000000 1.0
C      1  0.3187400000000  0.5021960000000  0.3026670000000 1.0
C      1  0.2604170000000  0.4980070000000  0.4495270000000 1.0
C      1  0.2566290000000  0.5004990000000  0.6106970000000 1.0
C      1  0.3674360000000  0.5000190000000  0.7318870000000 1.0
C      1  0.5313680000000  0.5003590000000  0.7647710000000 1.0
END
