TITL C-1525613-7943-1189 1.49615912261824 3375 -7941.98363519521 0 0 60 (C2) n - 1
REM
REM in /home/nfs/bkarasulu/CARBON/AIRSS/Generating-Clusters/ReaxFF-fromJPCA2015/Units_Real/Try2-Higher-symm/Only-C60
REM
REM
REM
REM
REM
REM ./C.cell (863b2abdce7293c0672fb3ba77bf323a)
REM AIRSS Version 0.9.1 bugfix July 2018 build 013d7b7c2542+ Fri, 06 Jul 2018 19:26:36 +0100
REM compiler GCC version 9.2.1 20190827 (Red Hat 9.2.1-1)
REM options -cpp -mtune=generic -march=x86-64 -g -O0 -fpre-include=/usr/include/finclude/math-vector-fortran.h
REM seed 1865523036 -1063440197 -15547019 1355214560 -2093266018 -877880713 885200558 -1509648477 -212068576 901222106 -1540415152 -697359940 -857591131 1288328203 1974717326 98918262 864301032 982094161 1540534607 -1848420848 -2136167573 -975224941 728505842 382854825 2103332520 1366001084 1735983733 115552726 -468162206 703632396 1034908413 -1651729015 549777456
REM
CELL 1.54180   15.00000   15.00000   15.00000   90.00000   90.00000   90.00000
LATT -1
SFAC C  
C      1  0.4358150000000  0.6622640000000  0.7419220000000 1.0
C      1  0.4336030000000  0.7739020000000  0.6020250000000 1.0
C      1  0.4371140000000  0.7820820000000  0.4232690000000 1.0
C      1  0.4345230000000  0.6788750000000  0.2713630000000 1.0
C      1  0.4368250000000  0.5152070000000  0.2068010000000 1.0
C      1  0.4358150000000  0.3377360000000  0.2580780000000 1.0
C      1  0.4336030000000  0.2260980000000  0.3979750000000 1.0
C      1  0.4371140000000  0.2179180000000  0.5767310000000 1.0
C      1  0.4345230000000  0.3211250000000  0.7286370000000 1.0
C      1  0.4368250000000  0.4847930000000  0.7931990000000 1.0
C      1  0.3825040000000  0.6058720000000  0.6812460000000 1.0
C      1  0.3865960000000  0.6946010000000  0.5786130000000 1.0
C      1  0.3846440000000  0.7004450000000  0.4417520000000 1.0
C      1  0.3851600000000  0.6495090000000  0.3508400000000 1.0
C      1  0.3851330000000  0.4948890000000  0.2889770000000 1.0
C      1  0.3825030000000  0.3941280000000  0.3187540000000 1.0
C      1  0.3865950000000  0.3053990000000  0.4213870000000 1.0
C      1  0.3846440000000  0.2995550000000  0.5582480000000 1.0
C      1  0.3851600000000  0.3504910000000  0.6491600000000 1.0
C      1  0.3851310000000  0.5051090000000  0.7110270000000 1.0
C      1  0.4415310000000  0.4136680000000  0.6011510000000 1.0
C      1  0.4431590000000  0.4886950000000  0.6322480000000 1.0
C      1  0.4450560000000  0.5681610000000  0.6123200000000 1.0
C      1  0.4391710000000  0.6219250000000  0.5499780000000 1.0
C      1  0.4446270000000  0.6290960000000  0.4694200000000 1.0
C      1  0.4415310000000  0.5863320000000  0.3988490000000 1.0
C      1  0.4431590000000  0.5113050000000  0.3677520000000 1.0
C      1  0.4450550000000  0.4318420000000  0.3876770000000 1.0
C      1  0.4391710000000  0.3780740000000  0.4500220000000 1.0
C      1  0.4446270000000  0.3709040000000  0.5305800000000 1.0
C      1  0.6239920000000  0.6241350000000  0.5957740000000 1.0
C      1  0.6238330000000  0.6568790000000  0.5046360000000 1.0
C      1  0.6236990000000  0.6299150000000  0.4112880000000 1.0
C      1  0.6240140000000  0.5528390000000  0.3522440000000 1.0
C      1  0.6237290000000  0.4558420000000  0.3490650000000 1.0
C      1  0.6239920000000  0.3758650000000  0.4042260000000 1.0
C      1  0.6238330000000  0.3431210000000  0.4953640000000 1.0
C      1  0.6236990000000  0.3700850000000  0.5887120000000 1.0
C      1  0.6240140000000  0.4471610000000  0.6477560000000 1.0
C      1  0.6237290000000  0.5441580000000  0.6509350000000 1.0
C      1  0.5769260000000  0.6924100000000  0.6477870000000 1.0
C      1  0.5768740000000  0.7426340000000  0.5089600000000 1.0
C      1  0.5765220000000  0.7004500000000  0.3633900000000 1.0
C      1  0.5773280000000  0.5823130000000  0.2717590000000 1.0
C      1  0.5767280000000  0.4329250000000  0.2669530000000 1.0
C      1  0.5769260000000  0.3075900000000  0.3522130000000 1.0
C      1  0.5768740000000  0.2573660000000  0.4910400000000 1.0
C      1  0.5765220000000  0.2995500000000  0.6366100000000 1.0
C      1  0.5773280000000  0.4176870000000  0.7282410000000 1.0
C      1  0.5767280000000  0.5670750000000  0.7330470000000 1.0
C      1  0.5359250000000  0.6703740000000  0.2804040000000 1.0
C      1  0.5362980000000  0.5092650000000  0.2217880000000 1.0
C      1  0.5356380000000  0.3435650000000  0.2695540000000 1.0
C      1  0.5369170000000  0.2391250000000  0.4057920000000 1.0
C      1  0.5361220000000  0.2321140000000  0.5773700000000 1.0
C      1  0.5359250000000  0.3296260000000  0.7195960000000 1.0
C      1  0.5362980000000  0.4907350000000  0.7782120000000 1.0
C      1  0.5356380000000  0.6564350000000  0.7304460000000 1.0
C      1  0.5369170000000  0.7608750000000  0.5942080000000 1.0
C      1  0.5361220000000  0.7678860000000  0.4226300000000 1.0
END
