TITL C-1525613-7943-7294 0.539001938218 3375 -8279.33205163534 0 0 60 (Cs) n - 1
REM
REM in /home/nfs/bkarasulu/CARBON/AIRSS/Generating-Clusters/ReaxFF-fromJPCA2015/Units_Real/Try2-Higher-symm/Only-C60
REM
REM
REM
REM
REM
REM ./C.cell (863b2abdce7293c0672fb3ba77bf323a)
REM AIRSS Version 0.9.1 bugfix July 2018 build 013d7b7c2542+ Fri, 06 Jul 2018 19:26:36 +0100
REM compiler GCC version 9.2.1 20190827 (Red Hat 9.2.1-1)
REM options -cpp -mtune=generic -march=x86-64 -g -O0 -fpre-include=/usr/include/finclude/math-vector-fortran.h
REM seed -1990547315 -1222260118 2040102124 2016303575 2050951771 271037427 -1628573589 1787088069 -1796168179 -434120676 -1145128080 -1330358992 -463759727 -44946440 -1955853210 2062249296 888727206 120791331 1208612479 1094961621 -1686342638 -950442019 1577801367 -2079072831 818255694 1317709531 1101062470 444120885 -1976115315 138650925 1045020146 -1117631676 -1601953696
REM
CELL 1.54180   15.00000   15.00000   15.00000   90.00000   90.00000   90.00000
LATT -1
SFAC C  
C      1  0.5147190000000  0.5896400000000  0.4244020000000 1.0
C      1  0.4272580000000  0.5895210000000  0.4655160000000 1.0
C      1  0.4408910000000  0.5910350000000  0.5625250000000 1.0
C      1  0.5391790000000  0.5941860000000  0.5794750000000 1.0
C      1  0.5830780000000  0.5936690000000  0.4923610000000 1.0
C      1  0.5150050000000  0.4104500000000  0.4246310000000 1.0
C      1  0.4274870000000  0.4105550000000  0.4655060000000 1.0
C      1  0.4409850000000  0.4089520000000  0.5624580000000 1.0
C      1  0.5392830000000  0.4056740000000  0.5794790000000 1.0
C      1  0.5833620000000  0.4060410000000  0.4925650000000 1.0
C      1  0.2267780000000  0.4598230000000  0.4514260000000 1.0
C      1  0.3651420000000  0.4604560000000  0.7439030000000 1.0
C      1  0.6823820000000  0.4604720000000  0.6886720000000 1.0
C      1  0.7420670000000  0.4599800000000  0.3760280000000 1.0
C      1  0.4598000000000  0.4598420000000  0.2300080000000 1.0
C      1  0.2268460000000  0.5401270000000  0.4513760000000 1.0
C      1  0.3651930000000  0.5395950000000  0.7439790000000 1.0
C      1  0.6823020000000  0.5395240000000  0.6886750000000 1.0
C      1  0.7420890000000  0.5402030000000  0.3759390000000 1.0
C      1  0.4597470000000  0.5400110000000  0.2299360000000 1.0
C      1  0.6935840000000  0.4164940000000  0.6214510000000 1.0
C      1  0.6651750000000  0.4305180000000  0.3596120000000 1.0
C      1  0.4231460000000  0.4299120000000  0.2988150000000 1.0
C      1  0.2794860000000  0.4301820000000  0.5088210000000 1.0
C      1  0.4257340000000  0.4145250000000  0.7200720000000 1.0
C      1  0.6934890000000  0.5833240000000  0.6213370000000 1.0
C      1  0.6651800000000  0.5696120000000  0.3595370000000 1.0
C      1  0.4231080000000  0.5699980000000  0.2987150000000 1.0
C      1  0.2795300000000  0.5698520000000  0.5087140000000 1.0
C      1  0.4258760000000  0.5853990000000  0.7201240000000 1.0
C      1  0.5805570000000  0.2447450000000  0.4920390000000 1.0
C      1  0.5147120000000  0.2437770000000  0.4225330000000 1.0
C      1  0.4274180000000  0.2443550000000  0.4632900000000 1.0
C      1  0.4385210000000  0.2470590000000  0.5596570000000 1.0
C      1  0.5345010000000  0.2453030000000  0.5771770000000 1.0
C      1  0.5805630000000  0.7551830000000  0.4920750000000 1.0
C      1  0.5147820000000  0.7563690000000  0.4224500000000 1.0
C      1  0.4274860000000  0.7556420000000  0.4631890000000 1.0
C      1  0.4386350000000  0.7529370000000  0.5595550000000 1.0
C      1  0.5345530000000  0.7545670000000  0.5772140000000 1.0
C      1  0.5510110000000  0.3239960000000  0.6355890000000 1.0
C      1  0.6415440000000  0.3230490000000  0.4676900000000 1.0
C      1  0.5243280000000  0.3251180000000  0.3610930000000 1.0
C      1  0.3761020000000  0.3249540000000  0.4297370000000 1.0
C      1  0.3902910000000  0.3284470000000  0.5916800000000 1.0
C      1  0.5510720000000  0.6758960000000  0.6356030000000 1.0
C      1  0.6415730000000  0.6769140000000  0.4677770000000 1.0
C      1  0.5244170000000  0.6751370000000  0.3609310000000 1.0
C      1  0.3763020000000  0.6750370000000  0.4296290000000 1.0
C      1  0.3903170000000  0.6716410000000  0.5917450000000 1.0
C      1  0.3183940000000  0.3471570000000  0.5284710000000 1.0
C      1  0.4847080000000  0.3544000000000  0.6952750000000 1.0
C      1  0.7059100000000  0.3652350000000  0.5459650000000 1.0
C      1  0.6244910000000  0.3463660000000  0.3661610000000 1.0
C      1  0.4182340000000  0.3463560000000  0.3407620000000 1.0
C      1  0.3183440000000  0.6528170000000  0.5287230000000 1.0
C      1  0.4847760000000  0.6455910000000  0.6953390000000 1.0
C      1  0.7056910000000  0.6348460000000  0.5458950000000 1.0
C      1  0.6245200000000  0.6538260000000  0.3661460000000 1.0
C      1  0.4183440000000  0.6537090000000  0.3405520000000 1.0
END
