TITL C-1525613-7943-631 0.247770494194626 3375 -8669.20711872248 0 0 60 (C5) n - 1
REM
REM in /home/nfs/bkarasulu/CARBON/AIRSS/Generating-Clusters/ReaxFF-fromJPCA2015/Units_Real/Try2-Higher-symm/Only-C60
REM
REM
REM
REM
REM
REM ./C.cell (863b2abdce7293c0672fb3ba77bf323a)
REM AIRSS Version 0.9.1 bugfix July 2018 build 013d7b7c2542+ Fri, 06 Jul 2018 19:26:36 +0100
REM compiler GCC version 9.2.1 20190827 (Red Hat 9.2.1-1)
REM options -cpp -mtune=generic -march=x86-64 -g -O0 -fpre-include=/usr/include/finclude/math-vector-fortran.h
REM seed -1304217919 -608602238 1725475639 -237253958 80102233 1768125499 261057773 158796404 -75784538 -519215441 615652382 -262756741 -640213635 254866670 -1169885653 499443342 466768179 -1319458134 -527362754 102977508 -2040411436 2138771519 2136184486 608964274 689028147 1766374163 -526525546 814935779 1239189145 -1672061227 812267433 1249042300 784780625
REM
CELL 1.54180   15.00000   15.00000   15.00000   90.00000   90.00000   90.00000
LATT -1
SFAC C  
C      1  0.5782030000000  0.7181010000000  0.5229400000000 1.0
C      1  0.5460530000000  0.7181210000000  0.4327140000000 1.0
C      1  0.4502960000000  0.7181700000000  0.4354620000000 1.0
C      1  0.4232720000000  0.7181300000000  0.5273570000000 1.0
C      1  0.5023220000000  0.7180880000000  0.5814290000000 1.0
C      1  0.5776600000000  0.2812510000000  0.5230550000000 1.0
C      1  0.5457480000000  0.2809960000000  0.4333040000000 1.0
C      1  0.4508670000000  0.2811970000000  0.4359980000000 1.0
C      1  0.4238880000000  0.2814200000000  0.5273510000000 1.0
C      1  0.5022670000000  0.2816960000000  0.5812250000000 1.0
C      1  0.3124680000000  0.4500150000000  0.6742190000000 1.0
C      1  0.6088980000000  0.4504490000000  0.7331970000000 1.0
C      1  0.7538190000000  0.4500290000000  0.4693040000000 1.0
C      1  0.5492030000000  0.4498890000000  0.2483250000000 1.0
C      1  0.2758180000000  0.4501130000000  0.3754650000000 1.0
C      1  0.3102790000000  0.5488980000000  0.6760220000000 1.0
C      1  0.6088230000000  0.5493160000000  0.7348720000000 1.0
C      1  0.7570720000000  0.5489350000000  0.4691880000000 1.0
C      1  0.5502730000000  0.5487610000000  0.2461410000000 1.0
C      1  0.2738700000000  0.5490420000000  0.3736420000000 1.0
C      1  0.3306250000000  0.6210370000000  0.3401530000000 1.0
C      1  0.2957740000000  0.6210770000000  0.6118250000000 1.0
C      1  0.5430440000000  0.6209400000000  0.7289100000000 1.0
C      1  0.7309560000000  0.6211330000000  0.5295990000000 1.0
C      1  0.5997100000000  0.6209910000000  0.2894570000000 1.0
C      1  0.3313380000000  0.3810480000000  0.3402840000000 1.0
C      1  0.2958730000000  0.3819850000000  0.6103180000000 1.0
C      1  0.5435740000000  0.3792090000000  0.7292180000000 1.0
C      1  0.7298640000000  0.3821490000000  0.5307900000000 1.0
C      1  0.5998370000000  0.3810420000000  0.2902320000000 1.0
C      1  0.6749720000000  0.4526910000000  0.6674730000000 1.0
C      1  0.7122750000000  0.4524560000000  0.3861870000000 1.0
C      1  0.4572910000000  0.4522880000000  0.2622800000000 1.0
C      1  0.2602170000000  0.4525640000000  0.4670760000000 1.0
C      1  0.3950060000000  0.4520800000000  0.7168480000000 1.0
C      1  0.6780070000000  0.5478790000000  0.6665460000000 1.0
C      1  0.7134460000000  0.5472080000000  0.3822940000000 1.0
C      1  0.4542020000000  0.5471520000000  0.2609760000000 1.0
C      1  0.2580070000000  0.5475660000000  0.4695630000000 1.0
C      1  0.3966340000000  0.5469630000000  0.7206010000000 1.0
C      1  0.6354680000000  0.5987300000000  0.3704470000000 1.0
C      1  0.4187070000000  0.5985000000000  0.3316580000000 1.0
C      1  0.3143870000000  0.5987880000000  0.5251580000000 1.0
C      1  0.4666030000000  0.5984640000000  0.6843470000000 1.0
C      1  0.6648190000000  0.5986280000000  0.5886880000000 1.0
C      1  0.6362350000000  0.4024000000000  0.3708620000000 1.0
C      1  0.4194380000000  0.4021180000000  0.3299480000000 1.0
C      1  0.3130740000000  0.4021300000000  0.5236460000000 1.0
C      1  0.4647020000000  0.4012130000000  0.6836990000000 1.0
C      1  0.6650690000000  0.4020650000000  0.5909560000000 1.0
C      1  0.6622620000000  0.6827320000000  0.5528920000000 1.0
C      1  0.6006400000000  0.6827190000000  0.3620190000000 1.0
C      1  0.3999420000000  0.6826490000000  0.3617320000000 1.0
C      1  0.3376130000000  0.6827550000000  0.5525710000000 1.0
C      1  0.4996450000000  0.6826250000000  0.6707290000000 1.0
C      1  0.6636150000000  0.3161410000000  0.5523290000000 1.0
C      1  0.6005280000000  0.3159850000000  0.3612550000000 1.0
C      1  0.3992920000000  0.3160880000000  0.3615090000000 1.0
C      1  0.3370240000000  0.3163020000000  0.5538320000000 1.0
C      1  0.4991850000000  0.3168960000000  0.6698870000000 1.0
END
