TITL C-1525613-7943-1930 -0.231770810861272 3375 -8283.66193747373 0 0 60 (Ci) n - 1
REM
REM in /home/nfs/bkarasulu/CARBON/AIRSS/Generating-Clusters/ReaxFF-fromJPCA2015/Units_Real/Try2-Higher-symm/Only-C60
REM
REM
REM
REM
REM
REM ./C.cell (863b2abdce7293c0672fb3ba77bf323a)
REM AIRSS Version 0.9.1 bugfix July 2018 build 013d7b7c2542+ Fri, 06 Jul 2018 19:26:36 +0100
REM compiler GCC version 9.2.1 20190827 (Red Hat 9.2.1-1)
REM options -cpp -mtune=generic -march=x86-64 -g -O0 -fpre-include=/usr/include/finclude/math-vector-fortran.h
REM seed 1014539278 214092633 689548215 -322895624 -635616284 -1414851031 -232504797 -775486402 57996097 -220806665 -1078852483 321762360 -481596457 -245906248 -679988663 -527388984 1642149183 124059269 -428479202 1508343560 912291951 -1452973074 -352346765 1732970914 2019817697 1302809455 767599027 -1173500252 -1258141752 -171639394 1377250025 -1924401819 -1429800642
REM
CELL 1.54180   15.00000   15.00000   15.00000   90.00000   90.00000   90.00000
LATT -1
SFAC C  
C      1  0.5770310000000  0.4678040000000  0.3005680000000 1.0
C      1  0.5818400000000  0.5190490000000  0.7005360000000 1.0
C      1  0.5548620000000  0.5636640000000  0.2998390000000 1.0
C      1  0.5070510000000  0.5835630000000  0.6999440000000 1.0
C      1  0.4563650000000  0.5715530000000  0.3006530000000 1.0
C      1  0.4230360000000  0.5321270000000  0.6992910000000 1.0
C      1  0.4182630000000  0.4809330000000  0.2996940000000 1.0
C      1  0.4451630000000  0.4361790000000  0.7002040000000 1.0
C      1  0.4930690000000  0.4164370000000  0.2998640000000 1.0
C      1  0.5435990000000  0.4284520000000  0.6991710000000 1.0
C      1  0.5131740000000  0.6934450000000  0.4596950000000 1.0
C      1  0.3993200000000  0.6634170000000  0.5400320000000 1.0
C      1  0.3245940000000  0.5724780000000  0.4593910000000 1.0
C      1  0.3129800000000  0.4547150000000  0.5405690000000 1.0
C      1  0.3751340000000  0.3522730000000  0.4594880000000 1.0
C      1  0.4868330000000  0.3063890000000  0.5403350000000 1.0
C      1  0.6010460000000  0.3362200000000  0.4599690000000 1.0
C      1  0.6753700000000  0.4274120000000  0.5405780000000 1.0
C      1  0.6870760000000  0.5455230000000  0.4594900000000 1.0
C      1  0.6249010000000  0.6479830000000  0.5404040000000 1.0
C      1  0.3379180000000  0.5634900000000  0.6509450000000 1.0
C      1  0.3315180000000  0.4556320000000  0.3482640000000 1.0
C      1  0.3899350000000  0.3655220000000  0.6507460000000 1.0
C      1  0.4899070000000  0.3274350000000  0.3503750000000 1.0
C      1  0.5936390000000  0.3536540000000  0.6497620000000 1.0
C      1  0.6619190000000  0.4365690000000  0.3491730000000 1.0
C      1  0.6685720000000  0.5444270000000  0.6517950000000 1.0
C      1  0.6101740000000  0.6344300000000  0.3493130000000 1.0
C      1  0.5101870000000  0.6724280000000  0.6493140000000 1.0
C      1  0.4064490000000  0.6464120000000  0.3501340000000 1.0
C      1  0.5783640000000  0.4636840000000  0.5664070000000 1.0
C      1  0.5825070000000  0.5141580000000  0.4347640000000 1.0
C      1  0.5567080000000  0.5595800000000  0.5656310000000 1.0
C      1  0.5088440000000  0.5814700000000  0.4346560000000 1.0
C      1  0.4583580000000  0.5743100000000  0.5660830000000 1.0
C      1  0.4217790000000  0.5361250000000  0.4339640000000 1.0
C      1  0.4174100000000  0.4860910000000  0.5657650000000 1.0
C      1  0.4428240000000  0.4402220000000  0.4339250000000 1.0
C      1  0.4909530000000  0.4185680000000  0.5648070000000 1.0
C      1  0.5410970000000  0.4257300000000  0.4346450000000 1.0
C      1  0.5715160000000  0.3020920000000  0.5678120000000 1.0
C      1  0.6727450000000  0.3824780000000  0.4315930000000 1.0
C      1  0.7080990000000  0.5068800000000  0.5684480000000 1.0
C      1  0.6644930000000  0.6276700000000  0.4327820000000 1.0
C      1  0.5581450000000  0.7008750000000  0.5665590000000 1.0
C      1  0.4285400000000  0.6979280000000  0.4321570000000 1.0
C      1  0.3272410000000  0.6175080000000  0.5684100000000 1.0
C      1  0.2918570000000  0.4930450000000  0.4316000000000 1.0
C      1  0.3357050000000  0.3725890000000  0.5672280000000 1.0
C      1  0.4419560000000  0.2994220000000  0.4333140000000 1.0
C      1  0.6742350000000  0.3797500000000  0.6099030000000 1.0
C      1  0.7105930000000  0.5051460000000  0.3899570000000 1.0
C      1  0.6664880000000  0.6280160000000  0.6102710000000 1.0
C      1  0.5593520000000  0.7010600000000  0.3903480000000 1.0
C      1  0.4297600000000  0.6990970000000  0.6097240000000 1.0
C      1  0.3259840000000  0.6201230000000  0.3901030000000 1.0
C      1  0.2892020000000  0.4949080000000  0.6101500000000 1.0
C      1  0.3333130000000  0.3718670000000  0.3895980000000 1.0
C      1  0.4407490000000  0.2989630000000  0.6096610000000 1.0
C      1  0.5702600000000  0.3010300000000  0.3902050000000 1.0
END
