TITL C-1525613-7943-6513 -0.0509874659698872 3375 -8810.06884687078 0 0 60 (C1) n - 1
REM
REM in /home/nfs/bkarasulu/CARBON/AIRSS/Generating-Clusters/ReaxFF-fromJPCA2015/Units_Real/Try2-Higher-symm/Only-C60
REM
REM
REM
REM
REM
REM ./C.cell (863b2abdce7293c0672fb3ba77bf323a)
REM AIRSS Version 0.9.1 bugfix July 2018 build 013d7b7c2542+ Fri, 06 Jul 2018 19:26:36 +0100
REM compiler GCC version 9.2.1 20190827 (Red Hat 9.2.1-1)
REM options -cpp -mtune=generic -march=x86-64 -g -O0 -fpre-include=/usr/include/finclude/math-vector-fortran.h
REM seed -1909235050 59137313 -1439906848 -1614755528 1745002361 -1584325078 1277005785 -17730288 -157480389 1526117523 1391215963 -1663188035 1052386920 -1397423411 2630137 -1684557452 -1921279612 598541906 -711391098 -1325165524 -90922978 -715366608 -1216022586 -1839956257 263628730 67639225 -944789539 1691346238 -9652620 -1308049526 -431644898 1782593947 178882671
REM
CELL 1.54180   15.00000   15.00000   15.00000   90.00000   90.00000   90.00000
LATT -1
SFAC C  
C      1  0.3694280000000  0.3362180000000  0.5421890000000 1.0
C      1  0.4136730000000  0.3416750000000  0.3877580000000 1.0
C      1  0.5803110000000  0.3548930000000  0.3768850000000 1.0
C      1  0.6245660000000  0.3437580000000  0.5349540000000 1.0
C      1  0.4991040000000  0.3489170000000  0.6359270000000 1.0
C      1  0.6304530000000  0.6647870000000  0.5412830000000 1.0
C      1  0.5866630000000  0.6582390000000  0.3870700000000 1.0
C      1  0.4199690000000  0.6449950000000  0.3769590000000 1.0
C      1  0.3775200000000  0.6574110000000  0.5352440000000 1.0
C      1  0.5020720000000  0.6511430000000  0.6377560000000 1.0
C      1  0.3748580000000  0.4036890000000  0.6756850000000 1.0
C      1  0.2690760000000  0.3830310000000  0.4545930000000 1.0
C      1  0.4613980000000  0.4067970000000  0.2738030000000 1.0
C      1  0.6930190000000  0.4194690000000  0.4314540000000 1.0
C      1  0.6212560000000  0.4011240000000  0.6717670000000 1.0
C      1  0.6232630000000  0.5969010000000  0.6757990000000 1.0
C      1  0.7309490000000  0.6168950000000  0.4541390000000 1.0
C      1  0.5386410000000  0.5930900000000  0.2733900000000 1.0
C      1  0.3073260000000  0.5807110000000  0.4319840000000 1.0
C      1  0.3786850000000  0.5979330000000  0.6709310000000 1.0
C      1  0.6509930000000  0.3329300000000  0.4407190000000 1.0
C      1  0.5914190000000  0.3208740000000  0.6238500000000 1.0
C      1  0.4053680000000  0.3221940000000  0.6326710000000 1.0
C      1  0.3416180000000  0.3153380000000  0.4497020000000 1.0
C      1  0.4934690000000  0.3326810000000  0.3314110000000 1.0
C      1  0.3497180000000  0.6671080000000  0.4410850000000 1.0
C      1  0.4092620000000  0.6788310000000  0.6249860000000 1.0
C      1  0.5955310000000  0.6790990000000  0.6318340000000 1.0
C      1  0.6588310000000  0.6848980000000  0.4487490000000 1.0
C      1  0.5066400000000  0.6671720000000  0.3311050000000 1.0
C      1  0.4306240000000  0.5778390000000  0.5220050000000 1.0
C      1  0.4583620000000  0.5741630000000  0.4312110000000 1.0
C      1  0.5535010000000  0.5813850000000  0.4348270000000 1.0
C      1  0.5803080000000  0.5834230000000  0.5255240000000 1.0
C      1  0.5046730000000  0.5641460000000  0.5842930000000 1.0
C      1  0.5705510000000  0.4220140000000  0.5216050000000 1.0
C      1  0.5420520000000  0.4256760000000  0.4313340000000 1.0
C      1  0.4468850000000  0.4186440000000  0.4354120000000 1.0
C      1  0.4201600000000  0.4169920000000  0.5260620000000 1.0
C      1  0.4966400000000  0.4356150000000  0.5840840000000 1.0
C      1  0.3190210000000  0.5139660000000  0.3528810000000 1.0
C      1  0.6083390000000  0.5128820000000  0.2886970000000 1.0
C      1  0.7353900000000  0.5513430000000  0.5334420000000 1.0
C      1  0.5510080000000  0.5464780000000  0.7235650000000 1.0
C      1  0.3104160000000  0.5490110000000  0.6194210000000 1.0
C      1  0.6812040000000  0.4860780000000  0.3522090000000 1.0
C      1  0.3916530000000  0.4869940000000  0.2891150000000 1.0
C      1  0.2640400000000  0.4486800000000  0.5336540000000 1.0
C      1  0.4460160000000  0.4521000000000  0.7245560000000 1.0
C      1  0.6880660000000  0.4511700000000  0.6189670000000 1.0
C      1  0.2795860000000  0.5418570000000  0.5190370000000 1.0
C      1  0.4538960000000  0.5538460000000  0.2701040000000 1.0
C      1  0.6971510000000  0.5698780000000  0.3816460000000 1.0
C      1  0.6950920000000  0.5464540000000  0.6265140000000 1.0
C      1  0.4479190000000  0.5479670000000  0.7239340000000 1.0
C      1  0.7203240000000  0.4580930000000  0.5185780000000 1.0
C      1  0.5461580000000  0.4458800000000  0.2700990000000 1.0
C      1  0.3031480000000  0.4300710000000  0.3821610000000 1.0
C      1  0.3029970000000  0.4533720000000  0.6273600000000 1.0
C      1  0.5497440000000  0.4511830000000  0.7220190000000 1.0
END
