TITL C-1525613-7943-6625 0.160832257418512 3375 -8850.63386995633 0 0 60 (C1) n - 1
REM
REM in /home/nfs/bkarasulu/CARBON/AIRSS/Generating-Clusters/ReaxFF-fromJPCA2015/Units_Real/Try2-Higher-symm/Only-C60
REM
REM
REM
REM
REM
REM ./C.cell (863b2abdce7293c0672fb3ba77bf323a)
REM AIRSS Version 0.9.1 bugfix July 2018 build 013d7b7c2542+ Fri, 06 Jul 2018 19:26:36 +0100
REM compiler GCC version 9.2.1 20190827 (Red Hat 9.2.1-1)
REM options -cpp -mtune=generic -march=x86-64 -g -O0 -fpre-include=/usr/include/finclude/math-vector-fortran.h
REM seed 586594643 267165734 1585693288 1487274027 83651574 -1763153699 -2107256498 573820783 -1669747746 -1624578715 889802258 -2012536869 -1583104306 -564863546 -1482423100 -1819724400 -73038402 -1021576345 513864152 -20975431 818060264 -371262076 1752991932 279556194 958483741 1379888755 -1977869327 -483834322 1837633131 -509671143 801595538 -1624444637 792578052
REM
CELL 1.54180   15.00000   15.00000   15.00000   90.00000   90.00000   90.00000
LATT -1
SFAC C  
C      1  0.3438080000000  0.4211930000000  0.6239400000000 1.0
C      1  0.3411530000000  0.3405720000000  0.4630620000000 1.0
C      1  0.3606070000000  0.4863080000000  0.3508990000000 1.0
C      1  0.3411740000000  0.6507070000000  0.4372990000000 1.0
C      1  0.3407020000000  0.5976550000000  0.6121760000000 1.0
C      1  0.6564130000000  0.5788360000000  0.6239200000000 1.0
C      1  0.6601550000000  0.6584040000000  0.4626850000000 1.0
C      1  0.6392190000000  0.5133040000000  0.3503580000000 1.0
C      1  0.6536590000000  0.3509060000000  0.4389270000000 1.0
C      1  0.6596960000000  0.4014750000000  0.6120450000000 1.0
C      1  0.4129750000000  0.4644230000000  0.5615680000000 1.0
C      1  0.4549430000000  0.4294450000000  0.4827560000000 1.0
C      1  0.4278320000000  0.4988040000000  0.4213570000000 1.0
C      1  0.4498970000000  0.5800850000000  0.4734670000000 1.0
C      1  0.4056080000000  0.5520050000000  0.5519300000000 1.0
C      1  0.5865830000000  0.5366930000000  0.5610070000000 1.0
C      1  0.5457390000000  0.5712090000000  0.4840210000000 1.0
C      1  0.5697580000000  0.5025380000000  0.4214280000000 1.0
C      1  0.5489180000000  0.4270810000000  0.4746820000000 1.0
C      1  0.5921160000000  0.4473470000000  0.5521080000000 1.0
C      1  0.7761620000000  0.4911940000000  0.5776480000000 1.0
C      1  0.7741410000000  0.4173950000000  0.5101380000000 1.0
C      1  0.7646380000000  0.4561220000000  0.4194450000000 1.0
C      1  0.7680170000000  0.5547000000000  0.4306120000000 1.0
C      1  0.7751910000000  0.5769160000000  0.5269820000000 1.0
C      1  0.2237170000000  0.5078160000000  0.5778420000000 1.0
C      1  0.2249960000000  0.5812410000000  0.5101750000000 1.0
C      1  0.2348140000000  0.5426220000000  0.4195460000000 1.0
C      1  0.2326990000000  0.4440750000000  0.4304770000000 1.0
C      1  0.2253200000000  0.4222650000000  0.5269450000000 1.0
C      1  0.4284640000000  0.2905600000000  0.4563140000000 1.0
C      1  0.4632620000000  0.4666360000000  0.2957680000000 1.0
C      1  0.4322810000000  0.6992890000000  0.4452600000000 1.0
C      1  0.4321720000000  0.6215240000000  0.6645670000000 1.0
C      1  0.4326330000000  0.3822010000000  0.6706870000000 1.0
C      1  0.5728830000000  0.7086000000000  0.4568640000000 1.0
C      1  0.5378200000000  0.5342240000000  0.2949840000000 1.0
C      1  0.5671630000000  0.2989360000000  0.4452150000000 1.0
C      1  0.5685460000000  0.3781880000000  0.6659090000000 1.0
C      1  0.5680400000000  0.6175110000000  0.6701030000000 1.0
C      1  0.7037030000000  0.4885660000000  0.6369320000000 1.0
C      1  0.7010650000000  0.3588300000000  0.5225970000000 1.0
C      1  0.6840050000000  0.4246260000000  0.3795130000000 1.0
C      1  0.6891530000000  0.5934250000000  0.3948870000000 1.0
C      1  0.7018810000000  0.6338530000000  0.5469860000000 1.0
C      1  0.2961730000000  0.5108230000000  0.6371910000000 1.0
C      1  0.2975770000000  0.6406100000000  0.5220450000000 1.0
C      1  0.3143470000000  0.5760970000000  0.3791580000000 1.0
C      1  0.3116900000000  0.4052380000000  0.3952130000000 1.0
C      1  0.2989090000000  0.3657170000000  0.5470850000000 1.0
C      1  0.4983560000000  0.5550960000000  0.6951260000000 1.0
C      1  0.4991710000000  0.3285360000000  0.6192470000000 1.0
C      1  0.4925770000000  0.3052580000000  0.3788390000000 1.0
C      1  0.5211270000000  0.6157790000000  0.3288900000000 1.0
C      1  0.5002410000000  0.7069220000000  0.5200950000000 1.0
C      1  0.5020350000000  0.4450100000000  0.6959210000000 1.0
C      1  0.5017160000000  0.6718640000000  0.6175660000000 1.0
C      1  0.5095770000000  0.6943390000000  0.3794590000000 1.0
C      1  0.4806740000000  0.3850310000000  0.3290770000000 1.0
C      1  0.5021110000000  0.2933740000000  0.5190580000000 1.0
END
