TITL C-1525613-7943-4726 -0.0556027663855523 3375 -8966.56986208633 0 0 60 (C1) n - 1
REM
REM in /home/nfs/bkarasulu/CARBON/AIRSS/Generating-Clusters/ReaxFF-fromJPCA2015/Units_Real/Try2-Higher-symm/Only-C60
REM
REM
REM
REM
REM
REM ./C.cell (863b2abdce7293c0672fb3ba77bf323a)
REM AIRSS Version 0.9.1 bugfix July 2018 build 013d7b7c2542+ Fri, 06 Jul 2018 19:26:36 +0100
REM compiler GCC version 9.2.1 20190827 (Red Hat 9.2.1-1)
REM options -cpp -mtune=generic -march=x86-64 -g -O0 -fpre-include=/usr/include/finclude/math-vector-fortran.h
REM seed 824162146 -141070314 -1089019602 998164720 -547251367 1211359757 -1470538650 -834891968 1892469005 931921102 -2134030219 -1235902628 -1722190839 -1349682687 -1296578039 1301475211 1262179062 -670987558 -1494618616 -258974442 1487171879 -1178056999 -1384669178 -1063468820 -1108894151 -1322659874 277825404 -174067999 -556560393 2021075414 -2034641701 490808521 -2031730355
REM
CELL 1.54180   15.00000   15.00000   15.00000   90.00000   90.00000   90.00000
LATT -1
SFAC C  
C      1  0.4627630000000  0.3150020000000  0.3564300000000 1.0
C      1  0.3886110000000  0.2775980000000  0.4099270000000 1.0
C      1  0.3501530000000  0.3041790000000  0.4952920000000 1.0
C      1  0.3745510000000  0.3236970000000  0.5821000000000 1.0
C      1  0.4409840000000  0.3069140000000  0.6521460000000 1.0
C      1  0.5373290000000  0.3149320000000  0.6448460000000 1.0
C      1  0.6121540000000  0.2742690000000  0.5915120000000 1.0
C      1  0.6509500000000  0.3022260000000  0.5052530000000 1.0
C      1  0.6262770000000  0.3231180000000  0.4175670000000 1.0
C      1  0.5592960000000  0.3066270000000  0.3476550000000 1.0
C      1  0.5357630000000  0.7406680000000  0.7413830000000 1.0
C      1  0.6296320000000  0.7127050000000  0.7309080000000 1.0
C      1  0.6524410000000  0.7388450000000  0.5286710000000 1.0
C      1  0.6982540000000  0.6891660000000  0.4444920000000 1.0
C      1  0.6517860000000  0.6868730000000  0.3584470000000 1.0
C      1  0.4646210000000  0.7409830000000  0.2588060000000 1.0
C      1  0.3706510000000  0.7134140000000  0.2689690000000 1.0
C      1  0.3472980000000  0.7387750000000  0.4710880000000 1.0
C      1  0.3016900000000  0.6891610000000  0.5553520000000 1.0
C      1  0.3483270000000  0.6869650000000  0.6411220000000 1.0
C      1  0.3875040000000  0.5284640000000  0.6775390000000 1.0
C      1  0.5070220000000  0.4738640000000  0.7898620000000 1.0
C      1  0.6425000000000  0.5404000000000  0.7078520000000 1.0
C      1  0.7580570000000  0.4856490000000  0.5950040000000 1.0
C      1  0.7118120000000  0.5139190000000  0.4654670000000 1.0
C      1  0.6117490000000  0.5282580000000  0.3232330000000 1.0
C      1  0.4937180000000  0.4742080000000  0.2083250000000 1.0
C      1  0.3577260000000  0.5410210000000  0.2918410000000 1.0
C      1  0.2439770000000  0.4847560000000  0.4050090000000 1.0
C      1  0.2881830000000  0.5142170000000  0.5346350000000 1.0
C      1  0.4004310000000  0.3779190000000  0.3146480000000 1.0
C      1  0.3255180000000  0.3374050000000  0.3645920000000 1.0
C      1  0.2870700000000  0.3624340000000  0.4519020000000 1.0
C      1  0.3351610000000  0.3897970000000  0.6349100000000 1.0
C      1  0.3928310000000  0.3728590000000  0.7076500000000 1.0
C      1  0.5991040000000  0.3778240000000  0.6831430000000 1.0
C      1  0.6711450000000  0.3369130000000  0.6350610000000 1.0
C      1  0.7117500000000  0.3626560000000  0.5513970000000 1.0
C      1  0.6649170000000  0.3900550000000  0.3645240000000 1.0
C      1  0.6066030000000  0.3727390000000  0.2916980000000 1.0
C      1  0.2970850000000  0.5119750000000  0.3493060000000 1.0
C      1  0.2406580000000  0.4419400000000  0.4875400000000 1.0
C      1  0.3307780000000  0.4830880000000  0.6153320000000 1.0
C      1  0.4203410000000  0.4614100000000  0.7401550000000 1.0
C      1  0.5895500000000  0.4610370000000  0.7376000000000 1.0
C      1  0.7046550000000  0.5128350000000  0.6509660000000 1.0
C      1  0.7595460000000  0.4432300000000  0.5131310000000 1.0
C      1  0.6686300000000  0.4826320000000  0.3845990000000 1.0
C      1  0.5789130000000  0.4615320000000  0.2598700000000 1.0
C      1  0.4107680000000  0.4608470000000  0.2607530000000 1.0
C      1  0.6464480000000  0.6515810000000  0.5698260000000 1.0
C      1  0.6998110000000  0.6073080000000  0.4987160000000 1.0
C      1  0.5833070000000  0.6224460000000  0.3241880000000 1.0
C      1  0.4916630000000  0.6551760000000  0.3086650000000 1.0
C      1  0.3970390000000  0.6278760000000  0.3303530000000 1.0
C      1  0.3531200000000  0.6515300000000  0.4299500000000 1.0
C      1  0.2997220000000  0.6071510000000  0.5012820000000 1.0
C      1  0.4164650000000  0.6225110000000  0.6763270000000 1.0
C      1  0.5083930000000  0.6548280000000  0.6916800000000 1.0
C      1  0.6027960000000  0.6275920000000  0.6695040000000 1.0
END
