TITL C-1525613-7943-1933 -0.00259091711847065 3375 -9276.72371006855 0 0 60 (C2v) n - 1
REM
REM in /home/nfs/bkarasulu/CARBON/AIRSS/Generating-Clusters/ReaxFF-fromJPCA2015/Units_Real/Try2-Higher-symm/Only-C60
REM
REM
REM
REM
REM
REM ./C.cell (863b2abdce7293c0672fb3ba77bf323a)
REM AIRSS Version 0.9.1 bugfix July 2018 build 013d7b7c2542+ Fri, 06 Jul 2018 19:26:36 +0100
REM compiler GCC version 9.2.1 20190827 (Red Hat 9.2.1-1)
REM options -cpp -mtune=generic -march=x86-64 -g -O0 -fpre-include=/usr/include/finclude/math-vector-fortran.h
REM seed -778729478 27563915 -557830620 -525571581 1766209004 -1258001227 668377836 1881199191 1230333731 -464114149 676262527 -605307148 -1465328975 -2134717741 -352175500 467732450 1375048160 147278979 1150952340 -1051750340 -1737799922 297858579 -194651951 1920255083 638652557 -1653964096 1008839902 -932277401 -1526755198 1967284546 -1254430104 -487572949 -2103649469
REM
CELL 1.54180   15.00000   15.00000   15.00000   90.00000   90.00000   90.00000
LATT -1
SFAC C  
C      1  0.3225240000000  0.5692250000000  0.7035380000000 1.0
C      1  0.2474930000000  0.5523980000000  0.5685110000000 1.0
C      1  0.2583720000000  0.5574510000000  0.3933100000000 1.0
C      1  0.3613610000000  0.5574320000000  0.2754680000000 1.0
C      1  0.5334820000000  0.5522820000000  0.2407330000000 1.0
C      1  0.6774760000000  0.5692250000000  0.2964620000000 1.0
C      1  0.7525070000000  0.5523980000000  0.4314890000000 1.0
C      1  0.7416280000000  0.5574510000000  0.6066900000000 1.0
C      1  0.6386390000000  0.5574320000000  0.7245320000000 1.0
C      1  0.4665180000000  0.5522820000000  0.7592670000000 1.0
C      1  0.4883470000000  0.3218190000000  0.6544970000000 1.0
C      1  0.3955580000000  0.3108170000000  0.6199000000000 1.0
C      1  0.3488360000000  0.3221540000000  0.5326480000000 1.0
C      1  0.3508120000000  0.3229310000000  0.4347780000000 1.0
C      1  0.4150340000000  0.3229270000000  0.3611680000000 1.0
C      1  0.5116530000000  0.3218190000000  0.3455030000000 1.0
C      1  0.6044420000000  0.3108170000000  0.3801000000000 1.0
C      1  0.6511640000000  0.3221540000000  0.4673520000000 1.0
C      1  0.6491880000000  0.3229310000000  0.5652220000000 1.0
C      1  0.5849660000000  0.3229270000000  0.6388320000000 1.0
C      1  0.5959920000000  0.3908880000000  0.7099350000000 1.0
C      1  0.4960300000000  0.3939160000000  0.7232030000000 1.0
C      1  0.3494150000000  0.3756180000000  0.6726310000000 1.0
C      1  0.2796900000000  0.3941540000000  0.5343560000000 1.0
C      1  0.2789260000000  0.3909210000000  0.4335910000000 1.0
C      1  0.4040080000000  0.3908880000000  0.2900650000000 1.0
C      1  0.5039700000000  0.3939160000000  0.2767970000000 1.0
C      1  0.6505850000000  0.3756180000000  0.3273690000000 1.0
C      1  0.7203100000000  0.3941540000000  0.4656440000000 1.0
C      1  0.7210740000000  0.3909210000000  0.5664090000000 1.0
C      1  0.3188990000000  0.6137700000000  0.3423110000000 1.0
C      1  0.4506820000000  0.5938260000000  0.2742360000000 1.0
C      1  0.5979490000000  0.6174150000000  0.2768840000000 1.0
C      1  0.7077500000000  0.6174410000000  0.3725470000000 1.0
C      1  0.7307460000000  0.5938550000000  0.5180880000000 1.0
C      1  0.6811010000000  0.6137700000000  0.6576890000000 1.0
C      1  0.5493180000000  0.5938260000000  0.7257640000000 1.0
C      1  0.4020510000000  0.6174150000000  0.7231160000000 1.0
C      1  0.2922500000000  0.6174410000000  0.6274530000000 1.0
C      1  0.2692540000000  0.5938550000000  0.4819120000000 1.0
C      1  0.4669270000000  0.6524700000000  0.3504620000000 1.0
C      1  0.5630340000000  0.6683650000000  0.3541860000000 1.0
C      1  0.6361180000000  0.6685810000000  0.4177390000000 1.0
C      1  0.6530930000000  0.6526580000000  0.5123650000000 1.0
C      1  0.6180320000000  0.6645090000000  0.6027710000000 1.0
C      1  0.5330730000000  0.6524700000000  0.6495380000000 1.0
C      1  0.4369660000000  0.6683650000000  0.6458140000000 1.0
C      1  0.3638820000000  0.6685810000000  0.5822610000000 1.0
C      1  0.3469070000000  0.6526580000000  0.4876350000000 1.0
C      1  0.3819680000000  0.6645090000000  0.3972290000000 1.0
C      1  0.6598050000000  0.4637330000000  0.7037830000000 1.0
C      1  0.4334030000000  0.4656040000000  0.7353190000000 1.0
C      1  0.3243470000000  0.4632960000000  0.7011030000000 1.0
C      1  0.2757920000000  0.4657600000000  0.5980670000000 1.0
C      1  0.2762600000000  0.4637850000000  0.3694900000000 1.0
C      1  0.3401950000000  0.4637330000000  0.2962170000000 1.0
C      1  0.5665970000000  0.4656040000000  0.2646810000000 1.0
C      1  0.6756530000000  0.4632960000000  0.2988970000000 1.0
C      1  0.7242080000000  0.4657600000000  0.4019330000000 1.0
C      1  0.7237400000000  0.4637850000000  0.6305100000000 1.0
END
