TITL C-1525613-7943-6814 0.0263548834831556 3375 -8601.210713606 0 0 60 (Cs) n - 1
REM
REM in /home/nfs/bkarasulu/CARBON/AIRSS/Generating-Clusters/ReaxFF-fromJPCA2015/Units_Real/Try2-Higher-symm/Only-C60
REM
REM
REM
REM
REM
REM ./C.cell (863b2abdce7293c0672fb3ba77bf323a)
REM AIRSS Version 0.9.1 bugfix July 2018 build 013d7b7c2542+ Fri, 06 Jul 2018 19:26:36 +0100
REM compiler GCC version 9.2.1 20190827 (Red Hat 9.2.1-1)
REM options -cpp -mtune=generic -march=x86-64 -g -O0 -fpre-include=/usr/include/finclude/math-vector-fortran.h
REM seed 322745786 -1184375320 -1139755592 1479583472 -1887907091 1364416750 2086802415 1990171436 -983555054 2076911977 -413125714 1876431822 690543502 -1546898849 -539749943 -316636922 -1230969909 -1195022971 1727719916 -997232469 -576673307 1153492636 -1075646969 -773893779 -498173434 -328742208 -1695528657 1031132253 1980148136 1966681172 -1597680019 -1839259618 35815117
REM
CELL 1.54180   15.00000   15.00000   15.00000   90.00000   90.00000   90.00000
LATT -1
SFAC C  
C      1  0.6406050000000  0.6848830000000  0.4905010000000 1.0
C      1  0.5529450000000  0.6856020000000  0.6299030000000 1.0
C      1  0.3937810000000  0.6846270000000  0.5892230000000 1.0
C      1  0.3814260000000  0.6865290000000  0.4231290000000 1.0
C      1  0.5372410000000  0.6872250000000  0.3614710000000 1.0
C      1  0.6406830000000  0.3151380000000  0.4904650000000 1.0
C      1  0.5528620000000  0.3143230000000  0.6297960000000 1.0
C      1  0.3937220000000  0.3153420000000  0.5892180000000 1.0
C      1  0.3814760000000  0.3135810000000  0.4231290000000 1.0
C      1  0.5372760000000  0.3128280000000  0.3614670000000 1.0
C      1  0.5000800000000  0.4509340000000  0.7181240000000 1.0
C      1  0.2941460000000  0.4520850000000  0.5707900000000 1.0
C      1  0.3677140000000  0.4511880000000  0.3241600000000 1.0
C      1  0.6293870000000  0.4501730000000  0.3234010000000 1.0
C      1  0.7073470000000  0.4511670000000  0.5680240000000 1.0
C      1  0.5001060000000  0.5490910000000  0.7179870000000 1.0
C      1  0.2940510000000  0.5479560000000  0.5708430000000 1.0
C      1  0.3675550000000  0.5488730000000  0.3241000000000 1.0
C      1  0.6293020000000  0.5497310000000  0.3234860000000 1.0
C      1  0.7074200000000  0.5489250000000  0.5681230000000 1.0
C      1  0.4729540000000  0.7097040000000  0.6089560000000 1.0
C      1  0.3881160000000  0.7085780000000  0.5064380000000 1.0
C      1  0.4596110000000  0.7109090000000  0.3939980000000 1.0
C      1  0.5884520000000  0.7122140000000  0.4271090000000 1.0
C      1  0.5966130000000  0.7106350000000  0.5598340000000 1.0
C      1  0.4729020000000  0.2902000000000  0.6089530000000 1.0
C      1  0.3880680000000  0.2913600000000  0.5064160000000 1.0
C      1  0.4596080000000  0.2890950000000  0.3940540000000 1.0
C      1  0.5884900000000  0.2878130000000  0.4270980000000 1.0
C      1  0.5965930000000  0.2894130000000  0.5598180000000 1.0
C      1  0.5689410000000  0.5509840000000  0.4596680000000 1.0
C      1  0.5534290000000  0.5531530000000  0.5572560000000 1.0
C      1  0.4551690000000  0.5498290000000  0.5704470000000 1.0
C      1  0.4115920000000  0.5497680000000  0.4839540000000 1.0
C      1  0.4807300000000  0.5525310000000  0.4151660000000 1.0
C      1  0.5689070000000  0.4485750000000  0.4598160000000 1.0
C      1  0.5535230000000  0.4472310000000  0.5575420000000 1.0
C      1  0.4552950000000  0.4500400000000  0.5704930000000 1.0
C      1  0.4116870000000  0.4502880000000  0.4838870000000 1.0
C      1  0.4805620000000  0.4476330000000  0.4152320000000 1.0
C      1  0.6908920000000  0.5987560000000  0.4838710000000 1.0
C      1  0.5755670000000  0.5997800000000  0.6777380000000 1.0
C      1  0.3521810000000  0.6013700000000  0.6300460000000 1.0
C      1  0.3324110000000  0.6058580000000  0.3931960000000 1.0
C      1  0.5502950000000  0.6044930000000  0.3112180000000 1.0
C      1  0.6910630000000  0.4012320000000  0.4837820000000 1.0
C      1  0.5754630000000  0.4002330000000  0.6777100000000 1.0
C      1  0.3521930000000  0.3986120000000  0.6300130000000 1.0
C      1  0.3325320000000  0.3941790000000  0.3931770000000 1.0
C      1  0.5504470000000  0.3954590000000  0.3110610000000 1.0
C      1  0.2963320000000  0.4457230000000  0.4700020000000 1.0
C      1  0.4663610000000  0.4464060000000  0.2995050000000 1.0
C      1  0.6954820000000  0.4512450000000  0.3981070000000 1.0
C      1  0.6581980000000  0.4510100000000  0.6553130000000 1.0
C      1  0.4019390000000  0.4510380000000  0.6993540000000 1.0
C      1  0.2964690000000  0.5542310000000  0.4700720000000 1.0
C      1  0.4662950000000  0.5535240000000  0.2994330000000 1.0
C      1  0.6952410000000  0.5486550000000  0.3982530000000 1.0
C      1  0.6582670000000  0.5490130000000  0.6553770000000 1.0
C      1  0.4020070000000  0.5490330000000  0.6992920000000 1.0
END
