TITL C-1525613-7943-6403 -0.0484884266182596 3375 -8680.1402776066 0 0 60 (C5) n - 1
REM
REM in /home/nfs/bkarasulu/CARBON/AIRSS/Generating-Clusters/ReaxFF-fromJPCA2015/Units_Real/Try2-Higher-symm/Only-C60
REM
REM
REM
REM
REM
REM ./C.cell (863b2abdce7293c0672fb3ba77bf323a)
REM AIRSS Version 0.9.1 bugfix July 2018 build 013d7b7c2542+ Fri, 06 Jul 2018 19:26:36 +0100
REM compiler GCC version 9.2.1 20190827 (Red Hat 9.2.1-1)
REM options -cpp -mtune=generic -march=x86-64 -g -O0 -fpre-include=/usr/include/finclude/math-vector-fortran.h
REM seed -166461998 -899209624 392920092 535392255 -774597568 -2089559022 -268078085 925018389 -2034044877 2022457666 264835478 2130362178 1284067876 351770391 216588150 -698276816 1299243263 -1937687663 -1241554693 1527534313 -1287528773 -1866599795 139614866 362990834 1809121411 -1295226211 -152324896 -1109698421 1052644196 493930172 2032815895 1666961291 2054458195
REM
CELL 1.54180   15.00000   15.00000   15.00000   90.00000   90.00000   90.00000
LATT -1
SFAC C  
C      1  0.6074960000000  0.2969700000000  0.3822400000000 1.0
C      1  0.6074960000000  0.3253290000000  0.6568190000000 1.0
C      1  0.6083720000000  0.5953040000000  0.7149470000000 1.0
C      1  0.6082960000000  0.7340460000000  0.4758330000000 1.0
C      1  0.6089700000000  0.5492780000000  0.2696010000000 1.0
C      1  0.6073190000000  0.7029660000000  0.3823060000000 1.0
C      1  0.6081600000000  0.6748680000000  0.6569980000000 1.0
C      1  0.6083450000000  0.4047760000000  0.7151620000000 1.0
C      1  0.6084530000000  0.2658910000000  0.4757310000000 1.0
C      1  0.6089660000000  0.4506490000000  0.2695810000000 1.0
C      1  0.4005030000000  0.7201370000000  0.4812750000000 1.0
C      1  0.4007480000000  0.5496820000000  0.2845360000000 1.0
C      1  0.4010150000000  0.3110610000000  0.3869930000000 1.0
C      1  0.4011020000000  0.3345690000000  0.6445700000000 1.0
C      1  0.4002830000000  0.5859470000000  0.7044990000000 1.0
C      1  0.4005660000000  0.2793840000000  0.4809320000000 1.0
C      1  0.4007530000000  0.4503490000000  0.2846030000000 1.0
C      1  0.4010250000000  0.6887710000000  0.3872060000000 1.0
C      1  0.4010130000000  0.6658260000000  0.6447600000000 1.0
C      1  0.4004070000000  0.4143630000000  0.7033940000000 1.0
C      1  0.6592270000000  0.4526540000000  0.6463050000000 1.0
C      1  0.6590640000000  0.6244250000000  0.5902090000000 1.0
C      1  0.6585650000000  0.6241120000000  0.4095490000000 1.0
C      1  0.6589570000000  0.4523920000000  0.3538250000000 1.0
C      1  0.6591250000000  0.3462730000000  0.5002430000000 1.0
C      1  0.6592360000000  0.5473260000000  0.6462850000000 1.0
C      1  0.6586260000000  0.3755840000000  0.5902250000000 1.0
C      1  0.6585920000000  0.3759160000000  0.4096130000000 1.0
C      1  0.6589680000000  0.5476260000000  0.3538140000000 1.0
C      1  0.6592110000000  0.6537200000000  0.5001950000000 1.0
C      1  0.5255770000000  0.7169220000000  0.6235100000000 1.0
C      1  0.5253800000000  0.6833670000000  0.3315370000000 1.0
C      1  0.5273620000000  0.3961150000000  0.2710740000000 1.0
C      1  0.5274940000000  0.2495590000000  0.5291430000000 1.0
C      1  0.5273280000000  0.4506980000000  0.7463900000000 1.0
C      1  0.5252720000000  0.2829850000000  0.6228680000000 1.0
C      1  0.5254650000000  0.3165160000000  0.3314850000000 1.0
C      1  0.5273390000000  0.6038050000000  0.2709200000000 1.0
C      1  0.5275430000000  0.7497270000000  0.5295140000000 1.0
C      1  0.5258670000000  0.5504980000000  0.7449910000000 1.0
C      1  0.3247590000000  0.3711760000000  0.4066800000000 1.0
C      1  0.3250490000000  0.3717820000000  0.5932560000000 1.0
C      1  0.3255920000000  0.5500610000000  0.6503790000000 1.0
C      1  0.3253910000000  0.6590880000000  0.4987470000000 1.0
C      1  0.3244960000000  0.5485450000000  0.3478920000000 1.0
C      1  0.3245610000000  0.6286180000000  0.4066630000000 1.0
C      1  0.3258280000000  0.6275500000000  0.5936750000000 1.0
C      1  0.3253570000000  0.4496320000000  0.6505220000000 1.0
C      1  0.3254910000000  0.3406530000000  0.4987050000000 1.0
C      1  0.3246550000000  0.4514280000000  0.3478430000000 1.0
C      1  0.4815850000000  0.3342490000000  0.5052820000000 1.0
C      1  0.4810900000000  0.4547940000000  0.6587290000000 1.0
C      1  0.4810590000000  0.6386060000000  0.5956670000000 1.0
C      1  0.4790550000000  0.6324640000000  0.3964590000000 1.0
C      1  0.4801720000000  0.4435570000000  0.3438230000000 1.0
C      1  0.4815230000000  0.6648790000000  0.5058210000000 1.0
C      1  0.4816150000000  0.5480370000000  0.6613590000000 1.0
C      1  0.4799050000000  0.3605440000000  0.5947430000000 1.0
C      1  0.4793670000000  0.3673380000000  0.3965820000000 1.0
C      1  0.4799670000000  0.5566120000000  0.3434900000000 1.0
END
