TITL C-1525613-7943-1858 -0.0147480268016912 3375 -8091.57497907131 0 0 60 (Cs) n - 1
REM
REM in /home/nfs/bkarasulu/CARBON/AIRSS/Generating-Clusters/ReaxFF-fromJPCA2015/Units_Real/Try2-Higher-symm/Only-C60
REM
REM
REM
REM
REM
REM ./C.cell (863b2abdce7293c0672fb3ba77bf323a)
REM AIRSS Version 0.9.1 bugfix July 2018 build 013d7b7c2542+ Fri, 06 Jul 2018 19:26:36 +0100
REM compiler GCC version 9.2.1 20190827 (Red Hat 9.2.1-1)
REM options -cpp -mtune=generic -march=x86-64 -g -O0 -fpre-include=/usr/include/finclude/math-vector-fortran.h
REM seed -457218176 -1458698341 1297411898 -1197541423 -1282695430 -461158857 942837466 1327080290 -1930369317 -1165827058 1480740125 -307156595 2001401545 -35524716 1307082586 1478176507 55659569 -952404881 -1855292784 -398036214 -1863686783 -1831854627 -1311319231 -885163144 -1364198921 973525278 1751890057 1594951141 -790377169 852011749 -653994627 -882519054 305741073
REM
CELL 1.54180   15.00000   15.00000   15.00000   90.00000   90.00000   90.00000
LATT -1
SFAC C  
C      1  0.2833850000000  0.5162910000000  0.5587820000000 1.0
C      1  0.4495860000000  0.7103570000000  0.5580850000000 1.0
C      1  0.6851570000000  0.6145030000000  0.5587030000000 1.0
C      1  0.6652310000000  0.3582830000000  0.5583930000000 1.0
C      1  0.4167650000000  0.3000120000000  0.5581510000000 1.0
C      1  0.2833120000000  0.5162930000000  0.4412490000000 1.0
C      1  0.4495870000000  0.7103700000000  0.4419200000000 1.0
C      1  0.6851640000000  0.6145040000000  0.4412960000000 1.0
C      1  0.6652420000000  0.3582750000000  0.4416060000000 1.0
C      1  0.4167510000000  0.3000050000000  0.4418360000000 1.0
C      1  0.4048510000000  0.6279060000000  0.3751690000000 1.0
C      1  0.5922090000000  0.6300470000000  0.3767350000000 1.0
C      1  0.6516640000000  0.4526830000000  0.3753020000000 1.0
C      1  0.5020020000000  0.3418020000000  0.3755980000000 1.0
C      1  0.3486480000000  0.4482500000000  0.3756660000000 1.0
C      1  0.4048570000000  0.6278630000000  0.6248090000000 1.0
C      1  0.5921950000000  0.6300390000000  0.6232570000000 1.0
C      1  0.6516360000000  0.4526860000000  0.6246750000000 1.0
C      1  0.5019790000000  0.3418410000000  0.6243820000000 1.0
C      1  0.3488750000000  0.4482940000000  0.6243300000000 1.0
C      1  0.4227410000000  0.4732890000000  0.5566970000000 1.0
C      1  0.4508800000000  0.5644450000000  0.5678240000000 1.0
C      1  0.5459810000000  0.5676670000000  0.5532970000000 1.0
C      1  0.5750290000000  0.4749460000000  0.5675740000000 1.0
C      1  0.5026940000000  0.4207020000000  0.5672290000000 1.0
C      1  0.4228160000000  0.4733100000000  0.4429290000000 1.0
C      1  0.4508840000000  0.5645290000000  0.4321920000000 1.0
C      1  0.5460050000000  0.5676880000000  0.4467100000000 1.0
C      1  0.5750850000000  0.4749460000000  0.4324550000000 1.0
C      1  0.5027400000000  0.4206470000000  0.4327710000000 1.0
C      1  0.6776340000000  0.2774660000000  0.6079520000000 1.0
C      1  0.3441340000000  0.2632360000000  0.6074240000000 1.0
C      1  0.2257770000000  0.5750870000000  0.6076750000000 1.0
C      1  0.4878510000000  0.7823000000000  0.6070850000000 1.0
C      1  0.7662960000000  0.5997060000000  0.6074100000000 1.0
C      1  0.6776500000000  0.2774600000000  0.3920500000000 1.0
C      1  0.3441450000000  0.2631760000000  0.3925760000000 1.0
C      1  0.2257480000000  0.5751330000000  0.3923200000000 1.0
C      1  0.4878540000000  0.7823100000000  0.3929150000000 1.0
C      1  0.7662980000000  0.5997130000000  0.3925920000000 1.0
C      1  0.5485920000000  0.5674900000000  0.3044550000000 1.0
C      1  0.5779930000000  0.4754470000000  0.2980000000000 1.0
C      1  0.4999460000000  0.4181560000000  0.2981280000000 1.0
C      1  0.4222900000000  0.4740280000000  0.3033570000000 1.0
C      1  0.4519370000000  0.5665370000000  0.2975330000000 1.0
C      1  0.5485730000000  0.5674860000000  0.6955380000000 1.0
C      1  0.5780050000000  0.4754310000000  0.7020070000000 1.0
C      1  0.4999290000000  0.4181790000000  0.7019120000000 1.0
C      1  0.4222240000000  0.4740070000000  0.6968980000000 1.0
C      1  0.4519280000000  0.5665090000000  0.7024970000000 1.0
C      1  0.7194000000000  0.5225380000000  0.4075720000000 1.0
C      1  0.5897620000000  0.2971180000000  0.4069350000000 1.0
C      1  0.3338400000000  0.3536380000000  0.4051710000000 1.0
C      1  0.3085240000000  0.6106650000000  0.4074330000000 1.0
C      1  0.5490720000000  0.7153240000000  0.4052510000000 1.0
C      1  0.7193870000000  0.5225390000000  0.5924300000000 1.0
C      1  0.5897470000000  0.2971390000000  0.5930700000000 1.0
C      1  0.3339030000000  0.3537050000000  0.5948700000000 1.0
C      1  0.3085370000000  0.6106870000000  0.5925700000000 1.0
C      1  0.5490720000000  0.7153190000000  0.5947530000000 1.0
END
