TITL C-1525613-7943-4690 -0.0146767796522182 3375 -9152.80945986491 0 0 60 (C1) n - 1
REM
REM in /home/nfs/bkarasulu/CARBON/AIRSS/Generating-Clusters/ReaxFF-fromJPCA2015/Units_Real/Try2-Higher-symm/Only-C60
REM
REM
REM
REM
REM
REM ./C.cell (863b2abdce7293c0672fb3ba77bf323a)
REM AIRSS Version 0.9.1 bugfix July 2018 build 013d7b7c2542+ Fri, 06 Jul 2018 19:26:36 +0100
REM compiler GCC version 9.2.1 20190827 (Red Hat 9.2.1-1)
REM options -cpp -mtune=generic -march=x86-64 -g -O0 -fpre-include=/usr/include/finclude/math-vector-fortran.h
REM seed 1349626349 1183741963 495131259 -1960416301 -1191087956 1432820587 938994798 2083354226 1530880789 -496420835 1732304407 -585083315 1273522630 2013859130 -897064341 1122652880 283996329 1757816215 1581161717 -1070246491 1054617344 -738046875 152651673 2007569822 520621693 595116345 405250824 50826039 -224226544 1464850690 65542484 2010904855 729646326
REM
CELL 1.54180   15.00000   15.00000   15.00000   90.00000   90.00000   90.00000
LATT -1
SFAC C  
C      1  0.4051780000000  0.2966220000000  0.5846090000000 1.0
C      1  0.3756850000000  0.4843610000000  0.7313530000000 1.0
C      1  0.3872980000000  0.7167760000000  0.5447310000000 1.0
C      1  0.4056610000000  0.6223920000000  0.3377840000000 1.0
C      1  0.3788110000000  0.3830970000000  0.3056160000000 1.0
C      1  0.5948670000000  0.2965300000000  0.4153640000000 1.0
C      1  0.6243550000000  0.4844370000000  0.2688930000000 1.0
C      1  0.6126150000000  0.7166350000000  0.4552620000000 1.0
C      1  0.5943110000000  0.6223430000000  0.6621950000000 1.0
C      1  0.6213140000000  0.3830450000000  0.6944440000000 1.0
C      1  0.3242070000000  0.6516280000000  0.5826210000000 1.0
C      1  0.3125490000000  0.6228640000000  0.3768630000000 1.0
C      1  0.2978110000000  0.4398430000000  0.3311790000000 1.0
C      1  0.3339370000000  0.3227390000000  0.5226630000000 1.0
C      1  0.2969070000000  0.4476420000000  0.6754910000000 1.0
C      1  0.6756280000000  0.6515020000000  0.4173150000000 1.0
C      1  0.6874540000000  0.6227750000000  0.6231220000000 1.0
C      1  0.7022630000000  0.4398290000000  0.6688120000000 1.0
C      1  0.6661370000000  0.3225800000000  0.4773270000000 1.0
C      1  0.7030910000000  0.4474410000000  0.3246030000000 1.0
C      1  0.2857170000000  0.5545540000000  0.4471000000000 1.0
C      1  0.2821690000000  0.4613990000000  0.4269360000000 1.0
C      1  0.2947930000000  0.4117370000000  0.5109520000000 1.0
C      1  0.2880860000000  0.4774700000000  0.5819170000000 1.0
C      1  0.2931690000000  0.5676590000000  0.5426790000000 1.0
C      1  0.7142480000000  0.5544570000000  0.5528850000000 1.0
C      1  0.7179220000000  0.4613080000000  0.5730340000000 1.0
C      1  0.7053340000000  0.4115740000000  0.4890270000000 1.0
C      1  0.7120220000000  0.4772950000000  0.4180870000000 1.0
C      1  0.7067190000000  0.5675060000000  0.4573020000000 1.0
C      1  0.6268960000000  0.6545430000000  0.3283090000000 1.0
C      1  0.6678620000000  0.3604180000000  0.3141520000000 1.0
C      1  0.6226670000000  0.2702500000000  0.5523620000000 1.0
C      1  0.6672380000000  0.5149740000000  0.7146120000000 1.0
C      1  0.6731970000000  0.7061440000000  0.5811920000000 1.0
C      1  0.3730810000000  0.6543510000000  0.6715600000000 1.0
C      1  0.3320270000000  0.3606100000000  0.6856890000000 1.0
C      1  0.3773280000000  0.2702620000000  0.4476540000000 1.0
C      1  0.3328030000000  0.5149990000000  0.2853590000000 1.0
C      1  0.3267660000000  0.7062250000000  0.4187990000000 1.0
C      1  0.4600330000000  0.6932340000000  0.3797870000000 1.0
C      1  0.4567040000000  0.4498440000000  0.2871020000000 1.0
C      1  0.4536630000000  0.2494940000000  0.5129190000000 1.0
C      1  0.4555660000000  0.4192590000000  0.7122780000000 1.0
C      1  0.4444950000000  0.7098850000000  0.6242360000000 1.0
C      1  0.5399510000000  0.6931170000000  0.6201440000000 1.0
C      1  0.5433710000000  0.4497150000000  0.7129630000000 1.0
C      1  0.5463020000000  0.2495640000000  0.4871200000000 1.0
C      1  0.5444600000000  0.4193400000000  0.2879180000000 1.0
C      1  0.5554990000000  0.7099670000000  0.3757270000000 1.0
C      1  0.6175820000000  0.3224160000000  0.6274810000000 1.0
C      1  0.5779540000000  0.5438410000000  0.7225170000000 1.0
C      1  0.5937240000000  0.7432440000000  0.5509240000000 1.0
C      1  0.6205160000000  0.5707930000000  0.2927350000000 1.0
C      1  0.5792770000000  0.3315550000000  0.3214830000000 1.0
C      1  0.3824960000000  0.3224830000000  0.3725870000000 1.0
C      1  0.4220420000000  0.5439600000000  0.2774500000000 1.0
C      1  0.4062500000000  0.7433380000000  0.4490980000000 1.0
C      1  0.3793600000000  0.5705620000000  0.7071180000000 1.0
C      1  0.4206340000000  0.3315720000000  0.6785590000000 1.0
END
