TITL C-1525613-7943-1364 0.0198902526283349 3375 -8701.51062088016 0 0 60 (C1) n - 1
REM
REM in /home/nfs/bkarasulu/CARBON/AIRSS/Generating-Clusters/ReaxFF-fromJPCA2015/Units_Real/Try2-Higher-symm/Only-C60
REM
REM
REM
REM
REM
REM ./C.cell (863b2abdce7293c0672fb3ba77bf323a)
REM AIRSS Version 0.9.1 bugfix July 2018 build 013d7b7c2542+ Fri, 06 Jul 2018 19:26:36 +0100
REM compiler GCC version 9.2.1 20190827 (Red Hat 9.2.1-1)
REM options -cpp -mtune=generic -march=x86-64 -g -O0 -fpre-include=/usr/include/finclude/math-vector-fortran.h
REM seed -1543536789 -1620310209 593380456 -1627177122 -1789983932 -1186107331 1605368177 1738903002 -2045987307 1881507208 2091261796 104514324 -1150475171 57782612 287795552 987637316 606010163 1515729403 560037815 -1217668372 540845125 968013473 -802674209 -1250028325 127486770 573110277 1695638216 -612502894 301553681 -729141611 -1355961092 987872122 1229410417
REM
CELL 1.54180   15.00000   15.00000   15.00000   90.00000   90.00000   90.00000
LATT -1
SFAC C  
C      1  0.6348300000000  0.7549440000000  0.5875850000000 1.0
C      1  0.2993090000000  0.7070110000000  0.5874970000000 1.0
C      1  0.2410250000000  0.3730450000000  0.5877400000000 1.0
C      1  0.5405710000000  0.2145080000000  0.5876670000000 1.0
C      1  0.7838950000000  0.4505140000000  0.5873490000000 1.0
C      1  0.6347230000000  0.2451190000000  0.5876120000000 1.0
C      1  0.2991750000000  0.2929210000000  0.5878750000000 1.0
C      1  0.2411200000000  0.6269120000000  0.5874930000000 1.0
C      1  0.5406750000000  0.7855420000000  0.5876330000000 1.0
C      1  0.7839060000000  0.5495170000000  0.5872900000000 1.0
C      1  0.6503950000000  0.5488840000000  0.2762800000000 1.0
C      1  0.4999990000000  0.6587560000000  0.2772710000000 1.0
C      1  0.3495740000000  0.5494360000000  0.2752650000000 1.0
C      1  0.4068820000000  0.3713430000000  0.2775950000000 1.0
C      1  0.5928310000000  0.3714850000000  0.2758380000000 1.0
C      1  0.6506570000000  0.4515410000000  0.2758280000000 1.0
C      1  0.5002720000000  0.3413230000000  0.2762010000000 1.0
C      1  0.3495570000000  0.4504400000000  0.2764690000000 1.0
C      1  0.4070270000000  0.6280900000000  0.2761160000000 1.0
C      1  0.5932040000000  0.6284720000000  0.2774920000000 1.0
C      1  0.6588200000000  0.3236020000000  0.6453250000000 1.0
C      1  0.7168260000000  0.5966480000000  0.6451740000000 1.0
C      1  0.4751180000000  0.7362370000000  0.6454490000000 1.0
C      1  0.2677880000000  0.5493270000000  0.6452950000000 1.0
C      1  0.3812070000000  0.2942670000000  0.6456650000000 1.0
C      1  0.6589320000000  0.6765140000000  0.6453710000000 1.0
C      1  0.7167920000000  0.4034120000000  0.6452260000000 1.0
C      1  0.4750470000000  0.2638610000000  0.6454840000000 1.0
C      1  0.2676840000000  0.4506860000000  0.6454720000000 1.0
C      1  0.3813400000000  0.7056460000000  0.6452940000000 1.0
C      1  0.5002060000000  0.6522490000000  0.6869410000000 1.0
C      1  0.3554150000000  0.5471830000000  0.6867800000000 1.0
C      1  0.4103320000000  0.3769800000000  0.6870870000000 1.0
C      1  0.5892110000000  0.3768460000000  0.6868470000000 1.0
C      1  0.6446980000000  0.5468910000000  0.6867170000000 1.0
C      1  0.5001180000000  0.3478880000000  0.6868900000000 1.0
C      1  0.3553110000000  0.4527990000000  0.6869650000000 1.0
C      1  0.4104760000000  0.6229750000000  0.6867730000000 1.0
C      1  0.5893040000000  0.6233080000000  0.6869180000000 1.0
C      1  0.6446810000000  0.4532100000000  0.6867540000000 1.0
C      1  0.6929080000000  0.5796240000000  0.3613240000000 1.0
C      1  0.4833200000000  0.7084230000000  0.3619800000000 1.0
C      1  0.2966270000000  0.5498420000000  0.3601310000000 1.0
C      1  0.3910620000000  0.3209800000000  0.3621070000000 1.0
C      1  0.6361290000000  0.3410510000000  0.3610530000000 1.0
C      1  0.6930860000000  0.4200670000000  0.3611160000000 1.0
C      1  0.4840550000000  0.2913110000000  0.3610500000000 1.0
C      1  0.2970440000000  0.4519850000000  0.3616240000000 1.0
C      1  0.3903640000000  0.6786190000000  0.3608850000000 1.0
C      1  0.6356730000000  0.6588180000000  0.3621550000000 1.0
C      1  0.3540060000000  0.4528290000000  0.4434960000000 1.0
C      1  0.5007710000000  0.3446760000000  0.4402260000000 1.0
C      1  0.6468860000000  0.4533170000000  0.4425580000000 1.0
C      1  0.5908520000000  0.6232800000000  0.4442100000000 1.0
C      1  0.4084560000000  0.6254750000000  0.4404260000000 1.0
C      1  0.3537590000000  0.5501800000000  0.4415980000000 1.0
C      1  0.4985370000000  0.6536350000000  0.4440620000000 1.0
C      1  0.6466820000000  0.5472190000000  0.4402890000000 1.0
C      1  0.5900070000000  0.3741860000000  0.4426140000000 1.0
C      1  0.4108450000000  0.3741530000000  0.4445730000000 1.0
END
