TITL C-1525613-7943-2854 0.571757263663682 3375 -8870.73320281029 0 0 60 (C1) n - 1
REM
REM in /home/nfs/bkarasulu/CARBON/AIRSS/Generating-Clusters/ReaxFF-fromJPCA2015/Units_Real/Try2-Higher-symm/Only-C60
REM
REM
REM
REM
REM
REM ./C.cell (863b2abdce7293c0672fb3ba77bf323a)
REM AIRSS Version 0.9.1 bugfix July 2018 build 013d7b7c2542+ Fri, 06 Jul 2018 19:26:36 +0100
REM compiler GCC version 9.2.1 20190827 (Red Hat 9.2.1-1)
REM options -cpp -mtune=generic -march=x86-64 -g -O0 -fpre-include=/usr/include/finclude/math-vector-fortran.h
REM seed -1730339073 -1618424743 -897476793 -1956259407 566298746 620651499 -346252920 -1861590818 607916015 -1812307199 -946664655 1894249340 1829066291 -1837029546 2064444338 -1160466091 929871044 1383584457 -962018329 -1882536425 1127293701 1267245006 277298289 -638528469 1873033430 -145563404 850134524 856926473 210424436 -234685169 862511036 -1320511235 1026901260
REM
CELL 1.54180   15.00000   15.00000   15.00000   90.00000   90.00000   90.00000
LATT -1
SFAC C  
C      1  0.7162130000000  0.5230990000000  0.3765600000000 1.0
C      1  0.5880970000000  0.2983440000000  0.3758960000000 1.0
C      1  0.3345210000000  0.3531100000000  0.3759890000000 1.0
C      1  0.3093730000000  0.6116320000000  0.3754660000000 1.0
C      1  0.5494660000000  0.7120640000000  0.3760230000000 1.0
C      1  0.2799480000000  0.5214510000000  0.3756030000000 1.0
C      1  0.4114390000000  0.2973110000000  0.3758540000000 1.0
C      1  0.6646450000000  0.3547780000000  0.3760250000000 1.0
C      1  0.6877430000000  0.6133650000000  0.3773350000000 1.0
C      1  0.4542110000000  0.7128140000000  0.3752910000000 1.0
C      1  0.2995610000000  0.3847820000000  0.4618080000000 1.0
C      1  0.3290990000000  0.6545260000000  0.4612660000000 1.0
C      1  0.5950870000000  0.7100010000000  0.4628750000000 1.0
C      1  0.7274820000000  0.4769830000000  0.4622530000000 1.0
C      1  0.5474670000000  0.2744980000000  0.4616680000000 1.0
C      1  0.6991850000000  0.3860920000000  0.4621120000000 1.0
C      1  0.6737730000000  0.6568240000000  0.4642580000000 1.0
C      1  0.4072050000000  0.7087760000000  0.4610840000000 1.0
C      1  0.2705260000000  0.4754350000000  0.4615690000000 1.0
C      1  0.4523050000000  0.2739120000000  0.4616640000000 1.0
C      1  0.3289570000000  0.3450660000000  0.5440810000000 1.0
C      1  0.3001170000000  0.6147340000000  0.5437880000000 1.0
C      1  0.5478620000000  0.7246040000000  0.5443970000000 1.0
C      1  0.7297840000000  0.5257270000000  0.5449710000000 1.0
C      1  0.5943390000000  0.2900660000000  0.5440400000000 1.0
C      1  0.6706510000000  0.3455940000000  0.5442510000000 1.0
C      1  0.7027890000000  0.6160390000000  0.5459980000000 1.0
C      1  0.4535740000000  0.7245980000000  0.5436080000000 1.0
C      1  0.2710210000000  0.5249170000000  0.5439030000000 1.0
C      1  0.4053030000000  0.2895730000000  0.5440010000000 1.0
C      1  0.7077510000000  0.3007220000000  0.2984030000000 1.0
C      1  0.3731380000000  0.2405690000000  0.2976720000000 1.0
C      1  0.2135670000000  0.5402920000000  0.2981300000000 1.0
C      1  0.4532540000000  0.7834750000000  0.2988680000000 1.0
C      1  0.7488530000000  0.6364750000000  0.2966130000000 1.0
C      1  0.2922680000000  0.2989360000000  0.2977240000000 1.0
C      1  0.6274360000000  0.2414470000000  0.2980230000000 1.0
C      1  0.7807120000000  0.5416700000000  0.2973500000000 1.0
C      1  0.5531030000000  0.7806670000000  0.2982550000000 1.0
C      1  0.2438390000000  0.6352860000000  0.2982680000000 1.0
C      1  0.6667080000000  0.6490540000000  0.6263610000000 1.0
C      1  0.6922730000000  0.3889790000000  0.6249200000000 1.0
C      1  0.4536500000000  0.2828360000000  0.6246910000000 1.0
C      1  0.2792730000000  0.4770120000000  0.6245850000000 1.0
C      1  0.4101590000000  0.7029060000000  0.6244440000000 1.0
C      1  0.3351760000000  0.6487940000000  0.6244330000000 1.0
C      1  0.3075790000000  0.3889300000000  0.6247450000000 1.0
C      1  0.5461030000000  0.2829620000000  0.6246820000000 1.0
C      1  0.7213560000000  0.4768430000000  0.6253640000000 1.0
C      1  0.5908320000000  0.7021180000000  0.6250340000000 1.0
C      1  0.4518060000000  0.6504800000000  0.6945310000000 1.0
C      1  0.6288780000000  0.5925730000000  0.6959120000000 1.0
C      1  0.6276030000000  0.4065950000000  0.6948160000000 1.0
C      1  0.4506010000000  0.3499030000000  0.6946910000000 1.0
C      1  0.3419680000000  0.5006340000000  0.6945030000000 1.0
C      1  0.5485730000000  0.6495080000000  0.6940020000000 1.0
C      1  0.3719000000000  0.5926960000000  0.6944660000000 1.0
C      1  0.3722370000000  0.4068050000000  0.6948170000000 1.0
C      1  0.5492370000000  0.3498410000000  0.6946610000000 1.0
C      1  0.6584240000000  0.5002790000000  0.6953990000000 1.0
END
