TITL C-1525613-7943-7070 -0.000338154902357012 3375 -9532.42359823955 0 0 60 (D5d) n - 1
REM
REM in /home/nfs/bkarasulu/CARBON/AIRSS/Generating-Clusters/ReaxFF-fromJPCA2015/Units_Real/Try2-Higher-symm/Only-C60
REM
REM
REM
REM
REM
REM ./C.cell (863b2abdce7293c0672fb3ba77bf323a)
REM AIRSS Version 0.9.1 bugfix July 2018 build 013d7b7c2542+ Fri, 06 Jul 2018 19:26:36 +0100
REM compiler GCC version 9.2.1 20190827 (Red Hat 9.2.1-1)
REM options -cpp -mtune=generic -march=x86-64 -g -O0 -fpre-include=/usr/include/finclude/math-vector-fortran.h
REM seed -1319325236 -749396942 2015381750 1061745188 518850030 -36176565 -1636533105 -942419639 106323492 817765498 1782439236 546018797 -1425826288 1469231068 -1536578386 1184774980 -794726022 23815972 464683139 -2000627253 -615597107 1050916777 1814463185 1460005627 1571685259 565298494 2118864749 -735404774 595985417 1124686987 -1704213837 -1937664657 873142454
REM
CELL 1.54180   15.00000   15.00000   15.00000   90.00000   90.00000   90.00000
LATT -1
SFAC C  
C      1  0.6214610000000  0.4765260000000  0.7225120000000 1.0
C      1  0.6212650000000  0.2812200000000  0.5464370000000 1.0
C      1  0.6214330000000  0.3881360000000  0.3062200000000 1.0
C      1  0.6215120000000  0.6497980000000  0.3339370000000 1.0
C      1  0.6216570000000  0.7047160000000  0.5913880000000 1.0
C      1  0.6215060000000  0.4764260000000  0.2776210000000 1.0
C      1  0.6216760000000  0.2806710000000  0.4536260000000 1.0
C      1  0.6214670000000  0.3882010000000  0.6938150000000 1.0
C      1  0.6212430000000  0.6497000000000  0.6661400000000 1.0
C      1  0.6214290000000  0.7044300000000  0.4089630000000 1.0
C      1  0.6896560000000  0.6504960000000  0.4520780000000 1.0
C      1  0.6896590000000  0.5922370000000  0.6283800000000 1.0
C      1  0.6901170000000  0.4064160000000  0.6276510000000 1.0
C      1  0.6898720000000  0.3496000000000  0.4507940000000 1.0
C      1  0.6895960000000  0.5005230000000  0.3423890000000 1.0
C      1  0.6898640000000  0.6506260000000  0.5485800000000 1.0
C      1  0.6896240000000  0.5922570000000  0.3721700000000 1.0
C      1  0.6896470000000  0.4064400000000  0.3728100000000 1.0
C      1  0.6896860000000  0.3499070000000  0.5496730000000 1.0
C      1  0.6900970000000  0.5006930000000  0.6582720000000 1.0
C      1  0.3128420000000  0.4091690000000  0.6281390000000 1.0
C      1  0.3106030000000  0.3505100000000  0.4525510000000 1.0
C      1  0.3100860000000  0.4994160000000  0.3417560000000 1.0
C      1  0.3103900000000  0.6497040000000  0.4507090000000 1.0
C      1  0.3090240000000  0.5920070000000  0.6275030000000 1.0
C      1  0.3104030000000  0.4078280000000  0.3721000000000 1.0
C      1  0.3090250000000  0.3506290000000  0.5490620000000 1.0
C      1  0.3128560000000  0.4981640000000  0.6570490000000 1.0
C      1  0.3105770000000  0.6488260000000  0.5494860000000 1.0
C      1  0.3100790000000  0.5934480000000  0.3723180000000 1.0
C      1  0.4590280000000  0.4750270000000  0.2672680000000 1.0
C      1  0.4590890000000  0.7133740000000  0.4041380000000 1.0
C      1  0.4596650000000  0.6577390000000  0.6733430000000 1.0
C      1  0.4587220000000  0.3839370000000  0.7022030000000 1.0
C      1  0.4590790000000  0.2713420000000  0.4520720000000 1.0
C      1  0.4587200000000  0.4750230000000  0.7317980000000 1.0
C      1  0.4590660000000  0.7131670000000  0.5956190000000 1.0
C      1  0.4590300000000  0.6570050000000  0.3263950000000 1.0
C      1  0.4591050000000  0.3837230000000  0.2970170000000 1.0
C      1  0.4596750000000  0.2704950000000  0.5475270000000 1.0
C      1  0.3784840000000  0.3503540000000  0.3342940000000 1.0
C      1  0.3783680000000  0.6118840000000  0.3058450000000 1.0
C      1  0.3788880000000  0.7179080000000  0.5466650000000 1.0
C      1  0.3781380000000  0.5224250000000  0.7214500000000 1.0
C      1  0.3773990000000  0.2940200000000  0.5917280000000 1.0
C      1  0.3781280000000  0.3516800000000  0.6659750000000 1.0
C      1  0.3774020000000  0.6127210000000  0.6952940000000 1.0
C      1  0.3784670000000  0.7184270000000  0.4538920000000 1.0
C      1  0.3783750000000  0.5235970000000  0.2771560000000 1.0
C      1  0.3789080000000  0.2962660000000  0.4096740000000 1.0
C      1  0.5408330000000  0.3431100000000  0.3264510000000 1.0
C      1  0.5408710000000  0.6164040000000  0.2970610000000 1.0
C      1  0.5405380000000  0.7291770000000  0.5479080000000 1.0
C      1  0.5407040000000  0.5255730000000  0.7319520000000 1.0
C      1  0.5410150000000  0.2867500000000  0.5950360000000 1.0
C      1  0.5407150000000  0.3429600000000  0.6726200000000 1.0
C      1  0.5410020000000  0.6166490000000  0.7022140000000 1.0
C      1  0.5408160000000  0.7289630000000  0.4518080000000 1.0
C      1  0.5408620000000  0.5251290000000  0.2673980000000 1.0
C      1  0.5405560000000  0.2864500000000  0.4040670000000 1.0
END
