TITL C-1525613-7943-6114 0.398660815180365 3375 -8650.67674245781 0 0 60 (D5h) n - 1
REM
REM in /home/nfs/bkarasulu/CARBON/AIRSS/Generating-Clusters/ReaxFF-fromJPCA2015/Units_Real/Try2-Higher-symm/Only-C60
REM
REM
REM
REM
REM
REM ./C.cell (863b2abdce7293c0672fb3ba77bf323a)
REM AIRSS Version 0.9.1 bugfix July 2018 build 013d7b7c2542+ Fri, 06 Jul 2018 19:26:36 +0100
REM compiler GCC version 9.2.1 20190827 (Red Hat 9.2.1-1)
REM options -cpp -mtune=generic -march=x86-64 -g -O0 -fpre-include=/usr/include/finclude/math-vector-fortran.h
REM seed -28845907 1429849209 1084237992 1432724315 -42709920 795935636 1646544006 1889759290 -1672200226 1319635951 -1183339468 415852086 -657842015 -2072457798 -1573402907 1284922994 -755399008 -654959652 -590654552 -627760103 1494557415 1753453382 -1010926698 353888614 932960244 -670437073 1043909913 -2027243595 895267585 -727625692 -552308422 -1078992152 1936145306
REM
CELL 1.54180   15.00000   15.00000   15.00000   90.00000   90.00000   90.00000
LATT -1
SFAC C  
C      1  0.4526150000000  0.5497730000000  0.7182940000000 1.0
C      1  0.4525960000000  0.3077800000000  0.6147980000000 1.0
C      1  0.4526030000000  0.3314260000000  0.3526560000000 1.0
C      1  0.4526150000000  0.5880460000000  0.2941430000000 1.0
C      1  0.4526100000000  0.7229880000000  0.5201210000000 1.0
C      1  0.5473850000000  0.5497730000000  0.7182940000000 1.0
C      1  0.5474040000000  0.3077800000000  0.6147980000000 1.0
C      1  0.5473970000000  0.3314260000000  0.3526560000000 1.0
C      1  0.5473850000000  0.5880460000000  0.2941430000000 1.0
C      1  0.5473900000000  0.7229880000000  0.5201210000000 1.0
C      1  0.5475780000000  0.4455170000000  0.7182100000000 1.0
C      1  0.5475820000000  0.2756300000000  0.5156110000000 1.0
C      1  0.5475680000000  0.4158160000000  0.2914400000000 1.0
C      1  0.5475700000000  0.6723360000000  0.3554860000000 1.0
C      1  0.5475660000000  0.6906960000000  0.6192430000000 1.0
C      1  0.4524220000000  0.4455170000000  0.7182100000000 1.0
C      1  0.4524180000000  0.2756300000000  0.5156110000000 1.0
C      1  0.4524320000000  0.4158160000000  0.2914400000000 1.0
C      1  0.4524300000000  0.6723360000000  0.3554860000000 1.0
C      1  0.4524340000000  0.6906960000000  0.6192430000000 1.0
C      1  0.3180470000000  0.6553990000000  0.4525620000000 1.0
C      1  0.3180420000000  0.5931350000000  0.6331310000000 1.0
C      1  0.3180480000000  0.4021590000000  0.6297220000000 1.0
C      1  0.3180460000000  0.3463940000000  0.4470330000000 1.0
C      1  0.3180460000000  0.5029040000000  0.3375510000000 1.0
C      1  0.6819530000000  0.6553990000000  0.4525620000000 1.0
C      1  0.6819580000000  0.5931350000000  0.6331310000000 1.0
C      1  0.6819520000000  0.4021590000000  0.6297220000000 1.0
C      1  0.6819540000000  0.3463940000000  0.4470330000000 1.0
C      1  0.6819540000000  0.5029040000000  0.3375510000000 1.0
C      1  0.5834250000000  0.4225540000000  0.5240400000000 1.0
C      1  0.5834250000000  0.4532030000000  0.4337740000000 1.0
C      1  0.5834210000000  0.5485240000000  0.4350290000000 1.0
C      1  0.5834210000000  0.5767850000000  0.5260710000000 1.0
C      1  0.5834210000000  0.4989290000000  0.5810840000000 1.0
C      1  0.4165750000000  0.4225540000000  0.5240400000000 1.0
C      1  0.4165750000000  0.4532030000000  0.4337740000000 1.0
C      1  0.4165790000000  0.5485240000000  0.4350290000000 1.0
C      1  0.4165790000000  0.5767850000000  0.5260710000000 1.0
C      1  0.4165790000000  0.4989290000000  0.5810840000000 1.0
C      1  0.4032730000000  0.3750930000000  0.6685930000000 1.0
C      1  0.4032770000000  0.3010650000000  0.4333000000000 1.0
C      1  0.4032730000000  0.5019590000000  0.2901870000000 1.0
C      1  0.4032730000000  0.7001500000000  0.4370250000000 1.0
C      1  0.4032710000000  0.6217400000000  0.6708910000000 1.0
C      1  0.5967270000000  0.3750930000000  0.6685930000000 1.0
C      1  0.5967230000000  0.3010650000000  0.4333000000000 1.0
C      1  0.5967270000000  0.5019590000000  0.2901870000000 1.0
C      1  0.5967270000000  0.7001500000000  0.4370250000000 1.0
C      1  0.5967290000000  0.6217400000000  0.6708910000000 1.0
C      1  0.6620320000000  0.4974740000000  0.6377950000000 1.0
C      1  0.6620300000000  0.3681650000000  0.5401780000000 1.0
C      1  0.6620300000000  0.4210550000000  0.3870350000000 1.0
C      1  0.6620280000000  0.5830370000000  0.3900080000000 1.0
C      1  0.6620280000000  0.6302710000000  0.5449870000000 1.0
C      1  0.3379680000000  0.4974740000000  0.6377950000000 1.0
C      1  0.3379700000000  0.3681650000000  0.5401780000000 1.0
C      1  0.3379700000000  0.4210550000000  0.3870350000000 1.0
C      1  0.3379720000000  0.5830370000000  0.3900080000000 1.0
C      1  0.3379720000000  0.6302710000000  0.5449870000000 1.0
END
