TITL C-1525613-7943-3794 0.0424810879272036 3375 -7899.45341803915 0 0 60 (C2) n - 1
REM
REM in /home/nfs/bkarasulu/CARBON/AIRSS/Generating-Clusters/ReaxFF-fromJPCA2015/Units_Real/Try2-Higher-symm/Only-C60
REM
REM
REM
REM
REM
REM ./C.cell (863b2abdce7293c0672fb3ba77bf323a)
REM AIRSS Version 0.9.1 bugfix July 2018 build 013d7b7c2542+ Fri, 06 Jul 2018 19:26:36 +0100
REM compiler GCC version 9.2.1 20190827 (Red Hat 9.2.1-1)
REM options -cpp -mtune=generic -march=x86-64 -g -O0 -fpre-include=/usr/include/finclude/math-vector-fortran.h
REM seed 1138016843 -1866638552 -811709296 581620162 -1772965882 680607465 93281434 -323669890 -1175402537 -845544353 1883839327 -1955781214 -297429891 138853500 1874063152 1647433449 -1740075928 1710000146 506454913 492010043 167621747 564717673 872639549 810639538 1050483017 -591853588 1815338359 906314710 -749831218 -1692752721 1616859738 -1153871121 1304680538
REM
CELL 1.54180   15.00000   15.00000   15.00000   90.00000   90.00000   90.00000
LATT -1
SFAC C  
C      1  0.5859650000000  0.7012100000000  0.3261700000000 1.0
C      1  0.7029370000000  0.6328400000000  0.2994970000000 1.0
C      1  0.6578410000000  0.5046990000000  0.2941000000000 1.0
C      1  0.6025910000000  0.3809360000000  0.2987730000000 1.0
C      1  0.5410120000000  0.2639940000000  0.2852070000000 1.0
C      1  0.4139520000000  0.2984530000000  0.3262400000000 1.0
C      1  0.2971270000000  0.3671760000000  0.2997780000000 1.0
C      1  0.3420030000000  0.4954090000000  0.2937980000000 1.0
C      1  0.3972270000000  0.6192300000000  0.2987430000000 1.0
C      1  0.4589470000000  0.7362470000000  0.2855060000000 1.0
C      1  0.5674580000000  0.6407270000000  0.5945130000000 1.0
C      1  0.6425150000000  0.5771370000000  0.6039050000000 1.0
C      1  0.6569470000000  0.4802910000000  0.5957750000000 1.0
C      1  0.6143770000000  0.3910380000000  0.5958280000000 1.0
C      1  0.5296600000000  0.3409990000000  0.6045950000000 1.0
C      1  0.4325540000000  0.3592990000000  0.5944820000000 1.0
C      1  0.3574960000000  0.4228880000000  0.6038780000000 1.0
C      1  0.3430610000000  0.5197330000000  0.5957660000000 1.0
C      1  0.3856320000000  0.6089850000000  0.5958360000000 1.0
C      1  0.4703500000000  0.6590220000000  0.6046180000000 1.0
C      1  0.7523020000000  0.3797620000000  0.5051110000000 1.0
C      1  0.6333170000000  0.2509210000000  0.5134890000000 1.0
C      1  0.4627850000000  0.2170770000000  0.5185760000000 1.0
C      1  0.3038670000000  0.2927390000000  0.5176420000000 1.0
C      1  0.2228720000000  0.4466640000000  0.5116580000000 1.0
C      1  0.2477160000000  0.6202790000000  0.5051110000000 1.0
C      1  0.3667050000000  0.7491140000000  0.5135170000000 1.0
C      1  0.5372350000000  0.7829630000000  0.5186270000000 1.0
C      1  0.6961540000000  0.7073030000000  0.5177030000000 1.0
C      1  0.7771550000000  0.5533780000000  0.5117220000000 1.0
C      1  0.4343710000000  0.3625840000000  0.6960520000000 1.0
C      1  0.3633900000000  0.4271560000000  0.7061180000000 1.0
C      1  0.3442470000000  0.5206880000000  0.6989980000000 1.0
C      1  0.3859330000000  0.6074140000000  0.6990450000000 1.0
C      1  0.4708740000000  0.6508230000000  0.7072390000000 1.0
C      1  0.5656290000000  0.6374240000000  0.6960830000000 1.0
C      1  0.6366080000000  0.5728490000000  0.7061440000000 1.0
C      1  0.6557500000000  0.4793180000000  0.6990070000000 1.0
C      1  0.6140660000000  0.3925910000000  0.6990370000000 1.0
C      1  0.5291240000000  0.3491810000000  0.7072170000000 1.0
C      1  0.4138570000000  0.6875650000000  0.3485800000000 1.0
C      1  0.5049040000000  0.7380670000000  0.3481300000000 1.0
C      1  0.6574760000000  0.6789180000000  0.3445300000000 1.0
C      1  0.6958030000000  0.5576040000000  0.3363860000000 1.0
C      1  0.6421570000000  0.4351300000000  0.3418660000000 1.0
C      1  0.5859310000000  0.3125370000000  0.3487310000000 1.0
C      1  0.4953760000000  0.2616270000000  0.3480240000000 1.0
C      1  0.3424340000000  0.3205900000000  0.3445400000000 1.0
C      1  0.3045110000000  0.4422990000000  0.3362500000000 1.0
C      1  0.3577090000000  0.5649470000000  0.3417580000000 1.0
C      1  0.4536190000000  0.7530320000000  0.5466750000000 1.0
C      1  0.6091470000000  0.7288420000000  0.5434750000000 1.0
C      1  0.7250530000000  0.6230500000000  0.5453760000000 1.0
C      1  0.7490210000000  0.4677520000000  0.5358890000000 1.0
C      1  0.6820640000000  0.3271220000000  0.5367120000000 1.0
C      1  0.5463990000000  0.2469980000000  0.5466390000000 1.0
C      1  0.3908700000000  0.2711940000000  0.5434240000000 1.0
C      1  0.2749690000000  0.3769910000000  0.5453150000000 1.0
C      1  0.2509970000000  0.5322810000000  0.5358630000000 1.0
C      1  0.3179510000000  0.6729140000000  0.5367290000000 1.0
END
