TITL C-1525613-7943-3652 0.574500936957848 3375 -8003.19310992231 0 0 60 (C5) n - 1
REM
REM in /home/nfs/bkarasulu/CARBON/AIRSS/Generating-Clusters/ReaxFF-fromJPCA2015/Units_Real/Try2-Higher-symm/Only-C60
REM
REM
REM
REM
REM
REM ./C.cell (863b2abdce7293c0672fb3ba77bf323a)
REM AIRSS Version 0.9.1 bugfix July 2018 build 013d7b7c2542+ Fri, 06 Jul 2018 19:26:36 +0100
REM compiler GCC version 9.2.1 20190827 (Red Hat 9.2.1-1)
REM options -cpp -mtune=generic -march=x86-64 -g -O0 -fpre-include=/usr/include/finclude/math-vector-fortran.h
REM seed 844970365 -1643552020 1583461117 -569039798 -801865841 1070369791 1377758688 166875774 1467779340 776677168 -609559026 -1710261790 -1631375432 896579678 488439940 1023606849 -2018149889 -1938983545 1646483717 -1868122084 -373771451 -1685303848 -392668859 1783374160 1746732016 -1559115075 -985712803 381297321 -1646824531 -558616892 492207457 2067018512 -1712498726
REM
CELL 1.54180   15.00000   15.00000   15.00000   90.00000   90.00000   90.00000
LATT -1
SFAC C  
C      1  0.6205410000000  0.3293680000000  0.4362900000000 1.0
C      1  0.6204710000000  0.5079290000000  0.3180960000000 1.0
C      1  0.6205780000000  0.6755140000000  0.4514000000000 1.0
C      1  0.6206240000000  0.6005360000000  0.6519720000000 1.0
C      1  0.6205870000000  0.3866480000000  0.6426060000000 1.0
C      1  0.6205270000000  0.3293910000000  0.5637050000000 1.0
C      1  0.6204510000000  0.5079180000000  0.6818840000000 1.0
C      1  0.6205330000000  0.6755130000000  0.5486010000000 1.0
C      1  0.6206150000000  0.6005560000000  0.3480060000000 1.0
C      1  0.6205800000000  0.3866230000000  0.3573960000000 1.0
C      1  0.2788060000000  0.6482750000000  0.4516540000000 1.0
C      1  0.2787740000000  0.5917950000000  0.6259420000000 1.0
C      1  0.2787650000000  0.4084730000000  0.6262870000000 1.0
C      1  0.2788160000000  0.3516520000000  0.4520300000000 1.0
C      1  0.2787640000000  0.4998230000000  0.3442520000000 1.0
C      1  0.2787700000000  0.6482780000000  0.5483140000000 1.0
C      1  0.2787120000000  0.5918150000000  0.3739960000000 1.0
C      1  0.2787480000000  0.4085220000000  0.3738260000000 1.0
C      1  0.2787620000000  0.3517110000000  0.5480160000000 1.0
C      1  0.2787500000000  0.4998380000000  0.6557320000000 1.0
C      1  0.5809390000000  0.5378620000000  0.7742260000000 1.0
C      1  0.5809950000000  0.2508530000000  0.6207540000000 1.0
C      1  0.5810090000000  0.3081620000000  0.3003190000000 1.0
C      1  0.5809910000000  0.6307340000000  0.2557800000000 1.0
C      1  0.5809390000000  0.7726660000000  0.5487590000000 1.0
C      1  0.5809520000000  0.5378850000000  0.2257580000000 1.0
C      1  0.5809970000000  0.2508430000000  0.3792500000000 1.0
C      1  0.5810050000000  0.3081690000000  0.6996840000000 1.0
C      1  0.5810090000000  0.6307320000000  0.7442270000000 1.0
C      1  0.5809630000000  0.7726690000000  0.4512560000000 1.0
C      1  0.7145980000000  0.3523470000000  0.4519450000000 1.0
C      1  0.7145890000000  0.5000150000000  0.3447850000000 1.0
C      1  0.7145750000000  0.6475780000000  0.4520580000000 1.0
C      1  0.7145940000000  0.5911550000000  0.6255850000000 1.0
C      1  0.7146140000000  0.4086470000000  0.6255290000000 1.0
C      1  0.7145720000000  0.3523480000000  0.5480600000000 1.0
C      1  0.7145950000000  0.5000340000000  0.6552420000000 1.0
C      1  0.7145720000000  0.6475780000000  0.5479550000000 1.0
C      1  0.7145610000000  0.5911540000000  0.3743960000000 1.0
C      1  0.7146060000000  0.4086570000000  0.3744740000000 1.0
C      1  0.3613850000000  0.3659150000000  0.6559560000000 1.0
C      1  0.3613810000000  0.3101100000000  0.4205770000000 1.0
C      1  0.3613020000000  0.5167980000000  0.2949740000000 1.0
C      1  0.3614040000000  0.7003020000000  0.4526180000000 1.0
C      1  0.3613200000000  0.6069130000000  0.6757730000000 1.0
C      1  0.3613680000000  0.3659040000000  0.3439300000000 1.0
C      1  0.3613680000000  0.3100300000000  0.5794440000000 1.0
C      1  0.3612770000000  0.5167990000000  0.7050410000000 1.0
C      1  0.3613850000000  0.7002750000000  0.5473880000000 1.0
C      1  0.3613180000000  0.6069560000000  0.3242150000000 1.0
C      1  0.4437770000000  0.3519710000000  0.5478440000000 1.0
C      1  0.4438220000000  0.4087310000000  0.3739890000000 1.0
C      1  0.4437490000000  0.5916370000000  0.3742720000000 1.0
C      1  0.4437460000000  0.6478620000000  0.5483050000000 1.0
C      1  0.4436690000000  0.4997350000000  0.6554860000000 1.0
C      1  0.4437780000000  0.3518740000000  0.4521320000000 1.0
C      1  0.4438740000000  0.4086680000000  0.6260940000000 1.0
C      1  0.4437390000000  0.5916360000000  0.6257380000000 1.0
C      1  0.4437800000000  0.6478900000000  0.4516950000000 1.0
C      1  0.4437070000000  0.4997290000000  0.3444830000000 1.0
END
