TITL C-1525613-7943-4538 0.00551887402154774 3375 -8606.36748084806 0 0 60 (C1) n - 1
REM
REM in /home/nfs/bkarasulu/CARBON/AIRSS/Generating-Clusters/ReaxFF-fromJPCA2015/Units_Real/Try2-Higher-symm/Only-C60
REM
REM
REM
REM
REM
REM ./C.cell (863b2abdce7293c0672fb3ba77bf323a)
REM AIRSS Version 0.9.1 bugfix July 2018 build 013d7b7c2542+ Fri, 06 Jul 2018 19:26:36 +0100
REM compiler GCC version 9.2.1 20190827 (Red Hat 9.2.1-1)
REM options -cpp -mtune=generic -march=x86-64 -g -O0 -fpre-include=/usr/include/finclude/math-vector-fortran.h
REM seed 1396014608 1567615556 1351490525 -1963353133 1062114338 1234286791 -1593313434 1962400071 -672679922 -1734527329 383815727 621553828 296721218 1055180946 2083677379 1527767495 -1079963621 489674424 -12318720 -881185302 -465469880 -1200287797 -1951982937 1460385576 -162642253 -349934120 1915926014 42959279 1360871840 1947812118 389715880 -220988668 -715591082
REM
CELL 1.54180   15.00000   15.00000   15.00000   90.00000   90.00000   90.00000
LATT -1
SFAC C  
C      1  0.3887700000000  0.4015390000000  0.6826430000000 1.0
C      1  0.5169480000000  0.6016870000000  0.7100900000000 1.0
C      1  0.6309300000000  0.4014530000000  0.6617680000000 1.0
C      1  0.7021970000000  0.6013390000000  0.5492070000000 1.0
C      1  0.6978140000000  0.3997610000000  0.4180030000000 1.0
C      1  0.6118820000000  0.5989540000000  0.3180020000000 1.0
C      1  0.4856690000000  0.3982130000000  0.2873700000000 1.0
C      1  0.3696860000000  0.6004540000000  0.3373340000000 1.0
C      1  0.2964420000000  0.3959850000000  0.4540160000000 1.0
C      1  0.3026720000000  0.6007030000000  0.5826120000000 1.0
C      1  0.4446850000000  0.6418620000000  0.6678330000000 1.0
C      1  0.5486660000000  0.3600020000000  0.6707270000000 1.0
C      1  0.6434180000000  0.6396500000000  0.6089760000000 1.0
C      1  0.6903300000000  0.3637250000000  0.5028020000000 1.0
C      1  0.6500610000000  0.6357340000000  0.3930430000000 1.0
C      1  0.5565660000000  0.3579250000000  0.3322940000000 1.0
C      1  0.4524200000000  0.6411020000000  0.3296550000000 1.0
C      1  0.3513480000000  0.3508560000000  0.3942400000000 1.0
C      1  0.3122140000000  0.6362480000000  0.4979880000000 1.0
C      1  0.3498550000000  0.3650020000000  0.6081790000000 1.0
C      1  0.7071760000000  0.5584780000000  0.4111110000000 1.0
C      1  0.6165040000000  0.4385260000000  0.3090430000000 1.0
C      1  0.4844680000000  0.5573470000000  0.2761720000000 1.0
C      1  0.3667530000000  0.4461690000000  0.3437040000000 1.0
C      1  0.2773670000000  0.5556160000000  0.4526300000000 1.0
C      1  0.2927550000000  0.4421370000000  0.5898490000000 1.0
C      1  0.3850600000000  0.5621760000000  0.6909510000000 1.0
C      1  0.5161650000000  0.4431220000000  0.7238280000000 1.0
C      1  0.6451830000000  0.5573660000000  0.6677760000000 1.0
C      1  0.7226840000000  0.4452120000000  0.5480300000000 1.0
C      1  0.5674680000000  0.6951830000000  0.5635510000000 1.0
C      1  0.5810730000000  0.3236430000000  0.5072350000000 1.0
C      1  0.5724750000000  0.6798300000000  0.4582840000000 1.0
C      1  0.5240530000000  0.3140830000000  0.4165310000000 1.0
C      1  0.4805480000000  0.6893270000000  0.4125860000000 1.0
C      1  0.4307430000000  0.3038620000000  0.4374210000000 1.0
C      1  0.4195810000000  0.6750560000000  0.4906550000000 1.0
C      1  0.4278020000000  0.3211500000000  0.5440440000000 1.0
C      1  0.4741080000000  0.6860760000000  0.5818350000000 1.0
C      1  0.5207970000000  0.3132110000000  0.5870550000000 1.0
C      1  0.5774780000000  0.5258270000000  0.2720650000000 1.0
C      1  0.4312480000000  0.4720750000000  0.2702870000000 1.0
C      1  0.3114750000000  0.5346770000000  0.3635140000000 1.0
C      1  0.2598830000000  0.4666600000000  0.5004130000000 1.0
C      1  0.3058410000000  0.5314310000000  0.6431250000000 1.0
C      1  0.4237850000000  0.4745590000000  0.7285270000000 1.0
C      1  0.5718890000000  0.5291470000000  0.7282560000000 1.0
C      1  0.6893100000000  0.4691590000000  0.6386060000000 1.0
C      1  0.7412060000000  0.5333080000000  0.5005580000000 1.0
C      1  0.6948130000000  0.4692130000000  0.3579090000000 1.0
C      1  0.5181010000000  0.5535870000000  0.4269910000000 1.0
C      1  0.4504550000000  0.4393460000000  0.4213940000000 1.0
C      1  0.4310640000000  0.5750550000000  0.4695670000000 1.0
C      1  0.4286570000000  0.4147820000000  0.5097630000000 1.0
C      1  0.4411840000000  0.5393840000000  0.5584190000000 1.0
C      1  0.4880350000000  0.4517170000000  0.5773570000000 1.0
C      1  0.5336620000000  0.5504690000000  0.5722800000000 1.0
C      1  0.5692280000000  0.4226180000000  0.5175500000000 1.0
C      1  0.5761100000000  0.5839910000000  0.4915530000000 1.0
C      1  0.5412430000000  0.4632310000000  0.4327940000000 1.0
END
