TITL C-1525613-7943-4758 0.0037882841614805 3375 -9570.75499070623 0 0 60 (D10) n - 1
REM
REM in /home/nfs/bkarasulu/CARBON/AIRSS/Generating-Clusters/ReaxFF-fromJPCA2015/Units_Real/Try2-Higher-symm/Only-C60
REM
REM
REM
REM
REM
REM ./C.cell (863b2abdce7293c0672fb3ba77bf323a)
REM AIRSS Version 0.9.1 bugfix July 2018 build 013d7b7c2542+ Fri, 06 Jul 2018 19:26:36 +0100
REM compiler GCC version 9.2.1 20190827 (Red Hat 9.2.1-1)
REM options -cpp -mtune=generic -march=x86-64 -g -O0 -fpre-include=/usr/include/finclude/math-vector-fortran.h
REM seed 1784575921 -1823834375 297211088 2009134435 1795909037 490382845 955399327 739444070 -1302858839 1106439192 930980521 224856303 1579567450 -2136281106 -1289185468 319700754 1663454197 -1916523121 -307976359 1816691244 732373137 -931023541 838458922 -764292275 -2063354502 -540133036 -1958837884 -315332310 -248382577 -2054010667 -1548901419 -1743968490 -1857372837
REM
CELL 1.54180   15.00000   15.00000   15.00000   90.00000   90.00000   90.00000
LATT -1
SFAC C  
C      1  0.5397480000000  0.3484310000000  0.3562970000000 1.0
C      1  0.4432080000000  0.3544490000000  0.3563450000000 1.0
C      1  0.3684240000000  0.4158170000000  0.3563500000000 1.0
C      1  0.3436460000000  0.5093180000000  0.3563020000000 1.0
C      1  0.3787990000000  0.5994260000000  0.3562770000000 1.0
C      1  0.4603770000000  0.6514000000000  0.3562800000000 1.0
C      1  0.5569380000000  0.6456860000000  0.3562920000000 1.0
C      1  0.6316940000000  0.5843340000000  0.3563150000000 1.0
C      1  0.6561810000000  0.4907540000000  0.3563110000000 1.0
C      1  0.6212150000000  0.4005670000000  0.3562960000000 1.0
C      1  0.7571520000000  0.5671690000000  0.5482180000000 1.0
C      1  0.7464840000000  0.4034110000000  0.5496210000000 1.0
C      1  0.6434430000000  0.2761120000000  0.5491710000000 1.0
C      1  0.4847210000000  0.2357090000000  0.5495550000000 1.0
C      1  0.3314980000000  0.2945490000000  0.5481370000000 1.0
C      1  0.2438120000000  0.4332980000000  0.5495350000000 1.0
C      1  0.2523700000000  0.5968570000000  0.5491390000000 1.0
C      1  0.3570410000000  0.7228200000000  0.5495910000000 1.0
C      1  0.5155450000000  0.7653350000000  0.5482050000000 1.0
C      1  0.6678450000000  0.7046550000000  0.5495980000000 1.0
C      1  0.4143550000000  0.2794470000000  0.5921550000000 1.0
C      1  0.3004670000000  0.3728530000000  0.5921430000000 1.0
C      1  0.2638100000000  0.5135630000000  0.5923290000000 1.0
C      1  0.3172980000000  0.6502620000000  0.5923490000000 1.0
C      1  0.4396630000000  0.7287630000000  0.5921930000000 1.0
C      1  0.5866910000000  0.7202740000000  0.5922700000000 1.0
C      1  0.6990370000000  0.6281260000000  0.5922700000000 1.0
C      1  0.7361460000000  0.4856000000000  0.5922190000000 1.0
C      1  0.6831060000000  0.3502420000000  0.5923750000000 1.0
C      1  0.5595170000000  0.2710350000000  0.5923540000000 1.0
C      1  0.5154870000000  0.7642200000000  0.4503760000000 1.0
C      1  0.6685320000000  0.7054940000000  0.4517760000000 1.0
C      1  0.7560470000000  0.5668840000000  0.4503890000000 1.0
C      1  0.7477430000000  0.4031980000000  0.4516710000000 1.0
C      1  0.6437640000000  0.2756330000000  0.4506190000000 1.0
C      1  0.4844110000000  0.2345480000000  0.4515990000000 1.0
C      1  0.3322370000000  0.2954400000000  0.4502970000000 1.0
C      1  0.2427620000000  0.4327690000000  0.4515790000000 1.0
C      1  0.2518630000000  0.5970810000000  0.4505860000000 1.0
C      1  0.3565920000000  0.7240290000000  0.4516410000000 1.0
C      1  0.5395250000000  0.3486680000000  0.6438480000000 1.0
C      1  0.4429730000000  0.3542160000000  0.6437530000000 1.0
C      1  0.3681840000000  0.4155520000000  0.6437470000000 1.0
C      1  0.3438490000000  0.5091510000000  0.6438330000000 1.0
C      1  0.3791000000000  0.5991890000000  0.6438270000000 1.0
C      1  0.4604950000000  0.6514230000000  0.6437370000000 1.0
C      1  0.5570530000000  0.6458310000000  0.6438080000000 1.0
C      1  0.6318320000000  0.5844950000000  0.6438070000000 1.0
C      1  0.6562220000000  0.4909000000000  0.6437570000000 1.0
C      1  0.6209230000000  0.4008590000000  0.6438460000000 1.0
C      1  0.4134270000000  0.2799380000000  0.4076760000000 1.0
C      1  0.3011710000000  0.3720360000000  0.4076700000000 1.0
C      1  0.2634500000000  0.5140230000000  0.4071680000000 1.0
C      1  0.3166750000000  0.6503140000000  0.4071870000000 1.0
C      1  0.4406870000000  0.7291330000000  0.4077020000000 1.0
C      1  0.5856700000000  0.7205590000000  0.4077320000000 1.0
C      1  0.6994970000000  0.6271640000000  0.4077490000000 1.0
C      1  0.7362650000000  0.4866610000000  0.4077280000000 1.0
C      1  0.6832780000000  0.3496130000000  0.4072170000000 1.0
C      1  0.5600530000000  0.2707170000000  0.4071850000000 1.0
END
