TITL C-1525613-7943-6864 0.777382475947925 3375 -8693.33718836888 0 0 60 (C1) n - 1
REM
REM in /home/nfs/bkarasulu/CARBON/AIRSS/Generating-Clusters/ReaxFF-fromJPCA2015/Units_Real/Try2-Higher-symm/Only-C60
REM
REM
REM
REM
REM
REM ./C.cell (863b2abdce7293c0672fb3ba77bf323a)
REM AIRSS Version 0.9.1 bugfix July 2018 build 013d7b7c2542+ Fri, 06 Jul 2018 19:26:36 +0100
REM compiler GCC version 9.2.1 20190827 (Red Hat 9.2.1-1)
REM options -cpp -mtune=generic -march=x86-64 -g -O0 -fpre-include=/usr/include/finclude/math-vector-fortran.h
REM seed -1188264043 -574399389 -412556398 -1848433177 1716652324 1097116097 -1303967617 -1857199464 -881851066 -115779912 -1062787791 -1248650320 1107364800 1005620241 -1559402246 1912799523 -1964979973 997621557 -1616248321 -1771689307 2069641589 1931171953 1496963878 1713768859 -2095491593 1298340666 874997238 -446673253 794432349 694912831 -1788611493 1126614794 1698006731
REM
CELL 1.54180   15.00000   15.00000   15.00000   90.00000   90.00000   90.00000
LATT -1
SFAC C  
C      1  0.5935470000000  0.6933700000000  0.3717390000000 1.0
C      1  0.6504900000000  0.6932250000000  0.5496600000000 1.0
C      1  0.4991290000000  0.6929510000000  0.6587630000000 1.0
C      1  0.3488400000000  0.6926120000000  0.5485200000000 1.0
C      1  0.4066400000000  0.6929810000000  0.3710630000000 1.0
C      1  0.5936200000000  0.6932720000000  0.6283210000000 1.0
C      1  0.6504800000000  0.6932260000000  0.4504260000000 1.0
C      1  0.4990800000000  0.6930580000000  0.3413090000000 1.0
C      1  0.3488190000000  0.6925970000000  0.4515160000000 1.0
C      1  0.4067170000000  0.6929820000000  0.6289510000000 1.0
C      1  0.5228260000000  0.6281880000000  0.2698300000000 1.0
C      1  0.7274550000000  0.6299020000000  0.4510590000000 1.0
C      1  0.6163210000000  0.6294360000000  0.7013460000000 1.0
C      1  0.3445310000000  0.6290010000000  0.6729430000000 1.0
C      1  0.2881060000000  0.6278020000000  0.4068530000000 1.0
C      1  0.5230110000000  0.6280130000000  0.7300940000000 1.0
C      1  0.7272790000000  0.6298690000000  0.5489840000000 1.0
C      1  0.6164010000000  0.6297840000000  0.2984270000000 1.0
C      1  0.3444590000000  0.6289610000000  0.3271140000000 1.0
C      1  0.2881230000000  0.6278240000000  0.5931820000000 1.0
C      1  0.3791990000000  0.5447350000000  0.7086390000000 1.0
C      1  0.2659680000000  0.5436660000000  0.4522750000000 1.0
C      1  0.4713600000000  0.5445250000000  0.2630740000000 1.0
C      1  0.7205530000000  0.5463180000000  0.4001340000000 1.0
C      1  0.6626960000000  0.5458190000000  0.6787510000000 1.0
C      1  0.3788050000000  0.5445670000000  0.2913370000000 1.0
C      1  0.2658990000000  0.5437400000000  0.5477480000000 1.0
C      1  0.4716160000000  0.5440960000000  0.7371010000000 1.0
C      1  0.7198220000000  0.5463440000000  0.5997640000000 1.0
C      1  0.6629240000000  0.5461820000000  0.3210590000000 1.0
C      1  0.3025060000000  0.3758490000000  0.4162990000000 1.0
C      1  0.5189470000000  0.3738170000000  0.2846970000000 1.0
C      1  0.7114240000000  0.3729410000000  0.4516350000000 1.0
C      1  0.6090760000000  0.3743870000000  0.6843750000000 1.0
C      1  0.3589580000000  0.3759230000000  0.6614520000000 1.0
C      1  0.3025450000000  0.3755150000000  0.5836530000000 1.0
C      1  0.5194900000000  0.3749460000000  0.7129750000000 1.0
C      1  0.7114720000000  0.3729330000000  0.5484920000000 1.0
C      1  0.6114270000000  0.3729250000000  0.3137770000000 1.0
C      1  0.3592340000000  0.3764450000000  0.3387270000000 1.0
C      1  0.4838300000000  0.4608700000000  0.6893270000000 1.0
C      1  0.3210650000000  0.4644900000000  0.5466910000000 1.0
C      1  0.3975240000000  0.4654060000000  0.3434780000000 1.0
C      1  0.6204240000000  0.4627910000000  0.3534040000000 1.0
C      1  0.6765650000000  0.4628540000000  0.5700450000000 1.0
C      1  0.4853900000000  0.4619490000000  0.3123010000000 1.0
C      1  0.3209430000000  0.4646620000000  0.4534080000000 1.0
C      1  0.3980200000000  0.4652310000000  0.6563540000000 1.0
C      1  0.6230120000000  0.4617720000000  0.6469630000000 1.0
C      1  0.6763650000000  0.4629260000000  0.4306680000000 1.0
C      1  0.4994580000000  0.2956340000000  0.6589050000000 1.0
C      1  0.3486750000000  0.2958130000000  0.5487410000000 1.0
C      1  0.4066550000000  0.2960100000000  0.3711560000000 1.0
C      1  0.5933670000000  0.2940870000000  0.3719460000000 1.0
C      1  0.6505390000000  0.2944950000000  0.5496520000000 1.0
C      1  0.4993180000000  0.2945250000000  0.3413300000000 1.0
C      1  0.3484980000000  0.2960880000000  0.4512090000000 1.0
C      1  0.4068160000000  0.2960090000000  0.6288760000000 1.0
C      1  0.5932890000000  0.2956340000000  0.6286320000000 1.0
C      1  0.6504480000000  0.2940280000000  0.4508460000000 1.0
END
