TITL C-1525613-7943-5328 -0.00287595776784625 3375 -9249.85919549472 0 0 60 (C1) n - 1
REM
REM in /home/nfs/bkarasulu/CARBON/AIRSS/Generating-Clusters/ReaxFF-fromJPCA2015/Units_Real/Try2-Higher-symm/Only-C60
REM
REM
REM
REM
REM
REM ./C.cell (863b2abdce7293c0672fb3ba77bf323a)
REM AIRSS Version 0.9.1 bugfix July 2018 build 013d7b7c2542+ Fri, 06 Jul 2018 19:26:36 +0100
REM compiler GCC version 9.2.1 20190827 (Red Hat 9.2.1-1)
REM options -cpp -mtune=generic -march=x86-64 -g -O0 -fpre-include=/usr/include/finclude/math-vector-fortran.h
REM seed 955773070 1588618061 -1700111165 1941229178 -1330252621 -2061895254 510139016 860767344 -41475438 2027580123 -1443244063 1851119451 830539043 160194797 1365562712 420706872 1328453482 -1206090199 1920157210 -1255109620 169367761 -356871097 1491363041 -630734383 -1270370888 -1689718705 419478809 2042461419 -1602333733 1639261565 -289481061 -1629110105 -223492094
REM
CELL 1.54180   15.00000   15.00000   15.00000   90.00000   90.00000   90.00000
LATT -1
SFAC C  
C      1  0.6780940000000  0.3460100000000  0.5767930000000 1.0
C      1  0.6753390000000  0.4301900000000  0.6316480000000 1.0
C      1  0.6802390000000  0.5174170000000  0.6041600000000 1.0
C      1  0.6714220000000  0.6079210000000  0.5965800000000 1.0
C      1  0.6761840000000  0.6683270000000  0.5167910000000 1.0
C      1  0.6743930000000  0.6516520000000  0.4208890000000 1.0
C      1  0.6666590000000  0.5674820000000  0.3721710000000 1.0
C      1  0.6717760000000  0.4835920000000  0.4008970000000 1.0
C      1  0.6627250000000  0.3959170000000  0.4064220000000 1.0
C      1  0.6712450000000  0.3334470000000  0.4805940000000 1.0
C      1  0.4699400000000  0.4687870000000  0.7618460000000 1.0
C      1  0.4681440000000  0.6276700000000  0.7469050000000 1.0
C      1  0.4767250000000  0.7016030000000  0.5988200000000 1.0
C      1  0.4731680000000  0.7670340000000  0.4484100000000 1.0
C      1  0.4881170000000  0.6647900000000  0.3259160000000 1.0
C      1  0.4700380000000  0.5319610000000  0.2356480000000 1.0
C      1  0.4693670000000  0.3733530000000  0.2545630000000 1.0
C      1  0.4764490000000  0.2989740000000  0.4010550000000 1.0
C      1  0.4729480000000  0.2326670000000  0.5512900000000 1.0
C      1  0.4883590000000  0.3339680000000  0.6732480000000 1.0
C      1  0.5226820000000  0.6638230000000  0.6752550000000 1.0
C      1  0.5219220000000  0.7489580000000  0.5294750000000 1.0
C      1  0.5294430000000  0.7299880000000  0.3788680000000 1.0
C      1  0.5291360000000  0.5958590000000  0.2753290000000 1.0
C      1  0.5145850000000  0.4500900000000  0.2248300000000 1.0
C      1  0.5221480000000  0.3373220000000  0.3258080000000 1.0
C      1  0.5222460000000  0.2527960000000  0.4706010000000 1.0
C      1  0.5288860000000  0.2684570000000  0.6212920000000 1.0
C      1  0.5291900000000  0.4037740000000  0.7243670000000 1.0
C      1  0.5133290000000  0.5488870000000  0.7750930000000 1.0
C      1  0.6127240000000  0.5498780000000  0.2944910000000 1.0
C      1  0.5995090000000  0.4579790000000  0.2656290000000 1.0
C      1  0.6071120000000  0.3845040000000  0.3285890000000 1.0
C      1  0.6117250000000  0.2610580000000  0.4952280000000 1.0
C      1  0.6174910000000  0.2702090000000  0.5889940000000 1.0
C      1  0.6137040000000  0.4496340000000  0.7082180000000 1.0
C      1  0.5987380000000  0.5417440000000  0.7352520000000 1.0
C      1  0.6075320000000  0.6166820000000  0.6740880000000 1.0
C      1  0.6144470000000  0.7428400000000  0.5038530000000 1.0
C      1  0.6159560000000  0.7268690000000  0.4105990000000 1.0
C      1  0.3497790000000  0.5770080000000  0.3316170000000 1.0
C      1  0.3271460000000  0.4495460000000  0.2917560000000 1.0
C      1  0.3342340000000  0.3647690000000  0.3438230000000 1.0
C      1  0.3358260000000  0.2952850000000  0.4911260000000 1.0
C      1  0.3343160000000  0.3132980000000  0.5889580000000 1.0
C      1  0.3502740000000  0.4225980000000  0.6670100000000 1.0
C      1  0.3269470000000  0.5499170000000  0.7067590000000 1.0
C      1  0.3338740000000  0.6346800000000  0.6548600000000 1.0
C      1  0.3364020000000  0.7041620000000  0.5080790000000 1.0
C      1  0.3346220000000  0.6859250000000  0.4103530000000 1.0
C      1  0.3845070000000  0.6774840000000  0.5861470000000 1.0
C      1  0.3784630000000  0.7585260000000  0.4469370000000 1.0
C      1  0.3939990000000  0.6465380000000  0.3499690000000 1.0
C      1  0.3796490000000  0.5243800000000  0.2741370000000 1.0
C      1  0.3756700000000  0.3758730000000  0.2624240000000 1.0
C      1  0.3840190000000  0.3222000000000  0.4132070000000 1.0
C      1  0.3779160000000  0.2408440000000  0.5522310000000 1.0
C      1  0.3942430000000  0.3525520000000  0.6490710000000 1.0
C      1  0.3811450000000  0.4759950000000  0.7237540000000 1.0
C      1  0.3731360000000  0.6243050000000  0.7372780000000 1.0
END
