TITL C-1525613-7943-6143 0.0042068535667112 3375 -9567.72920191012 0 0 60 (D10) n - 1
REM
REM in /home/nfs/bkarasulu/CARBON/AIRSS/Generating-Clusters/ReaxFF-fromJPCA2015/Units_Real/Try2-Higher-symm/Only-C60
REM
REM
REM
REM
REM
REM ./C.cell (863b2abdce7293c0672fb3ba77bf323a)
REM AIRSS Version 0.9.1 bugfix July 2018 build 013d7b7c2542+ Fri, 06 Jul 2018 19:26:36 +0100
REM compiler GCC version 9.2.1 20190827 (Red Hat 9.2.1-1)
REM options -cpp -mtune=generic -march=x86-64 -g -O0 -fpre-include=/usr/include/finclude/math-vector-fortran.h
REM seed -516508284 -2031316454 -92975897 -2125710222 -507603903 -197266177 -658219982 -1512364164 1150929320 -1065375431 230250664 1466622635 193012639 -1307057512 -60744222 -292915011 1370403943 -602824432 852626574 1214435421 931295186 -992854976 -1259726558 -272067769 -950088450 -628156818 -1437047230 -1296694081 1737832046 1542931878 1111249527 -1342680354 742628494
REM
CELL 1.54180   15.00000   15.00000   15.00000   90.00000   90.00000   90.00000
LATT -1
SFAC C  
C      1  0.6570870000000  0.3577550000000  0.5053180000000 1.0
C      1  0.6302100000000  0.3577560000000  0.4119700000000 1.0
C      1  0.5536000000000  0.3577560000000  0.3522450000000 1.0
C      1  0.4565160000000  0.3577550000000  0.3489580000000 1.0
C      1  0.3760420000000  0.3577580000000  0.4033660000000 1.0
C      1  0.3429130000000  0.3577550000000  0.4946820000000 1.0
C      1  0.3697900000000  0.3577560000000  0.5880300000000 1.0
C      1  0.4464000000000  0.3577560000000  0.6477550000000 1.0
C      1  0.5434840000000  0.3577550000000  0.6510420000000 1.0
C      1  0.6239580000000  0.3577580000000  0.5966340000000 1.0
C      1  0.3760670000000  0.6422050000000  0.4033270000000 1.0
C      1  0.3429150000000  0.6422010000000  0.4946370000000 1.0
C      1  0.3697610000000  0.6422070000000  0.5879950000000 1.0
C      1  0.4463560000000  0.6422060000000  0.6477420000000 1.0
C      1  0.5434410000000  0.6422030000000  0.6510550000000 1.0
C      1  0.6239330000000  0.6422050000000  0.5966730000000 1.0
C      1  0.6570850000000  0.6422010000000  0.5053630000000 1.0
C      1  0.6302390000000  0.6422070000000  0.4120050000000 1.0
C      1  0.5536440000000  0.6422060000000  0.3522580000000 1.0
C      1  0.4565590000000  0.6422030000000  0.3489450000000 1.0
C      1  0.2991120000000  0.4063310000000  0.6357910000000 1.0
C      1  0.4172970000000  0.4063290000000  0.7279400000000 1.0
C      1  0.5670680000000  0.4063290000000  0.7330200000000 1.0
C      1  0.6912240000000  0.4063310000000  0.6490920000000 1.0
C      1  0.7423410000000  0.4063290000000  0.5082200000000 1.0
C      1  0.7008880000000  0.4063310000000  0.3642090000000 1.0
C      1  0.5827030000000  0.4063290000000  0.2720600000000 1.0
C      1  0.4329320000000  0.4063290000000  0.2669800000000 1.0
C      1  0.3087760000000  0.4063310000000  0.3509080000000 1.0
C      1  0.2576590000000  0.4063290000000  0.4917800000000 1.0
C      1  0.7423720000000  0.5936850000000  0.5082630000000 1.0
C      1  0.7009390000000  0.5936850000000  0.3642220000000 1.0
C      1  0.5827530000000  0.5936860000000  0.2720420000000 1.0
C      1  0.4329620000000  0.5936840000000  0.2669380000000 1.0
C      1  0.3087720000000  0.5936870000000  0.3508540000000 1.0
C      1  0.2576280000000  0.5936850000000  0.4917370000000 1.0
C      1  0.2990610000000  0.5936850000000  0.6357780000000 1.0
C      1  0.4172470000000  0.5936860000000  0.7279580000000 1.0
C      1  0.5670380000000  0.5936840000000  0.7330620000000 1.0
C      1  0.6912280000000  0.5936870000000  0.6491460000000 1.0
C      1  0.2376240000000  0.4508960000000  0.5755140000000 1.0
C      1  0.3321240000000  0.4508960000000  0.7153100000000 1.0
C      1  0.4907410000000  0.4508960000000  0.7728720000000 1.0
C      1  0.6528950000000  0.4508960000000  0.7261950000000 1.0
C      1  0.7566530000000  0.4508960000000  0.5931260000000 1.0
C      1  0.7623760000000  0.4508960000000  0.4244860000000 1.0
C      1  0.6678760000000  0.4508960000000  0.2846900000000 1.0
C      1  0.5092590000000  0.4508960000000  0.2271280000000 1.0
C      1  0.3471050000000  0.4508960000000  0.2738050000000 1.0
C      1  0.2433470000000  0.4508960000000  0.4068740000000 1.0
C      1  0.4907010000000  0.5491280000000  0.7728970000000 1.0
C      1  0.6528800000000  0.5491280000000  0.7262400000000 1.0
C      1  0.7566660000000  0.5491290000000  0.5931730000000 1.0
C      1  0.7624120000000  0.5491280000000  0.4245150000000 1.0
C      1  0.6679240000000  0.5491280000000  0.2846920000000 1.0
C      1  0.5092990000000  0.5491280000000  0.2271030000000 1.0
C      1  0.3471200000000  0.5491280000000  0.2737600000000 1.0
C      1  0.2433340000000  0.5491290000000  0.4068270000000 1.0
C      1  0.2375880000000  0.5491280000000  0.5754850000000 1.0
C      1  0.3320760000000  0.5491280000000  0.7153080000000 1.0
END
