TITL C-1525613-7943-655 -0.0946763139044313 3375 -8938.66050146191 0 0 60 (C2) n - 1
REM
REM in /home/nfs/bkarasulu/CARBON/AIRSS/Generating-Clusters/ReaxFF-fromJPCA2015/Units_Real/Try2-Higher-symm/Only-C60
REM
REM
REM
REM
REM
REM ./C.cell (863b2abdce7293c0672fb3ba77bf323a)
REM AIRSS Version 0.9.1 bugfix July 2018 build 013d7b7c2542+ Fri, 06 Jul 2018 19:26:36 +0100
REM compiler GCC version 9.2.1 20190827 (Red Hat 9.2.1-1)
REM options -cpp -mtune=generic -march=x86-64 -g -O0 -fpre-include=/usr/include/finclude/math-vector-fortran.h
REM seed -392618366 1779626514 1504548880 -1447637571 -137878792 2126017511 -2030812276 126386289 -740591693 693241748 1735609349 268545960 388410767 -33681497 -770174498 660260709 343212571 -719699051 445839286 -616131164 -402366010 1886904487 -1126537406 -721256620 42436751 -1135838306 365578068 1422208191 238598594 -174603680 1259923815 713479474 1000270686
REM
CELL 1.54180   15.00000   15.00000   15.00000   90.00000   90.00000   90.00000
LATT -1
SFAC C  
C      1  0.3832670000000  0.7522940000000  0.5493480000000 1.0
C      1  0.5102450000000  0.7027480000000  0.6579040000000 1.0
C      1  0.6082820000000  0.7203420000000  0.5189700000000 1.0
C      1  0.5394550000000  0.7305080000000  0.4021380000000 1.0
C      1  0.4039070000000  0.7344800000000  0.4193280000000 1.0
C      1  0.3832670000000  0.2477060000000  0.4506520000000 1.0
C      1  0.5102450000000  0.2972520000000  0.3420960000000 1.0
C      1  0.6082820000000  0.2796580000000  0.4810300000000 1.0
C      1  0.5394550000000  0.2694920000000  0.5978620000000 1.0
C      1  0.4039060000000  0.2655200000000  0.5806720000000 1.0
C      1  0.4557630000000  0.5472370000000  0.7340430000000 1.0
C      1  0.7109840000000  0.5461400000000  0.6244660000000 1.0
C      1  0.6933830000000  0.5478820000000  0.3411600000000 1.0
C      1  0.4100910000000  0.5416130000000  0.2762340000000 1.0
C      1  0.2551780000000  0.5476920000000  0.5182950000000 1.0
C      1  0.4557630000000  0.4527630000000  0.2659580000000 1.0
C      1  0.7109850000000  0.4538600000000  0.3755340000000 1.0
C      1  0.6933830000000  0.4521170000000  0.6588400000000 1.0
C      1  0.4100910000000  0.4583870000000  0.7237660000000 1.0
C      1  0.2551780000000  0.4523090000000  0.4817080000000 1.0
C      1  0.5688970000000  0.5667680000000  0.4505190000000 1.0
C      1  0.4794420000000  0.5714600000000  0.4225590000000 1.0
C      1  0.4165050000000  0.5586540000000  0.4975620000000 1.0
C      1  0.4758100000000  0.5806650000000  0.5721740000000 1.0
C      1  0.5639540000000  0.5718800000000  0.5468200000000 1.0
C      1  0.5688980000000  0.4332320000000  0.5494810000000 1.0
C      1  0.4794420000000  0.4285400000000  0.5774410000000 1.0
C      1  0.4165040000000  0.4413450000000  0.5024380000000 1.0
C      1  0.4758090000000  0.4193350000000  0.4278270000000 1.0
C      1  0.5639540000000  0.4281200000000  0.4531800000000 1.0
C      1  0.5395560000000  0.5076040000000  0.7336720000000 1.0
C      1  0.7371150000000  0.5122100000000  0.5415580000000 1.0
C      1  0.6188740000000  0.5195540000000  0.2909060000000 1.0
C      1  0.3444290000000  0.5067700000000  0.3340260000000 1.0
C      1  0.2916930000000  0.5187270000000  0.6006110000000 1.0
C      1  0.5395550000000  0.4923960000000  0.2663280000000 1.0
C      1  0.7371150000000  0.4877900000000  0.4584420000000 1.0
C      1  0.6188740000000  0.4804460000000  0.7090940000000 1.0
C      1  0.3444290000000  0.4932300000000  0.6659750000000 1.0
C      1  0.2916930000000  0.4812730000000  0.3993850000000 1.0
C      1  0.6438010000000  0.6064110000000  0.4025700000000 1.0
C      1  0.4561510000000  0.6052040000000  0.3359780000000 1.0
C      1  0.3282490000000  0.6064820000000  0.4931240000000 1.0
C      1  0.4591670000000  0.6186060000000  0.6609160000000 1.0
C      1  0.6357600000000  0.6089760000000  0.6032580000000 1.0
C      1  0.6438010000000  0.3935900000000  0.5974300000000 1.0
C      1  0.4561510000000  0.3947960000000  0.6640220000000 1.0
C      1  0.3282500000000  0.3935170000000  0.5068770000000 1.0
C      1  0.4591670000000  0.3813940000000  0.3390840000000 1.0
C      1  0.6357600000000  0.3910240000000  0.3967420000000 1.0
C      1  0.4623470000000  0.7071020000000  0.3495240000000 1.0
C      1  0.3361610000000  0.7055030000000  0.4802190000000 1.0
C      1  0.4412450000000  0.7456720000000  0.6137990000000 1.0
C      1  0.6022310000000  0.7017720000000  0.6109330000000 1.0
C      1  0.6280610000000  0.7054700000000  0.4259790000000 1.0
C      1  0.4623470000000  0.2928980000000  0.6504760000000 1.0
C      1  0.3361610000000  0.2944970000000  0.5197810000000 1.0
C      1  0.4412450000000  0.2543280000000  0.3862010000000 1.0
C      1  0.6022310000000  0.2982280000000  0.3890670000000 1.0
C      1  0.6280610000000  0.2945300000000  0.5740210000000 1.0
END
