TITL C-1525613-7943-5888 0.0253731188422971 3375 -9519.13831066124 0 0 60 (D5d) n - 1
REM
REM in /home/nfs/bkarasulu/CARBON/AIRSS/Generating-Clusters/ReaxFF-fromJPCA2015/Units_Real/Try2-Higher-symm/Only-C60
REM
REM
REM
REM
REM
REM ./C.cell (863b2abdce7293c0672fb3ba77bf323a)
REM AIRSS Version 0.9.1 bugfix July 2018 build 013d7b7c2542+ Fri, 06 Jul 2018 19:26:36 +0100
REM compiler GCC version 9.2.1 20190827 (Red Hat 9.2.1-1)
REM options -cpp -mtune=generic -march=x86-64 -g -O0 -fpre-include=/usr/include/finclude/math-vector-fortran.h
REM seed 786865574 1770304949 -645415327 1444076655 -920995563 398998837 -1197313080 -777137251 1253702315 -337941771 -1818031968 507559985 511917703 528625313 1576828039 -10949413 1046415435 1755298083 -665403267 1666723771 1538888787 -1796736476 809058705 -1073640965 -500436740 931229836 -759977692 -660738320 -1968404544 -1762990941 -1724817305 1601163892 -987637287
REM
CELL 1.54180   15.00000   15.00000   15.00000   90.00000   90.00000   90.00000
LATT -1
SFAC C  
C      1  0.7173510000000  0.3776580000000  0.4537110000000 1.0
C      1  0.6111550000000  0.3777060000000  0.6923500000000 1.0
C      1  0.3514790000000  0.3777610000000  0.6651350000000 1.0
C      1  0.2970280000000  0.3777950000000  0.4097740000000 1.0
C      1  0.5231620000000  0.3776920000000  0.2790320000000 1.0
C      1  0.7172300000000  0.3777570000000  0.5463540000000 1.0
C      1  0.6111420000000  0.3778290000000  0.3078070000000 1.0
C      1  0.3515540000000  0.3778220000000  0.3349070000000 1.0
C      1  0.2970130000000  0.3777950000000  0.5901700000000 1.0
C      1  0.5230600000000  0.3777210000000  0.7209330000000 1.0
C      1  0.4994500000000  0.3076490000000  0.3419320000000 1.0
C      1  0.6501680000000  0.3076090000000  0.4506310000000 1.0
C      1  0.5934190000000  0.3076130000000  0.6275210000000 1.0
C      1  0.4076210000000  0.3076870000000  0.6282020000000 1.0
C      1  0.3495300000000  0.3076850000000  0.4517720000000 1.0
C      1  0.4992820000000  0.3075690000000  0.6581080000000 1.0
C      1  0.6500880000000  0.3076320000000  0.5495780000000 1.0
C      1  0.5935210000000  0.3077160000000  0.3726500000000 1.0
C      1  0.4077360000000  0.3077560000000  0.3717860000000 1.0
C      1  0.3494930000000  0.3076370000000  0.5481600000000 1.0
C      1  0.2821460000000  0.6224120000000  0.4535370000000 1.0
C      1  0.4767220000000  0.6224720000000  0.2785460000000 1.0
C      1  0.7034820000000  0.6223560000000  0.4095380000000 1.0
C      1  0.6489070000000  0.6223820000000  0.6655230000000 1.0
C      1  0.3886490000000  0.6224330000000  0.6928670000000 1.0
C      1  0.2821460000000  0.6223910000000  0.5464470000000 1.0
C      1  0.4766970000000  0.6224820000000  0.7214830000000 1.0
C      1  0.7034850000000  0.6223780000000  0.5905340000000 1.0
C      1  0.6490010000000  0.6223850000000  0.3345450000000 1.0
C      1  0.3887320000000  0.6224220000000  0.3071240000000 1.0
C      1  0.7119170000000  0.4588520000000  0.5947160000000 1.0
C      1  0.4753090000000  0.4589070000000  0.7308570000000 1.0
C      1  0.2728050000000  0.4589700000000  0.5478420000000 1.0
C      1  0.3841760000000  0.4589570000000  0.2986750000000 1.0
C      1  0.6555630000000  0.4588100000000  0.3277670000000 1.0
C      1  0.7119580000000  0.4590060000000  0.4050120000000 1.0
C      1  0.4751630000000  0.4590000000000  0.2689270000000 1.0
C      1  0.2727410000000  0.4589920000000  0.4522210000000 1.0
C      1  0.3843000000000  0.4590000000000  0.7013350000000 1.0
C      1  0.6557620000000  0.4589630000000  0.6721340000000 1.0
C      1  0.3499000000000  0.6919420000000  0.5493830000000 1.0
C      1  0.4065410000000  0.6918320000000  0.3726190000000 1.0
C      1  0.5923970000000  0.6918520000000  0.3718490000000 1.0
C      1  0.6505010000000  0.6919500000000  0.5482470000000 1.0
C      1  0.5006920000000  0.6919810000000  0.6580960000000 1.0
C      1  0.3498880000000  0.6919720000000  0.4506130000000 1.0
C      1  0.4064610000000  0.6919600000000  0.6274300000000 1.0
C      1  0.5923400000000  0.6919550000000  0.6282620000000 1.0
C      1  0.6505690000000  0.6919910000000  0.4518650000000 1.0
C      1  0.5007730000000  0.6919670000000  0.3419230000000 1.0
C      1  0.3440030000000  0.5413020000000  0.6725070000000 1.0
C      1  0.2876710000000  0.5413650000000  0.4050020000000 1.0
C      1  0.5247100000000  0.5413640000000  0.2686350000000 1.0
C      1  0.7275850000000  0.5414010000000  0.4520370000000 1.0
C      1  0.6158530000000  0.5413450000000  0.7015480000000 1.0
C      1  0.3439340000000  0.5412260000000  0.3274910000000 1.0
C      1  0.2877580000000  0.5413220000000  0.5950610000000 1.0
C      1  0.5248670000000  0.5412340000000  0.7312020000000 1.0
C      1  0.7276170000000  0.5412070000000  0.5477720000000 1.0
C      1  0.6157950000000  0.5411710000000  0.2983150000000 1.0
END
