TITL C-1525613-7943-6399 -0.0270277706214517 3375 -9217.90173381446 0 0 60 (C5) n - 1
REM
REM in /home/nfs/bkarasulu/CARBON/AIRSS/Generating-Clusters/ReaxFF-fromJPCA2015/Units_Real/Try2-Higher-symm/Only-C60
REM
REM
REM
REM
REM
REM ./C.cell (863b2abdce7293c0672fb3ba77bf323a)
REM AIRSS Version 0.9.1 bugfix July 2018 build 013d7b7c2542+ Fri, 06 Jul 2018 19:26:36 +0100
REM compiler GCC version 9.2.1 20190827 (Red Hat 9.2.1-1)
REM options -cpp -mtune=generic -march=x86-64 -g -O0 -fpre-include=/usr/include/finclude/math-vector-fortran.h
REM seed -1956877479 845561123 1315269494 659092272 -1631798636 1516871237 488071984 -1055104061 1078594595 -608210981 -703170261 761395933 -452840934 -1871189434 301235599 1218619901 1630003039 -1507957808 -673030433 -1349501653 593572744 -1014763735 442142589 -1166274308 1690803519 -33351465 58806566 -2117882429 -589371312 -697045573 1746585947 894691328 -72885167
REM
CELL 1.54180   15.00000   15.00000   15.00000   90.00000   90.00000   90.00000
LATT -1
SFAC C  
C      1  0.6828530000000  0.3351180000000  0.6259950000000 1.0
C      1  0.3994540000000  0.2753240000000  0.6264400000000 1.0
C      1  0.2556420000000  0.5269290000000  0.6254900000000 1.0
C      1  0.4491390000000  0.7417510000000  0.6277870000000 1.0
C      1  0.7138040000000  0.6230110000000  0.6264230000000 1.0
C      1  0.3168350000000  0.3354260000000  0.6262630000000 1.0
C      1  0.6000500000000  0.2752880000000  0.6258640000000 1.0
C      1  0.7453700000000  0.5257830000000  0.6263760000000 1.0
C      1  0.5513780000000  0.7415870000000  0.6274320000000 1.0
C      1  0.2880620000000  0.6238260000000  0.6249880000000 1.0
C      1  0.2946820000000  0.6545410000000  0.5389810000000 1.0
C      1  0.5822470000000  0.7443310000000  0.5413920000000 1.0
C      1  0.7588330000000  0.4969360000000  0.5403610000000 1.0
C      1  0.5766710000000  0.2536030000000  0.5400270000000 1.0
C      1  0.2892460000000  0.3507830000000  0.5403800000000 1.0
C      1  0.7069050000000  0.6540570000000  0.5405620000000 1.0
C      1  0.4168470000000  0.7472050000000  0.5418690000000 1.0
C      1  0.2423640000000  0.4974500000000  0.5398510000000 1.0
C      1  0.4229520000000  0.2532160000000  0.5405360000000 1.0
C      1  0.7106590000000  0.3508460000000  0.5401000000000 1.0
C      1  0.5484230000000  0.6495660000000  0.6713550000000 1.0
C      1  0.6571930000000  0.5005050000000  0.6711230000000 1.0
C      1  0.5488640000000  0.3514690000000  0.6704860000000 1.0
C      1  0.3734100000000  0.4078210000000  0.6708590000000 1.0
C      1  0.3735590000000  0.5921350000000  0.6705940000000 1.0
C      1  0.4524510000000  0.6499900000000  0.6721870000000 1.0
C      1  0.3435920000000  0.5010450000000  0.6702990000000 1.0
C      1  0.4509230000000  0.3514500000000  0.6708210000000 1.0
C      1  0.6266200000000  0.4075200000000  0.6707930000000 1.0
C      1  0.6275430000000  0.5917340000000  0.6711130000000 1.0
C      1  0.4477360000000  0.2334200000000  0.4563800000000 1.0
C      1  0.2310870000000  0.4675130000000  0.4559620000000 1.0
C      1  0.3851580000000  0.7465690000000  0.4569100000000 1.0
C      1  0.6977530000000  0.6840750000000  0.4563450000000 1.0
C      1  0.7367750000000  0.3682340000000  0.4559060000000 1.0
C      1  0.5523650000000  0.2337820000000  0.4559480000000 1.0
C      1  0.7695010000000  0.4675610000000  0.4559540000000 1.0
C      1  0.6129070000000  0.7453750000000  0.4571260000000 1.0
C      1  0.3012680000000  0.6844780000000  0.4550580000000 1.0
C      1  0.2633210000000  0.3678860000000  0.4561570000000 1.0
C      1  0.4513060000000  0.3471650000000  0.3261200000000 1.0
C      1  0.3398870000000  0.4983680000000  0.3252870000000 1.0
C      1  0.4494380000000  0.6514350000000  0.3255080000000 1.0
C      1  0.6287420000000  0.5944070000000  0.3256540000000 1.0
C      1  0.6297640000000  0.4064000000000  0.3255180000000 1.0
C      1  0.5487720000000  0.3473750000000  0.3255310000000 1.0
C      1  0.6595860000000  0.4991560000000  0.3261820000000 1.0
C      1  0.5494460000000  0.6511030000000  0.3268320000000 1.0
C      1  0.3710130000000  0.5936100000000  0.3248530000000 1.0
C      1  0.3700390000000  0.4057390000000  0.3254960000000 1.0
C      1  0.7073310000000  0.6189870000000  0.3803830000000 1.0
C      1  0.6773050000000  0.3392200000000  0.3801740000000 1.0
C      1  0.4019820000000  0.2811800000000  0.3807190000000 1.0
C      1  0.2620120000000  0.5254230000000  0.3798780000000 1.0
C      1  0.4499760000000  0.7333130000000  0.3811940000000 1.0
C      1  0.2926660000000  0.6183320000000  0.3795820000000 1.0
C      1  0.3227010000000  0.3386090000000  0.3804860000000 1.0
C      1  0.5981660000000  0.2815600000000  0.3801850000000 1.0
C      1  0.7376780000000  0.5259020000000  0.3805970000000 1.0
C      1  0.5477500000000  0.7335740000000  0.3813290000000 1.0
END
