TITL C-1525613-7943-3964 0.401611962282075 3375 -7860.53742356615 0 0 60 (C2) n - 1
REM
REM in /home/nfs/bkarasulu/CARBON/AIRSS/Generating-Clusters/ReaxFF-fromJPCA2015/Units_Real/Try2-Higher-symm/Only-C60
REM
REM
REM
REM
REM
REM ./C.cell (863b2abdce7293c0672fb3ba77bf323a)
REM AIRSS Version 0.9.1 bugfix July 2018 build 013d7b7c2542+ Fri, 06 Jul 2018 19:26:36 +0100
REM compiler GCC version 9.2.1 20190827 (Red Hat 9.2.1-1)
REM options -cpp -mtune=generic -march=x86-64 -g -O0 -fpre-include=/usr/include/finclude/math-vector-fortran.h
REM seed 429991258 -1800248941 1667938908 272717739 1879786006 39489336 -233871699 1011957483 -755868856 272348315 -606727775 943326026 867600987 10718402 787479463 37523629 -1638800570 2060866609 -1173423766 -305776086 -364771324 -1732404728 225366548 1375584102 1291078243 -1073759287 -1913884552 -936322792 -1187644649 -2046374965 1201273772 262458677 -601168106
REM
CELL 1.54180   15.00000   15.00000   15.00000   90.00000   90.00000   90.00000
LATT -1
SFAC C  
C      1  0.3796450000000  0.4643600000000  0.6926030000000 1.0
C      1  0.3914320000000  0.3083580000000  0.5149620000000 1.0
C      1  0.3815770000000  0.4148200000000  0.3156390000000 1.0
C      1  0.3791190000000  0.6434990000000  0.3618730000000 1.0
C      1  0.3726320000000  0.6703910000000  0.6377660000000 1.0
C      1  0.6202530000000  0.5354310000000  0.6924640000000 1.0
C      1  0.6085650000000  0.6915910000000  0.5149840000000 1.0
C      1  0.6185240000000  0.5852310000000  0.3156380000000 1.0
C      1  0.6207460000000  0.3565610000000  0.3619690000000 1.0
C      1  0.6273800000000  0.3294520000000  0.6376240000000 1.0
C      1  0.3093590000000  0.5167830000000  0.3765460000000 1.0
C      1  0.3175140000000  0.6303690000000  0.4885050000000 1.0
C      1  0.2723950000000  0.5558240000000  0.6226560000000 1.0
C      1  0.3027470000000  0.4092550000000  0.5865010000000 1.0
C      1  0.3070710000000  0.3935810000000  0.4452400000000 1.0
C      1  0.6907340000000  0.4831260000000  0.3762700000000 1.0
C      1  0.6825120000000  0.3698390000000  0.4885590000000 1.0
C      1  0.7276260000000  0.4442050000000  0.6225520000000 1.0
C      1  0.6972550000000  0.5909760000000  0.5865620000000 1.0
C      1  0.6930950000000  0.6064020000000  0.4453430000000 1.0
C      1  0.7080480000000  0.3629980000000  0.5844260000000 1.0
C      1  0.7107920000000  0.3912370000000  0.3978790000000 1.0
C      1  0.7114360000000  0.5756220000000  0.3551640000000 1.0
C      1  0.7053520000000  0.6640880000000  0.5224970000000 1.0
C      1  0.7257290000000  0.5282290000000  0.6561230000000 1.0
C      1  0.2920190000000  0.6369720000000  0.5844470000000 1.0
C      1  0.2891850000000  0.6087240000000  0.3979220000000 1.0
C      1  0.2886500000000  0.4243660000000  0.3551130000000 1.0
C      1  0.2946620000000  0.3360470000000  0.5225180000000 1.0
C      1  0.2742900000000  0.4717720000000  0.6562970000000 1.0
C      1  0.5608580000000  0.2618020000000  0.4685830000000 1.0
C      1  0.5721990000000  0.4338710000000  0.3018030000000 1.0
C      1  0.5714380000000  0.6564350000000  0.3735450000000 1.0
C      1  0.5498800000000  0.6452030000000  0.6138020000000 1.0
C      1  0.5728150000000  0.4396900000000  0.7008580000000 1.0
C      1  0.4389040000000  0.7386890000000  0.4681490000000 1.0
C      1  0.4277580000000  0.5661130000000  0.3018030000000 1.0
C      1  0.4286640000000  0.3435290000000  0.3735590000000 1.0
C      1  0.4500660000000  0.3546670000000  0.6137720000000 1.0
C      1  0.4271400000000  0.5601340000000  0.7010180000000 1.0
C      1  0.3953830000000  0.4390080000000  0.5959960000000 1.0
C      1  0.4026010000000  0.3896200000000  0.4595540000000 1.0
C      1  0.4050400000000  0.4955590000000  0.3696700000000 1.0
C      1  0.4096220000000  0.6386240000000  0.4584060000000 1.0
C      1  0.4530690000000  0.6158020000000  0.6221820000000 1.0
C      1  0.6046360000000  0.5610130000000  0.5958620000000 1.0
C      1  0.5975550000000  0.6103490000000  0.4595700000000 1.0
C      1  0.5950550000000  0.5044530000000  0.3696200000000 1.0
C      1  0.5903450000000  0.3617710000000  0.4585410000000 1.0
C      1  0.5469180000000  0.3840200000000  0.6220380000000 1.0
C      1  0.4125680000000  0.7482810000000  0.3747080000000 1.0
C      1  0.3721910000000  0.6374170000000  0.7355220000000 1.0
C      1  0.4185970000000  0.3681510000000  0.7107550000000 1.0
C      1  0.4123910000000  0.2593890000000  0.4213270000000 1.0
C      1  0.4125310000000  0.5025250000000  0.2349780000000 1.0
C      1  0.5871750000000  0.2518690000000  0.3751540000000 1.0
C      1  0.6277850000000  0.3623810000000  0.7353630000000 1.0
C      1  0.5813180000000  0.6315550000000  0.7108150000000 1.0
C      1  0.5875920000000  0.7405740000000  0.4214360000000 1.0
C      1  0.5875640000000  0.4973910000000  0.2349700000000 1.0
END
