TITL C-1525613-7943-3921 0.202589323156855 3375 -8472.33852588015 0 0 60 (Cs) n - 1
REM
REM in /home/nfs/bkarasulu/CARBON/AIRSS/Generating-Clusters/ReaxFF-fromJPCA2015/Units_Real/Try2-Higher-symm/Only-C60
REM
REM
REM
REM
REM
REM ./C.cell (863b2abdce7293c0672fb3ba77bf323a)
REM AIRSS Version 0.9.1 bugfix July 2018 build 013d7b7c2542+ Fri, 06 Jul 2018 19:26:36 +0100
REM compiler GCC version 9.2.1 20190827 (Red Hat 9.2.1-1)
REM options -cpp -mtune=generic -march=x86-64 -g -O0 -fpre-include=/usr/include/finclude/math-vector-fortran.h
REM seed 108540824 1715038982 461810521 1957139037 -1911710594 1585772707 1966274253 1969760015 449910627 -1311396816 1246906220 160944274 323499654 -1225774007 -781071563 528255450 -892636537 -1741462171 495320568 -1737723914 -308778816 -745486302 852802110 198020867 -411020540 -217133623 2063871648 732547346 86654022 -256726943 -1135367332 -271633967 1011893529
REM
CELL 1.54180   15.00000   15.00000   15.00000   90.00000   90.00000   90.00000
LATT -1
SFAC C  
C      1  0.5851620000000  0.3627050000000  0.6810250000000 1.0
C      1  0.5675310000000  0.2845040000000  0.4224280000000 1.0
C      1  0.5784140000000  0.5059470000000  0.2681500000000 1.0
C      1  0.5746670000000  0.7115340000000  0.4508910000000 1.0
C      1  0.5954190000000  0.6323330000000  0.6826460000000 1.0
C      1  0.5850100000000  0.3628120000000  0.3190310000000 1.0
C      1  0.5675750000000  0.2844690000000  0.5774730000000 1.0
C      1  0.5784180000000  0.5061930000000  0.7318710000000 1.0
C      1  0.5745820000000  0.7115620000000  0.5491440000000 1.0
C      1  0.5954220000000  0.6322780000000  0.3173780000000 1.0
C      1  0.6372080000000  0.3524660000000  0.5487980000000 1.0
C      1  0.6526530000000  0.4101120000000  0.3735520000000 1.0
C      1  0.6670770000000  0.5921920000000  0.3729330000000 1.0
C      1  0.6523410000000  0.6444820000000  0.5468330000000 1.0
C      1  0.6495770000000  0.5020120000000  0.6592370000000 1.0
C      1  0.6372010000000  0.3524960000000  0.4511080000000 1.0
C      1  0.6526940000000  0.4100070000000  0.6264660000000 1.0
C      1  0.6670220000000  0.5921340000000  0.6270590000000 1.0
C      1  0.6523860000000  0.6444700000000  0.4531500000000 1.0
C      1  0.6495960000000  0.5020430000000  0.3408150000000 1.0
C      1  0.3012240000000  0.6118140000000  0.4580410000000 1.0
C      1  0.2952980000000  0.5915450000000  0.6266200000000 1.0
C      1  0.3023720000000  0.4244210000000  0.6075490000000 1.0
C      1  0.3079760000000  0.3518550000000  0.4474830000000 1.0
C      1  0.2970520000000  0.4949310000000  0.3388610000000 1.0
C      1  0.3012090000000  0.6117880000000  0.5419580000000 1.0
C      1  0.2953110000000  0.5915440000000  0.3733690000000 1.0
C      1  0.3023340000000  0.4244560000000  0.3924880000000 1.0
C      1  0.3079650000000  0.3518620000000  0.5524930000000 1.0
C      1  0.2970460000000  0.4949350000000  0.6611370000000 1.0
C      1  0.4124390000000  0.7080740000000  0.3995880000000 1.0
C      1  0.3395260000000  0.6771020000000  0.6612420000000 1.0
C      1  0.4218770000000  0.3950280000000  0.7218210000000 1.0
C      1  0.3897850000000  0.2933260000000  0.4512100000000 1.0
C      1  0.3499330000000  0.4601030000000  0.2588470000000 1.0
C      1  0.4124400000000  0.7080990000000  0.6004260000000 1.0
C      1  0.3394960000000  0.6771030000000  0.3387590000000 1.0
C      1  0.4218920000000  0.3950510000000  0.2781470000000 1.0
C      1  0.3897950000000  0.2933180000000  0.5487800000000 1.0
C      1  0.3499110000000  0.4601160000000  0.7411460000000 1.0
C      1  0.4939480000000  0.4053770000000  0.3493730000000 1.0
C      1  0.5159120000000  0.5913780000000  0.3640010000000 1.0
C      1  0.4847960000000  0.6522680000000  0.5629390000000 1.0
C      1  0.4983810000000  0.5041060000000  0.6736440000000 1.0
C      1  0.4810800000000  0.3322530000000  0.5549200000000 1.0
C      1  0.4938730000000  0.4053990000000  0.6505930000000 1.0
C      1  0.5158880000000  0.5913790000000  0.6359780000000 1.0
C      1  0.4847940000000  0.6523060000000  0.4370990000000 1.0
C      1  0.4983810000000  0.5041110000000  0.3263820000000 1.0
C      1  0.4810860000000  0.3321910000000  0.4451590000000 1.0
C      1  0.5874990000000  0.4457810000000  0.8132840000000 1.0
C      1  0.5848650000000  0.1881050000000  0.5494580000000 1.0
C      1  0.5963660000000  0.3524180000000  0.2179790000000 1.0
C      1  0.5926170000000  0.7341410000000  0.2969100000000 1.0
C      1  0.5871380000000  0.7875580000000  0.6233850000000 1.0
C      1  0.5875400000000  0.4456880000000  0.1865820000000 1.0
C      1  0.5848710000000  0.1881730000000  0.4504800000000 1.0
C      1  0.5963900000000  0.3524340000000  0.7821060000000 1.0
C      1  0.5926070000000  0.7342010000000  0.7031250000000 1.0
C      1  0.5871310000000  0.7875140000000  0.3766470000000 1.0
END
