TITL C-1525613-7943-3918 0.00303976656593827 3375 -9329.59200052444 0 0 60 (C5) n - 1
REM
REM in /home/nfs/bkarasulu/CARBON/AIRSS/Generating-Clusters/ReaxFF-fromJPCA2015/Units_Real/Try2-Higher-symm/Only-C60
REM
REM
REM
REM
REM
REM ./C.cell (863b2abdce7293c0672fb3ba77bf323a)
REM AIRSS Version 0.9.1 bugfix July 2018 build 013d7b7c2542+ Fri, 06 Jul 2018 19:26:36 +0100
REM compiler GCC version 9.2.1 20190827 (Red Hat 9.2.1-1)
REM options -cpp -mtune=generic -march=x86-64 -g -O0 -fpre-include=/usr/include/finclude/math-vector-fortran.h
REM seed 163613795 -595314863 -1087423115 2021181992 -1429080894 -574587860 -2116943095 2140671472 1919288013 1791922720 1600747108 551058240 -52980252 -1971712812 1438550442 37433327 -1405388337 -650181722 1260264440 -1146339341 715863429 -725511420 1717766803 -1912094770 1131098715 -1786134836 1773678813 -197271255 -2043129409 1639418814 -352486326 723395993 -846484322
REM
CELL 1.54180   15.00000   15.00000   15.00000   90.00000   90.00000   90.00000
LATT -1
SFAC C  
C      1  0.4531380000000  0.2758020000000  0.3883970000000 1.0
C      1  0.2732860000000  0.4754300000000  0.3882400000000 1.0
C      1  0.4060480000000  0.7093920000000  0.3869650000000 1.0
C      1  0.6694680000000  0.6538610000000  0.3873960000000 1.0
C      1  0.6987770000000  0.3858760000000  0.3877960000000 1.0
C      1  0.5467380000000  0.2754870000000  0.3882530000000 1.0
C      1  0.7266940000000  0.4752250000000  0.3883920000000 1.0
C      1  0.5941090000000  0.7093810000000  0.3869540000000 1.0
C      1  0.3305170000000  0.6540660000000  0.3872110000000 1.0
C      1  0.3010950000000  0.3860070000000  0.3875500000000 1.0
C      1  0.6179440000000  0.2541480000000  0.5479940000000 1.0
C      1  0.3028700000000  0.3117810000000  0.5477180000000 1.0
C      1  0.2601440000000  0.6294100000000  0.5472890000000 1.0
C      1  0.5489530000000  0.7678850000000  0.5469950000000 1.0
C      1  0.7699170000000  0.5362050000000  0.5475150000000 1.0
C      1  0.3823000000000  0.2541900000000  0.5478000000000 1.0
C      1  0.6972810000000  0.3119000000000  0.5478090000000 1.0
C      1  0.7397870000000  0.6295110000000  0.5473920000000 1.0
C      1  0.4509040000000  0.7678660000000  0.5469470000000 1.0
C      1  0.2301560000000  0.5360700000000  0.5472860000000 1.0
C      1  0.6275970000000  0.4063330000000  0.3253710000000 1.0
C      1  0.4506270000000  0.3495310000000  0.3260450000000 1.0
C      1  0.3426940000000  0.5006820000000  0.3262430000000 1.0
C      1  0.4516680000000  0.6512140000000  0.3245800000000 1.0
C      1  0.6279890000000  0.5925800000000  0.3252950000000 1.0
C      1  0.3723150000000  0.4065380000000  0.3251890000000 1.0
C      1  0.5492470000000  0.3493100000000  0.3258550000000 1.0
C      1  0.6572750000000  0.5004430000000  0.3264300000000 1.0
C      1  0.5484820000000  0.6511570000000  0.3245690000000 1.0
C      1  0.3720600000000  0.5927960000000  0.3250860000000 1.0
C      1  0.6151360000000  0.2606720000000  0.4508180000000 1.0
C      1  0.3082260000000  0.3162860000000  0.4504650000000 1.0
C      1  0.2663990000000  0.6257740000000  0.4500170000000 1.0
C      1  0.5473330000000  0.7610060000000  0.4498530000000 1.0
C      1  0.7624900000000  0.5354640000000  0.4504750000000 1.0
C      1  0.3849860000000  0.2608930000000  0.4507610000000 1.0
C      1  0.6916840000000  0.3163880000000  0.4506420000000 1.0
C      1  0.7335160000000  0.6257040000000  0.4501660000000 1.0
C      1  0.4526800000000  0.7609380000000  0.4498360000000 1.0
C      1  0.2376870000000  0.5355020000000  0.4503410000000 1.0
C      1  0.4503430000000  0.3492840000000  0.6739330000000 1.0
C      1  0.3414090000000  0.5008270000000  0.6736000000000 1.0
C      1  0.4515570000000  0.6513550000000  0.6734640000000 1.0
C      1  0.6286730000000  0.5928170000000  0.6735390000000 1.0
C      1  0.6278500000000  0.4062530000000  0.6737680000000 1.0
C      1  0.5497480000000  0.3492050000000  0.6741070000000 1.0
C      1  0.6585410000000  0.5008390000000  0.6737130000000 1.0
C      1  0.5482820000000  0.6513320000000  0.6734960000000 1.0
C      1  0.3711520000000  0.5928570000000  0.6735500000000 1.0
C      1  0.3722240000000  0.4062830000000  0.6736450000000 1.0
C      1  0.7346780000000  0.4754330000000  0.6154570000000 1.0
C      1  0.5491880000000  0.2689320000000  0.6157970000000 1.0
C      1  0.2957620000000  0.3819690000000  0.6153330000000 1.0
C      1  0.3244510000000  0.6580250000000  0.6151090000000 1.0
C      1  0.5959330000000  0.7157470000000  0.6150120000000 1.0
C      1  0.2653480000000  0.4753460000000  0.6152760000000 1.0
C      1  0.4509790000000  0.2690170000000  0.6156650000000 1.0
C      1  0.7043690000000  0.3820190000000  0.6154760000000 1.0
C      1  0.6753870000000  0.6580270000000  0.6151770000000 1.0
C      1  0.4039080000000  0.7157300000000  0.6149460000000 1.0
END
