TITL C-1525613-7943-5766 0.0587885387503739 3375 -8982.77507975589 0 0 60 (C1) n - 1
REM
REM in /home/nfs/bkarasulu/CARBON/AIRSS/Generating-Clusters/ReaxFF-fromJPCA2015/Units_Real/Try2-Higher-symm/Only-C60
REM
REM
REM
REM
REM
REM ./C.cell (863b2abdce7293c0672fb3ba77bf323a)
REM AIRSS Version 0.9.1 bugfix July 2018 build 013d7b7c2542+ Fri, 06 Jul 2018 19:26:36 +0100
REM compiler GCC version 9.2.1 20190827 (Red Hat 9.2.1-1)
REM options -cpp -mtune=generic -march=x86-64 -g -O0 -fpre-include=/usr/include/finclude/math-vector-fortran.h
REM seed -1148698906 1127123529 -1655173899 217720876 494769353 -97334220 195477880 1925932986 -1404906706 -543282247 -1315836876 200173510 -265919184 -1502114610 1854349329 -167941883 -297952393 450220813 1246648686 1267806011 1320008696 581658697 -24538825 -605832185 690136894 1298217558 -131632917 -1125913102 304513320 1183063939 615658185 -145228681 -1683619876
REM
CELL 1.54180   15.00000   15.00000   15.00000   90.00000   90.00000   90.00000
LATT -1
SFAC C  
C      1  0.5910830000000  0.3826720000000  0.3275580000000 1.0
C      1  0.5878980000000  0.3001050000000  0.5482620000000 1.0
C      1  0.5975320000000  0.4782700000000  0.7070810000000 1.0
C      1  0.5964780000000  0.6975000000000  0.5726970000000 1.0
C      1  0.5996140000000  0.6325810000000  0.3384360000000 1.0
C      1  0.4100430000000  0.3843590000000  0.6720330000000 1.0
C      1  0.4110780000000  0.2995680000000  0.4518880000000 1.0
C      1  0.4000890000000  0.4835120000000  0.2921780000000 1.0
C      1  0.4032570000000  0.6973580000000  0.4251540000000 1.0
C      1  0.3989910000000  0.6317600000000  0.6626590000000 1.0
C      1  0.5042650000000  0.5202210000000  0.7381680000000 1.0
C      1  0.5062780000000  0.7234350000000  0.5449730000000 1.0
C      1  0.5034960000000  0.6214670000000  0.2950230000000 1.0
C      1  0.5019830000000  0.3441020000000  0.3308610000000 1.0
C      1  0.4997960000000  0.2910340000000  0.5908070000000 1.0
C      1  0.4952310000000  0.5215360000000  0.2619880000000 1.0
C      1  0.4935410000000  0.7245530000000  0.4534010000000 1.0
C      1  0.4947660000000  0.6204730000000  0.7059050000000 1.0
C      1  0.5000380000000  0.3451210000000  0.6700100000000 1.0
C      1  0.5002970000000  0.2901760000000  0.4091330000000 1.0
C      1  0.7060070000000  0.4268110000000  0.5473970000000 1.0
C      1  0.7069480000000  0.5201190000000  0.5807930000000 1.0
C      1  0.7051570000000  0.5841520000000  0.5022780000000 1.0
C      1  0.7056960000000  0.5268850000000  0.4231600000000 1.0
C      1  0.7020410000000  0.4315080000000  0.4508880000000 1.0
C      1  0.2963630000000  0.4293410000000  0.4524810000000 1.0
C      1  0.2943700000000  0.5224750000000  0.4198280000000 1.0
C      1  0.2938450000000  0.5843520000000  0.4968590000000 1.0
C      1  0.2944810000000  0.5269760000000  0.5771220000000 1.0
C      1  0.2987540000000  0.4326380000000  0.5495010000000 1.0
C      1  0.4524000000000  0.4311340000000  0.5080600000000 1.0
C      1  0.4378190000000  0.4964990000000  0.5792340000000 1.0
C      1  0.4303060000000  0.5774830000000  0.5357530000000 1.0
C      1  0.4466080000000  0.5627850000000  0.4413330000000 1.0
C      1  0.4278490000000  0.4694750000000  0.4251600000000 1.0
C      1  0.5493650000000  0.4321800000000  0.4917290000000 1.0
C      1  0.5667050000000  0.4949380000000  0.4210380000000 1.0
C      1  0.5511460000000  0.5788030000000  0.4641370000000 1.0
C      1  0.5668490000000  0.5670830000000  0.5598550000000 1.0
C      1  0.5785320000000  0.4769230000000  0.5692900000000 1.0
C      1  0.3473270000000  0.5490530000000  0.3417930000000 1.0
C      1  0.3495030000000  0.3600580000000  0.4042880000000 1.0
C      1  0.3532400000000  0.3633750000000  0.5966750000000 1.0
C      1  0.3414350000000  0.5543950000000  0.6599890000000 1.0
C      1  0.3419560000000  0.6702190000000  0.4956660000000 1.0
C      1  0.6531490000000  0.5435100000000  0.6612530000000 1.0
C      1  0.6465300000000  0.3632010000000  0.5974600000000 1.0
C      1  0.6477660000000  0.3620250000000  0.4035970000000 1.0
C      1  0.6578570000000  0.5553170000000  0.3411200000000 1.0
C      1  0.6551120000000  0.6677160000000  0.5011160000000 1.0
C      1  0.4093920000000  0.6272950000000  0.3542880000000 1.0
C      1  0.4108420000000  0.3918660000000  0.3300570000000 1.0
C      1  0.4107750000000  0.3001610000000  0.5484060000000 1.0
C      1  0.4141890000000  0.4829600000000  0.6822770000000 1.0
C      1  0.4134680000000  0.6734700000000  0.5726100000000 1.0
C      1  0.5887590000000  0.6245020000000  0.6423940000000 1.0
C      1  0.5897310000000  0.3877510000000  0.6755370000000 1.0
C      1  0.5897570000000  0.2990470000000  0.4517920000000 1.0
C      1  0.5847970000000  0.4826970000000  0.3201290000000 1.0
C      1  0.5874210000000  0.6790180000000  0.4254460000000 1.0
END
