TITL C-1525613-7943-1631 8.00024937492364e-05 3375 -8969.72711933741 0 0 60 (C1) n - 1
REM
REM in /home/nfs/bkarasulu/CARBON/AIRSS/Generating-Clusters/ReaxFF-fromJPCA2015/Units_Real/Try2-Higher-symm/Only-C60
REM
REM
REM
REM
REM
REM ./C.cell (863b2abdce7293c0672fb3ba77bf323a)
REM AIRSS Version 0.9.1 bugfix July 2018 build 013d7b7c2542+ Fri, 06 Jul 2018 19:26:36 +0100
REM compiler GCC version 9.2.1 20190827 (Red Hat 9.2.1-1)
REM options -cpp -mtune=generic -march=x86-64 -g -O0 -fpre-include=/usr/include/finclude/math-vector-fortran.h
REM seed -1933675490 2134683576 1777001295 930311670 -2049671484 1619502537 328692382 1748820228 -86289187 -838901614 -1922347067 -911756269 -2103708289 274295353 -1079571286 -1232972068 529558054 -869649344 -993160561 1755352056 -323099203 1667129050 814683349 74069327 1251985561 -895049973 -1862366353 869974116 -974499960 -1684668021 972994905 1108864664 935454609
REM
CELL 1.54180   15.00000   15.00000   15.00000   90.00000   90.00000   90.00000
LATT -1
SFAC C  
C      1  0.5908220000000  0.3863360000000  0.7534150000000 1.0
C      1  0.4168590000000  0.3827030000000  0.7592610000000 1.0
C      1  0.3457450000000  0.5424940000000  0.7586810000000 1.0
C      1  0.4975720000000  0.6398480000000  0.7576390000000 1.0
C      1  0.6535780000000  0.5501330000000  0.7612480000000 1.0
C      1  0.5977910000000  0.3836480000000  0.2459460000000 1.0
C      1  0.4222060000000  0.3882590000000  0.2378410000000 1.0
C      1  0.3420690000000  0.5465880000000  0.2390410000000 1.0
C      1  0.4923230000000  0.6360580000000  0.2436440000000 1.0
C      1  0.6435230000000  0.5464530000000  0.2393760000000 1.0
C      1  0.4344820000000  0.6773460000000  0.3034200000000 1.0
C      1  0.6401530000000  0.6089570000000  0.3083570000000 1.0
C      1  0.6673100000000  0.3866000000000  0.3065330000000 1.0
C      1  0.4540010000000  0.3330600000000  0.3055880000000 1.0
C      1  0.3033920000000  0.4961450000000  0.3069000000000 1.0
C      1  0.4386180000000  0.6710710000000  0.6928490000000 1.0
C      1  0.6541060000000  0.6131250000000  0.6930850000000 1.0
C      1  0.6618660000000  0.3886350000000  0.6941970000000 1.0
C      1  0.4511910000000  0.3314750000000  0.6896670000000 1.0
C      1  0.3018640000000  0.4951300000000  0.6922080000000 1.0
C      1  0.5617990000000  0.5817630000000  0.2697880000000 1.0
C      1  0.6645980000000  0.4526720000000  0.2381510000000 1.0
C      1  0.5093160000000  0.3968580000000  0.2703310000000 1.0
C      1  0.3492960000000  0.4503820000000  0.2374790000000 1.0
C      1  0.4000980000000  0.6207080000000  0.2372650000000 1.0
C      1  0.5888550000000  0.6183230000000  0.7586620000000 1.0
C      1  0.6581660000000  0.4545550000000  0.7629690000000 1.0
C      1  0.5030980000000  0.3968400000000  0.7268080000000 1.0
C      1  0.3452620000000  0.4463350000000  0.7616420000000 1.0
C      1  0.4069290000000  0.6133430000000  0.7580860000000 1.0
C      1  0.6540210000000  0.6133290000000  0.5996810000000 1.0
C      1  0.6626320000000  0.3905460000000  0.6006210000000 1.0
C      1  0.4424250000000  0.3163000000000  0.5978860000000 1.0
C      1  0.3048820000000  0.4931720000000  0.5992690000000 1.0
C      1  0.4361750000000  0.6760250000000  0.5994000000000 1.0
C      1  0.6557080000000  0.6154530000000  0.4004520000000 1.0
C      1  0.6650360000000  0.3897760000000  0.4001330000000 1.0
C      1  0.4446590000000  0.3168740000000  0.3983750000000 1.0
C      1  0.3063650000000  0.4949060000000  0.4002380000000 1.0
C      1  0.4332460000000  0.6790660000000  0.3989640000000 1.0
C      1  0.5092460000000  0.7011710000000  0.5473270000000 1.0
C      1  0.7038560000000  0.5531980000000  0.5477960000000 1.0
C      1  0.6130470000000  0.3310390000000  0.5473060000000 1.0
C      1  0.3669310000000  0.3363000000000  0.5461220000000 1.0
C      1  0.3033800000000  0.5713240000000  0.5470020000000 1.0
C      1  0.5089410000000  0.7019650000000  0.4525010000000 1.0
C      1  0.7048270000000  0.5535040000000  0.4529390000000 1.0
C      1  0.6138790000000  0.3308180000000  0.4526090000000 1.0
C      1  0.3672470000000  0.3365580000000  0.4509180000000 1.0
C      1  0.3046210000000  0.5723740000000  0.4524290000000 1.0
C      1  0.7127510000000  0.4561130000000  0.4517280000000 1.0
C      1  0.5234250000000  0.2948690000000  0.4498350000000 1.0
C      1  0.3057330000000  0.4126150000000  0.4502270000000 1.0
C      1  0.3560400000000  0.6533550000000  0.4505250000000 1.0
C      1  0.6041480000000  0.6788100000000  0.4514720000000 1.0
C      1  0.7119410000000  0.4563080000000  0.5498860000000 1.0
C      1  0.5220440000000  0.2946720000000  0.5476650000000 1.0
C      1  0.3051490000000  0.4115160000000  0.5485420000000 1.0
C      1  0.3568620000000  0.6535890000000  0.5484490000000 1.0
C      1  0.6038940000000  0.6786090000000  0.5496240000000 1.0
END
