TITL C-1525613-7943-592 0.130487801054907 3375 -8499.77802847545 0 0 60 (C1) n - 1
REM
REM in /home/nfs/bkarasulu/CARBON/AIRSS/Generating-Clusters/ReaxFF-fromJPCA2015/Units_Real/Try2-Higher-symm/Only-C60
REM
REM
REM
REM
REM
REM ./C.cell (863b2abdce7293c0672fb3ba77bf323a)
REM AIRSS Version 0.9.1 bugfix July 2018 build 013d7b7c2542+ Fri, 06 Jul 2018 19:26:36 +0100
REM compiler GCC version 9.2.1 20190827 (Red Hat 9.2.1-1)
REM options -cpp -mtune=generic -march=x86-64 -g -O0 -fpre-include=/usr/include/finclude/math-vector-fortran.h
REM seed 50994650 -1219066477 648602574 -1144438706 1575109354 -819643433 -169120892 -1499885641 2101972501 -1442397721 1671546049 162638369 -1670048979 42556812 -299249791 -739053512 -1986713265 -196968292 707835654 142044071 -877680348 -1621594913 -594502634 -1766662531 -887265316 -1214821783 517046100 614725072 1517228802 -1423279540 -1263136424 272087133 656441919
REM
CELL 1.54180   15.00000   15.00000   15.00000   90.00000   90.00000   90.00000
LATT -1
SFAC C  
C      1  0.7109720000000  0.4085930000000  0.5454010000000 1.0
C      1  0.5217670000000  0.4088610000000  0.7152400000000 1.0
C      1  0.3017000000000  0.4079310000000  0.5869020000000 1.0
C      1  0.3565560000000  0.4069400000000  0.3392630000000 1.0
C      1  0.6087730000000  0.4065250000000  0.3113310000000 1.0
C      1  0.2882500000000  0.5903540000000  0.5457760000000 1.0
C      1  0.4783170000000  0.5905260000000  0.7144250000000 1.0
C      1  0.6981690000000  0.5918380000000  0.5868360000000 1.0
C      1  0.6443370000000  0.5935610000000  0.3386160000000 1.0
C      1  0.3921080000000  0.5927550000000  0.3119430000000 1.0
C      1  0.2866760000000  0.4622090000000  0.3671350000000 1.0
C      1  0.5599410000000  0.4629330000000  0.2547790000000 1.0
C      1  0.7507210000000  0.4633560000000  0.4806380000000 1.0
C      1  0.5955800000000  0.4639670000000  0.7336950000000 1.0
C      1  0.3072070000000  0.4623900000000  0.6631740000000 1.0
C      1  0.7137200000000  0.5375980000000  0.3669720000000 1.0
C      1  0.4401200000000  0.5360280000000  0.2548000000000 1.0
C      1  0.2492580000000  0.5360180000000  0.4806230000000 1.0
C      1  0.4045110000000  0.5364040000000  0.7337180000000 1.0
C      1  0.6932520000000  0.5367910000000  0.6626840000000 1.0
C      1  0.7120130000000  0.4339310000000  0.3967150000000 1.0
C      1  0.6636060000000  0.4350940000000  0.6707040000000 1.0
C      1  0.3871370000000  0.4335550000000  0.7099490000000 1.0
C      1  0.2675620000000  0.4320560000000  0.4575920000000 1.0
C      1  0.4688350000000  0.4326620000000  0.2655790000000 1.0
C      1  0.2883670000000  0.5652310000000  0.3972010000000 1.0
C      1  0.3349430000000  0.5646890000000  0.6718350000000 1.0
C      1  0.6128150000000  0.5655000000000  0.7089880000000 1.0
C      1  0.7330600000000  0.5667300000000  0.4573050000000 1.0
C      1  0.5311000000000  0.5664270000000  0.2672210000000 1.0
C      1  0.4746320000000  0.3151700000000  0.5789020000000 1.0
C      1  0.4164600000000  0.3171210000000  0.5007480000000 1.0
C      1  0.4716540000000  0.3145650000000  0.4232310000000 1.0
C      1  0.5649600000000  0.3129290000000  0.4500650000000 1.0
C      1  0.5654510000000  0.3159420000000  0.5465740000000 1.0
C      1  0.5244710000000  0.6840500000000  0.5774540000000 1.0
C      1  0.5819380000000  0.6855400000000  0.5013700000000 1.0
C      1  0.5275050000000  0.6866430000000  0.4232880000000 1.0
C      1  0.4346780000000  0.6866150000000  0.4500060000000 1.0
C      1  0.4325540000000  0.6849980000000  0.5475520000000 1.0
C      1  0.5003280000000  0.4518440000000  0.4137940000000 1.0
C      1  0.5821180000000  0.4463090000000  0.4762620000000 1.0
C      1  0.5498590000000  0.4513750000000  0.5710780000000 1.0
C      1  0.4484990000000  0.4498420000000  0.5692360000000 1.0
C      1  0.4211630000000  0.4564530000000  0.4730200000000 1.0
C      1  0.4996500000000  0.5506990000000  0.4138550000000 1.0
C      1  0.4203140000000  0.5532780000000  0.4741920000000 1.0
C      1  0.4514180000000  0.5515350000000  0.5698160000000 1.0
C      1  0.5508280000000  0.5483630000000  0.5694540000000 1.0
C      1  0.5812350000000  0.5465830000000  0.4726610000000 1.0
C      1  0.4509670000000  0.3639900000000  0.6769370000000 1.0
C      1  0.3206080000000  0.3652210000000  0.5083610000000 1.0
C      1  0.4374890000000  0.3626780000000  0.3310610000000 1.0
C      1  0.6424660000000  0.3631300000000  0.3856550000000 1.0
C      1  0.6492020000000  0.3649810000000  0.5994170000000 1.0
C      1  0.5487890000000  0.6346820000000  0.6733150000000 1.0
C      1  0.6802790000000  0.6357590000000  0.5075340000000 1.0
C      1  0.5630280000000  0.6377240000000  0.3309430000000 1.0
C      1  0.3581410000000  0.6363550000000  0.3862710000000 1.0
C      1  0.3479450000000  0.6341740000000  0.6009060000000 1.0
END
