TITL C-1525613-7943-7587 0.217021527958039 3375 -7921.39534247574 0 0 60 (C2) n - 1
REM
REM in /home/nfs/bkarasulu/CARBON/AIRSS/Generating-Clusters/ReaxFF-fromJPCA2015/Units_Real/Try2-Higher-symm/Only-C60
REM
REM
REM
REM
REM
REM ./C.cell (863b2abdce7293c0672fb3ba77bf323a)
REM AIRSS Version 0.9.1 bugfix July 2018 build 013d7b7c2542+ Fri, 06 Jul 2018 19:26:36 +0100
REM compiler GCC version 9.2.1 20190827 (Red Hat 9.2.1-1)
REM options -cpp -mtune=generic -march=x86-64 -g -O0 -fpre-include=/usr/include/finclude/math-vector-fortran.h
REM seed 33788877 -92373103 1454112541 -463037075 1981307262 -1239044702 -279655352 1493485188 -1489083199 -2028407656 74007898 -1533840660 -1809162711 1107287175 1354489565 1599166860 1456161394 1788861616 -700136731 -2141756808 -840563261 -519101708 568532333 1753649024 -1769548001 -632791155 361938668 1297274186 -188803934 -1479281130 512761525 -634695550 -1571224259
REM
CELL 1.54180   15.00000   15.00000   15.00000   90.00000   90.00000   90.00000
LATT -1
SFAC C  
C      1  0.2779480000000  0.2786750000000  0.5108180000000 1.0
C      1  0.2458170000000  0.3449020000000  0.3447830000000 1.0
C      1  0.2494580000000  0.4423440000000  0.3127120000000 1.0
C      1  0.3116270000000  0.5637930000000  0.3211300000000 1.0
C      1  0.2651880000000  0.6607770000000  0.4059230000000 1.0
C      1  0.2790340000000  0.7217520000000  0.4883560000000 1.0
C      1  0.2456970000000  0.6552830000000  0.6539910000000 1.0
C      1  0.2501120000000  0.5578030000000  0.6889290000000 1.0
C      1  0.3110150000000  0.4358660000000  0.6797770000000 1.0
C      1  0.2653190000000  0.3387380000000  0.5950870000000 1.0
C      1  0.6453130000000  0.6908810000000  0.6242940000000 1.0
C      1  0.6503020000000  0.5719100000000  0.7223210000000 1.0
C      1  0.6487250000000  0.4270670000000  0.7534060000000 1.0
C      1  0.6790700000000  0.3346060000000  0.6248220000000 1.0
C      1  0.6500150000000  0.2322090000000  0.5029710000000 1.0
C      1  0.6452620000000  0.3091910000000  0.3758610000000 1.0
C      1  0.6504700000000  0.4279250000000  0.2774940000000 1.0
C      1  0.6485970000000  0.5728320000000  0.2467760000000 1.0
C      1  0.6790190000000  0.6653790000000  0.3751150000000 1.0
C      1  0.6499380000000  0.7676910000000  0.4970940000000 1.0
C      1  0.4955130000000  0.4507070000000  0.6562600000000 1.0
C      1  0.5101220000000  0.3750230000000  0.5924980000000 1.0
C      1  0.4981510000000  0.3328180000000  0.5014120000000 1.0
C      1  0.4844650000000  0.3655220000000  0.4064460000000 1.0
C      1  0.4987190000000  0.4479770000000  0.3435720000000 1.0
C      1  0.4948900000000  0.5494990000000  0.3437780000000 1.0
C      1  0.5100040000000  0.6251090000000  0.4073830000000 1.0
C      1  0.4977410000000  0.6673480000000  0.4985060000000 1.0
C      1  0.4846230000000  0.6348170000000  0.5934300000000 1.0
C      1  0.4983380000000  0.5521260000000  0.6562160000000 1.0
C      1  0.5378750000000  0.7035290000000  0.6324570000000 1.0
C      1  0.5449960000000  0.5792100000000  0.7353460000000 1.0
C      1  0.5497310000000  0.4290840000000  0.7351150000000 1.0
C      1  0.5794690000000  0.3207110000000  0.6364040000000 1.0
C      1  0.5515110000000  0.2492880000000  0.5055020000000 1.0
C      1  0.5377020000000  0.2965310000000  0.3677100000000 1.0
C      1  0.5453270000000  0.4202060000000  0.2646710000000 1.0
C      1  0.5495420000000  0.5707180000000  0.2651670000000 1.0
C      1  0.5794730000000  0.6793180000000  0.3634820000000 1.0
C      1  0.5513580000000  0.7506110000000  0.4944610000000 1.0
C      1  0.3277060000000  0.4833970000000  0.2838150000000 1.0
C      1  0.3276410000000  0.6525290000000  0.3338680000000 1.0
C      1  0.3399960000000  0.7099680000000  0.4114800000000 1.0
C      1  0.2681060000000  0.6852430000000  0.5720540000000 1.0
C      1  0.3274520000000  0.6032570000000  0.6660440000000 1.0
C      1  0.3273180000000  0.5162860000000  0.7170360000000 1.0
C      1  0.3290770000000  0.3476570000000  0.6653770000000 1.0
C      1  0.3395700000000  0.2891120000000  0.5878150000000 1.0
C      1  0.2689800000000  0.3154070000000  0.4270840000000 1.0
C      1  0.3275860000000  0.3975190000000  0.3339600000000 1.0
C      1  0.7155010000000  0.6009710000000  0.3107580000000 1.0
C      1  0.7155300000000  0.7108020000000  0.4537160000000 1.0
C      1  0.7079910000000  0.7072780000000  0.5524500000000 1.0
C      1  0.6864100000000  0.6200740000000  0.6568050000000 1.0
C      1  0.7090510000000  0.4951840000000  0.7119810000000 1.0
C      1  0.7154590000000  0.3990760000000  0.6891190000000 1.0
C      1  0.7156100000000  0.2891570000000  0.5462770000000 1.0
C      1  0.7080370000000  0.2926460000000  0.4475400000000 1.0
C      1  0.6864490000000  0.3798470000000  0.3432220000000 1.0
C      1  0.7090520000000  0.5048170000000  0.2881220000000 1.0
END
