TITL C-1525613-7943-439 -0.069597424686709 3375 -9257.63334796628 0 0 60 (C1) n - 1
REM
REM in /home/nfs/bkarasulu/CARBON/AIRSS/Generating-Clusters/ReaxFF-fromJPCA2015/Units_Real/Try2-Higher-symm/Only-C60
REM
REM
REM
REM
REM
REM ./C.cell (863b2abdce7293c0672fb3ba77bf323a)
REM AIRSS Version 0.9.1 bugfix July 2018 build 013d7b7c2542+ Fri, 06 Jul 2018 19:26:36 +0100
REM compiler GCC version 9.2.1 20190827 (Red Hat 9.2.1-1)
REM options -cpp -mtune=generic -march=x86-64 -g -O0 -fpre-include=/usr/include/finclude/math-vector-fortran.h
REM seed -193963732 1422303452 1481042537 1355680312 -1591760832 -1916650483 1773958129 -1420209625 -187049737 225331873 -1405280000 -346943132 -2028849447 55129117 1891080793 -1095951462 -2125522165 1610638650 -1424205012 139566676 352764852 1769067542 -1670822640 398081790 -236627897 -1832610205 688049240 1029120345 2003437585 -1828977427 1480757564 -1304251827 1786350351
REM
CELL 1.54180   15.00000   15.00000   15.00000   90.00000   90.00000   90.00000
LATT -1
SFAC C  
C      1  0.3828200000000  0.3951710000000  0.6100680000000 1.0
C      1  0.4686880000000  0.4303590000000  0.6472140000000 1.0
C      1  0.5650450000000  0.4018820000000  0.6460600000000 1.0
C      1  0.6376110000000  0.4331400000000  0.5729920000000 1.0
C      1  0.6613630000000  0.4230020000000  0.4845190000000 1.0
C      1  0.6179480000000  0.3981580000000  0.3883760000000 1.0
C      1  0.5309850000000  0.4312930000000  0.3530140000000 1.0
C      1  0.4358180000000  0.4021670000000  0.3536990000000 1.0
C      1  0.3629970000000  0.4320710000000  0.4273220000000 1.0
C      1  0.3399550000000  0.4226850000000  0.5152330000000 1.0
C      1  0.2955560000000  0.4934840000000  0.3911470000000 1.0
C      1  0.2548470000000  0.4713470000000  0.5248270000000 1.0
C      1  0.3212250000000  0.4590680000000  0.6683000000000 1.0
C      1  0.4499580000000  0.4912690000000  0.7189560000000 1.0
C      1  0.5993290000000  0.4695490000000  0.7186260000000 1.0
C      1  0.7033400000000  0.4946270000000  0.6098730000000 1.0
C      1  0.7452660000000  0.4704670000000  0.4731380000000 1.0
C      1  0.6788260000000  0.4611910000000  0.3338800000000 1.0
C      1  0.5453480000000  0.4948690000000  0.2877600000000 1.0
C      1  0.4012540000000  0.4690640000000  0.2826620000000 1.0
C      1  0.2487870000000  0.5448850000000  0.4607170000000 1.0
C      1  0.2559470000000  0.5084810000000  0.6169520000000 1.0
C      1  0.3617120000000  0.5362220000000  0.7097320000000 1.0
C      1  0.5342410000000  0.5298530000000  0.7542160000000 1.0
C      1  0.6706180000000  0.5297420000000  0.6947410000000 1.0
C      1  0.7507640000000  0.5422900000000  0.5390590000000 1.0
C      1  0.7458260000000  0.5082110000000  0.3830420000000 1.0
C      1  0.6310170000000  0.5331430000000  0.2942800000000 1.0
C      1  0.4667080000000  0.5292380000000  0.2495730000000 1.0
C      1  0.3306260000000  0.5286710000000  0.3061890000000 1.0
C      1  0.6450010000000  0.6197270000000  0.3386890000000 1.0
C      1  0.4442500000000  0.6247960000000  0.2587600000000 1.0
C      1  0.3545870000000  0.6245190000000  0.2992850000000 1.0
C      1  0.2806250000000  0.6263370000000  0.5047350000000 1.0
C      1  0.2807790000000  0.6037310000000  0.6002010000000 1.0
C      1  0.3532040000000  0.6229310000000  0.6606340000000 1.0
C      1  0.5563050000000  0.6259550000000  0.7413830000000 1.0
C      1  0.6461240000000  0.6260710000000  0.7008770000000 1.0
C      1  0.7191370000000  0.6234840000000  0.4938830000000 1.0
C      1  0.7191370000000  0.6019320000000  0.3983660000000 1.0
C      1  0.3520940000000  0.6867700000000  0.4680150000000 1.0
C      1  0.3992180000000  0.6933400000000  0.5457400000000 1.0
C      1  0.4275260000000  0.6838490000000  0.6315610000000 1.0
C      1  0.5236270000000  0.6825620000000  0.6666840000000 1.0
C      1  0.6117490000000  0.6814820000000  0.6261620000000 1.0
C      1  0.6484980000000  0.6844670000000  0.5306330000000 1.0
C      1  0.6017110000000  0.6921050000000  0.4525810000000 1.0
C      1  0.5728240000000  0.6834550000000  0.3666370000000 1.0
C      1  0.4766430000000  0.6829800000000  0.3319750000000 1.0
C      1  0.3886070000000  0.6821400000000  0.3727790000000 1.0
C      1  0.6115420000000  0.2902270000000  0.3916820000000 1.0
C      1  0.5236020000000  0.2627520000000  0.3784550000000 1.0
C      1  0.4380940000000  0.2937180000000  0.3585600000000 1.0
C      1  0.4014650000000  0.2559560000000  0.4356040000000 1.0
C      1  0.3857980000000  0.2543070000000  0.5204130000000 1.0
C      1  0.3889810000000  0.2876820000000  0.6073900000000 1.0
C      1  0.4774010000000  0.2612850000000  0.6203300000000 1.0
C      1  0.5624820000000  0.2935090000000  0.6404830000000 1.0
C      1  0.5993770000000  0.2564100000000  0.5631080000000 1.0
C      1  0.6151880000000  0.2559230000000  0.4782250000000 1.0
END
