TITL C-1525613-7943-3916 0.0215439199010687 3375 -8975.84680452441 0 0 60 (Cs) n - 1
REM
REM in /home/nfs/bkarasulu/CARBON/AIRSS/Generating-Clusters/ReaxFF-fromJPCA2015/Units_Real/Try2-Higher-symm/Only-C60
REM
REM
REM
REM
REM
REM ./C.cell (863b2abdce7293c0672fb3ba77bf323a)
REM AIRSS Version 0.9.1 bugfix July 2018 build 013d7b7c2542+ Fri, 06 Jul 2018 19:26:36 +0100
REM compiler GCC version 9.2.1 20190827 (Red Hat 9.2.1-1)
REM options -cpp -mtune=generic -march=x86-64 -g -O0 -fpre-include=/usr/include/finclude/math-vector-fortran.h
REM seed 1003004578 24427905 786708348 74757112 1491559910 -1618698189 872784653 380125888 1873499484 909434936 252810368 -1664519802 -271660936 1788694653 -1180212573 1727700903 869166056 -178587327 -355036680 -4570383 -842854587 -1713219441 -511452467 589748957 -827321506 726542754 839634387 549131400 1437090586 518415315 -1120765012 -599604698 286602418
REM
CELL 1.54180   15.00000   15.00000   15.00000   90.00000   90.00000   90.00000
LATT -1
SFAC C  
C      1  0.3899020000000  0.3840480000000  0.6609020000000 1.0
C      1  0.2995240000000  0.3901650000000  0.4354250000000 1.0
C      1  0.5117340000000  0.3944710000000  0.3038830000000 1.0
C      1  0.6839640000000  0.3806610000000  0.4335380000000 1.0
C      1  0.6020320000000  0.3963740000000  0.6651690000000 1.0
C      1  0.3898360000000  0.6162770000000  0.6615530000000 1.0
C      1  0.2999840000000  0.6102080000000  0.4349010000000 1.0
C      1  0.5137800000000  0.6038250000000  0.3054780000000 1.0
C      1  0.6824420000000  0.6195440000000  0.4341100000000 1.0
C      1  0.6016320000000  0.6034330000000  0.6650150000000 1.0
C      1  0.5356210000000  0.6857220000000  0.3577580000000 1.0
C      1  0.6193360000000  0.6925620000000  0.4121360000000 1.0
C      1  0.5520040000000  0.6847460000000  0.6376620000000 1.0
C      1  0.4523620000000  0.6916770000000  0.6429000000000 1.0
C      1  0.3475500000000  0.6882500000000  0.4565270000000 1.0
C      1  0.5350530000000  0.3141300000000  0.3574650000000 1.0
C      1  0.6186150000000  0.3081600000000  0.4123790000000 1.0
C      1  0.5521960000000  0.3152510000000  0.6376610000000 1.0
C      1  0.4525500000000  0.3085310000000  0.6430320000000 1.0
C      1  0.3469650000000  0.3120870000000  0.4564140000000 1.0
C      1  0.5327490000000  0.5482490000000  0.4298730000000 1.0
C      1  0.5760920000000  0.5786820000000  0.5091800000000 1.0
C      1  0.5111770000000  0.5473730000000  0.5733820000000 1.0
C      1  0.4307020000000  0.5830660000000  0.5346100000000 1.0
C      1  0.4444720000000  0.5790200000000  0.4399400000000 1.0
C      1  0.5348470000000  0.4529190000000  0.4268970000000 1.0
C      1  0.5765240000000  0.4194540000000  0.5105590000000 1.0
C      1  0.5115930000000  0.4530020000000  0.5736080000000 1.0
C      1  0.4307310000000  0.4174830000000  0.5337460000000 1.0
C      1  0.4444010000000  0.4217570000000  0.4398880000000 1.0
C      1  0.6684440000000  0.5499390000000  0.6162470000000 1.0
C      1  0.4394590000000  0.5496360000000  0.7135900000000 1.0
C      1  0.2821640000000  0.5489060000000  0.5130320000000 1.0
C      1  0.4312210000000  0.5493800000000  0.2998100000000 1.0
C      1  0.6735570000000  0.5500570000000  0.3647230000000 1.0
C      1  0.6688090000000  0.4503860000000  0.6167280000000 1.0
C      1  0.4394980000000  0.4506540000000  0.7131290000000 1.0
C      1  0.2819950000000  0.4519250000000  0.5132080000000 1.0
C      1  0.4310060000000  0.4505070000000  0.2993290000000 1.0
C      1  0.6738490000000  0.4512620000000  0.3654840000000 1.0
C      1  0.4138770000000  0.7516720000000  0.4770040000000 1.0
C      1  0.4940750000000  0.7544750000000  0.4162920000000 1.0
C      1  0.5759090000000  0.7590990000000  0.4711500000000 1.0
C      1  0.5517510000000  0.7556310000000  0.5674030000000 1.0
C      1  0.4535270000000  0.7580810000000  0.5699320000000 1.0
C      1  0.4137660000000  0.2491690000000  0.4768470000000 1.0
C      1  0.4937270000000  0.2452090000000  0.4161430000000 1.0
C      1  0.5755370000000  0.2409330000000  0.4708080000000 1.0
C      1  0.5516030000000  0.2443610000000  0.5674660000000 1.0
C      1  0.4534350000000  0.2422790000000  0.5699700000000 1.0
C      1  0.3449830000000  0.5830650000000  0.5799320000000 1.0
C      1  0.3740920000000  0.5774800000000  0.3743650000000 1.0
C      1  0.5949710000000  0.5495330000000  0.3033590000000 1.0
C      1  0.6725580000000  0.5775370000000  0.5225830000000 1.0
C      1  0.5400790000000  0.5492190000000  0.7183370000000 1.0
C      1  0.3447880000000  0.4155520000000  0.5789530000000 1.0
C      1  0.3747880000000  0.4190370000000  0.3740180000000 1.0
C      1  0.5933950000000  0.4499820000000  0.3044000000000 1.0
C      1  0.6727450000000  0.4231120000000  0.5227630000000 1.0
C      1  0.5400240000000  0.4507950000000  0.7174060000000 1.0
END
