TITL C-1525613-7943-7555 -0.00898468557872972 3375 -9031.20046183954 0 0 60 (C1) n - 1
REM
REM in /home/nfs/bkarasulu/CARBON/AIRSS/Generating-Clusters/ReaxFF-fromJPCA2015/Units_Real/Try2-Higher-symm/Only-C60
REM
REM
REM
REM
REM
REM ./C.cell (863b2abdce7293c0672fb3ba77bf323a)
REM AIRSS Version 0.9.1 bugfix July 2018 build 013d7b7c2542+ Fri, 06 Jul 2018 19:26:36 +0100
REM compiler GCC version 9.2.1 20190827 (Red Hat 9.2.1-1)
REM options -cpp -mtune=generic -march=x86-64 -g -O0 -fpre-include=/usr/include/finclude/math-vector-fortran.h
REM seed 849215759 -164062498 -202222671 763754835 1664213344 -1103320275 -1072403329 -282028397 187236004 1983329377 -1839711290 1372858051 -736737589 1174756230 965064026 849319344 -1448356757 1060415826 -1760772214 -515916810 -1585136301 -34776158 -1184683580 -463755494 -1852511753 1455150068 -589772187 200593010 -2004074677 -751546709 1444082916 550399955 1178536352
REM
CELL 1.54180   15.00000   15.00000   15.00000   90.00000   90.00000   90.00000
LATT -1
SFAC C  
C      1  0.5214700000000  0.6091740000000  0.7656980000000 1.0
C      1  0.5161100000000  0.2859740000000  0.6771640000000 1.0
C      1  0.5209590000000  0.2640720000000  0.3533080000000 1.0
C      1  0.5182660000000  0.5605750000000  0.2152410000000 1.0
C      1  0.5228190000000  0.7928870000000  0.4722030000000 1.0
C      1  0.4748280000000  0.3870360000000  0.7643130000000 1.0
C      1  0.4815900000000  0.7155240000000  0.6843220000000 1.0
C      1  0.4820230000000  0.7440980000000  0.3488170000000 1.0
C      1  0.4815610000000  0.4306470000000  0.2485040000000 1.0
C      1  0.4766460000000  0.2157420000000  0.4768390000000 1.0
C      1  0.6177090000000  0.6540770000000  0.4012450000000 1.0
C      1  0.6215920000000  0.6425960000000  0.6192910000000 1.0
C      1  0.6177350000000  0.4313730000000  0.6757450000000 1.0
C      1  0.6200130000000  0.3145280000000  0.4925220000000 1.0
C      1  0.6225470000000  0.4513200000000  0.3251680000000 1.0
C      1  0.3783460000000  0.3465500000000  0.3963340000000 1.0
C      1  0.3799630000000  0.3585070000000  0.6105790000000 1.0
C      1  0.3846020000000  0.5649730000000  0.6698390000000 1.0
C      1  0.3835820000000  0.6881980000000  0.4880890000000 1.0
C      1  0.3789830000000  0.5526030000000  0.3198080000000 1.0
C      1  0.5654730000000  0.2501710000000  0.4390950000000 1.0
C      1  0.5685850000000  0.4805380000000  0.2433270000000 1.0
C      1  0.5708850000000  0.7453160000000  0.4008680000000 1.0
C      1  0.5701280000000  0.6678080000000  0.7034430000000 1.0
C      1  0.5622720000000  0.3608880000000  0.7191020000000 1.0
C      1  0.4359490000000  0.7550360000000  0.4351960000000 1.0
C      1  0.4335690000000  0.5158190000000  0.2449470000000 1.0
C      1  0.4320960000000  0.2622220000000  0.4019010000000 1.0
C      1  0.4283210000000  0.3322380000000  0.6959720000000 1.0
C      1  0.4342120000000  0.6371590000000  0.7202540000000 1.0
C      1  0.3769550000000  0.5238140000000  0.4173810000000 1.0
C      1  0.3795670000000  0.5859750000000  0.4915720000000 1.0
C      1  0.3790340000000  0.5330230000000  0.5716850000000 1.0
C      1  0.3773510000000  0.4401550000000  0.5473800000000 1.0
C      1  0.3765520000000  0.4332150000000  0.4515270000000 1.0
C      1  0.6249500000000  0.4798040000000  0.4241270000000 1.0
C      1  0.6233110000000  0.4173460000000  0.4976580000000 1.0
C      1  0.6226580000000  0.4676420000000  0.5798030000000 1.0
C      1  0.6245210000000  0.5609220000000  0.5557170000000 1.0
C      1  0.6246580000000  0.5687990000000  0.4602200000000 1.0
C      1  0.4575580000000  0.7792120000000  0.6168180000000 1.0
C      1  0.4601820000000  0.4745980000000  0.8045090000000 1.0
C      1  0.4584300000000  0.2035960000000  0.5716500000000 1.0
C      1  0.4572870000000  0.3393700000000  0.2404130000000 1.0
C      1  0.4545140000000  0.6982590000000  0.2692300000000 1.0
C      1  0.5460160000000  0.2183950000000  0.6189110000000 1.0
C      1  0.5474130000000  0.5253870000000  0.8048610000000 1.0
C      1  0.5443010000000  0.7957430000000  0.5678310000000 1.0
C      1  0.5399250000000  0.6522900000000  0.2399600000000 1.0
C      1  0.5454350000000  0.2997540000000  0.2668450000000 1.0
C      1  0.3738640000000  0.3411510000000  0.2972590000000 1.0
C      1  0.3711720000000  0.6465760000000  0.2896600000000 1.0
C      1  0.3759460000000  0.7456960000000  0.5683210000000 1.0
C      1  0.4037800000000  0.5031770000000  0.7355500000000 1.0
C      1  0.3980550000000  0.2754940000000  0.5741270000000 1.0
C      1  0.5944550000000  0.6425860000000  0.3146060000000 1.0
C      1  0.6053000000000  0.3625420000000  0.3042010000000 1.0
C      1  0.6268440000000  0.2549660000000  0.5709220000000 1.0
C      1  0.6266770000000  0.4894860000000  0.7551740000000 1.0
C      1  0.6004540000000  0.7233800000000  0.5829470000000 1.0
END
