TITL C-1525613-7943-3609 0.476491905563461 3375 -8133.69727240356 0 0 60 (C1) n - 1
REM
REM in /home/nfs/bkarasulu/CARBON/AIRSS/Generating-Clusters/ReaxFF-fromJPCA2015/Units_Real/Try2-Higher-symm/Only-C60
REM
REM
REM
REM
REM
REM ./C.cell (863b2abdce7293c0672fb3ba77bf323a)
REM AIRSS Version 0.9.1 bugfix July 2018 build 013d7b7c2542+ Fri, 06 Jul 2018 19:26:36 +0100
REM compiler GCC version 9.2.1 20190827 (Red Hat 9.2.1-1)
REM options -cpp -mtune=generic -march=x86-64 -g -O0 -fpre-include=/usr/include/finclude/math-vector-fortran.h
REM seed 1020178122 -199419102 -1983778660 1677101504 1921125663 -885420796 -522733379 1990372966 169320275 289860330 841621086 2111529826 1013111516 -545064878 -872524807 -1135350788 -35006069 1705090403 4251835 -855446652 -2031668022 42071474 1804633069 -1046262364 1370815867 -1360462454 619667551 -337824491 1474911260 -1068217893 139008968 -881018426 942935801
REM
CELL 1.54180   15.00000   15.00000   15.00000   90.00000   90.00000   90.00000
LATT -1
SFAC C  
C      1  0.6238970000000  0.5561230000000  0.6985760000000 1.0
C      1  0.7279790000000  0.5562360000000  0.4456980000000 1.0
C      1  0.5182570000000  0.5561880000000  0.2663620000000 1.0
C      1  0.2833610000000  0.5559740000000  0.4118520000000 1.0
C      1  0.3480870000000  0.5557590000000  0.6768290000000 1.0
C      1  0.6244590000000  0.4439790000000  0.6970680000000 1.0
C      1  0.7262060000000  0.4452870000000  0.4483780000000 1.0
C      1  0.5202640000000  0.4450030000000  0.2699910000000 1.0
C      1  0.2829290000000  0.4436500000000  0.4116340000000 1.0
C      1  0.3481210000000  0.4438450000000  0.6776450000000 1.0
C      1  0.5754020000000  0.3678320000000  0.2725470000000 1.0
C      1  0.3060970000000  0.3676310000000  0.3583280000000 1.0
C      1  0.3051650000000  0.3672790000000  0.6396790000000 1.0
C      1  0.5744790000000  0.3683280000000  0.7275960000000 1.0
C      1  0.7398100000000  0.3678670000000  0.5015820000000 1.0
C      1  0.5756540000000  0.6328470000000  0.2724950000000 1.0
C      1  0.3062280000000  0.6319590000000  0.3584910000000 1.0
C      1  0.3053580000000  0.6326810000000  0.6397260000000 1.0
C      1  0.5738530000000  0.6319930000000  0.7285480000000 1.0
C      1  0.7399680000000  0.6332290000000  0.5015590000000 1.0
C      1  0.5609970000000  0.5452890000000  0.3924490000000 1.0
C      1  0.4162670000000  0.5454720000000  0.4084550000000 1.0
C      1  0.3895680000000  0.5454500000000  0.5505290000000 1.0
C      1  0.5136850000000  0.5454420000000  0.6240660000000 1.0
C      1  0.6195580000000  0.5451430000000  0.5232660000000 1.0
C      1  0.5597380000000  0.4543060000000  0.3986950000000 1.0
C      1  0.4157310000000  0.4547520000000  0.4076830000000 1.0
C      1  0.3887320000000  0.4546030000000  0.5509050000000 1.0
C      1  0.5136470000000  0.4545410000000  0.6235870000000 1.0
C      1  0.6134430000000  0.4539810000000  0.5193510000000 1.0
C      1  0.5531610000000  0.2940190000000  0.3517950000000 1.0
C      1  0.3750900000000  0.2951720000000  0.4034110000000 1.0
C      1  0.3695270000000  0.2944110000000  0.5886970000000 1.0
C      1  0.5442890000000  0.2952740000000  0.6514780000000 1.0
C      1  0.6573850000000  0.2942150000000  0.5048900000000 1.0
C      1  0.5534360000000  0.7053860000000  0.3513820000000 1.0
C      1  0.3751260000000  0.7047450000000  0.4034570000000 1.0
C      1  0.3696500000000  0.7057020000000  0.5887930000000 1.0
C      1  0.5442900000000  0.7045920000000  0.6516020000000 1.0
C      1  0.6579040000000  0.7056250000000  0.5049180000000 1.0
C      1  0.5999750000000  0.5833200000000  0.6056200000000 1.0
C      1  0.6322760000000  0.5847780000000  0.4365830000000 1.0
C      1  0.4811480000000  0.5842700000000  0.3553130000000 1.0
C      1  0.3570880000000  0.5835160000000  0.4731020000000 1.0
C      1  0.4300240000000  0.5840620000000  0.6278180000000 1.0
C      1  0.5998500000000  0.4168960000000  0.6041530000000 1.0
C      1  0.6331340000000  0.4141720000000  0.4355290000000 1.0
C      1  0.4824930000000  0.4161350000000  0.3567380000000 1.0
C      1  0.3569270000000  0.4166930000000  0.4728190000000 1.0
C      1  0.4300570000000  0.4154820000000  0.6280540000000 1.0
C      1  0.5938040000000  0.2831160000000  0.5726880000000 1.0
C      1  0.5980810000000  0.2821020000000  0.4333530000000 1.0
C      1  0.4668450000000  0.2826620000000  0.3860120000000 1.0
C      1  0.3814960000000  0.2834360000000  0.4961370000000 1.0
C      1  0.4598010000000  0.2839140000000  0.6118440000000 1.0
C      1  0.5937530000000  0.7164340000000  0.5727480000000 1.0
C      1  0.5980960000000  0.7172220000000  0.4335000000000 1.0
C      1  0.4669350000000  0.7162220000000  0.3860440000000 1.0
C      1  0.3814730000000  0.7168880000000  0.4962430000000 1.0
C      1  0.4599440000000  0.7168670000000  0.6117090000000 1.0
END
