TITL C-1525613-7943-3657 0.0871206485529039 3375 -8927.93944583901 0 0 60 (D5h) n - 1
REM
REM in /home/nfs/bkarasulu/CARBON/AIRSS/Generating-Clusters/ReaxFF-fromJPCA2015/Units_Real/Try2-Higher-symm/Only-C60
REM
REM
REM
REM
REM
REM ./C.cell (863b2abdce7293c0672fb3ba77bf323a)
REM AIRSS Version 0.9.1 bugfix July 2018 build 013d7b7c2542+ Fri, 06 Jul 2018 19:26:36 +0100
REM compiler GCC version 9.2.1 20190827 (Red Hat 9.2.1-1)
REM options -cpp -mtune=generic -march=x86-64 -g -O0 -fpre-include=/usr/include/finclude/math-vector-fortran.h
REM seed 220992502 37071720 505494028 1902380844 -1270218566 1802030313 -467998251 1237825084 -1699857862 1352435854 1079299713 -1208728714 1374646149 -695198320 1813081935 -1183259768 1061555394 210104128 -2091754423 -548212184 537162889 326583952 1950266714 1305261974 617271850 -731020130 -463443977 -1209458774 284364151 1724828548 36381608 -188106766 631614128
REM
CELL 1.54180   15.00000   15.00000   15.00000   90.00000   90.00000   90.00000
LATT -1
SFAC C  
C      1  0.5000320000000  0.3072350000000  0.4511980000000 1.0
C      1  0.4999400000000  0.3937810000000  0.6685550000000 1.0
C      1  0.4999560000000  0.6274640000000  0.6528200000000 1.0
C      1  0.4999330000000  0.6842680000000  0.4261430000000 1.0
C      1  0.4999580000000  0.4867230000000  0.3024700000000 1.0
C      1  0.5000590000000  0.3077220000000  0.5485310000000 1.0
C      1  0.5000050000000  0.3938990000000  0.3316560000000 1.0
C      1  0.4999500000000  0.6275300000000  0.3471040000000 1.0
C      1  0.4999750000000  0.6844100000000  0.5739010000000 1.0
C      1  0.5001340000000  0.4867070000000  0.6975490000000 1.0
C      1  0.7934810000000  0.4315950000000  0.5496210000000 1.0
C      1  0.7934740000000  0.5261670000000  0.5803900000000 1.0
C      1  0.7934560000000  0.5846320000000  0.4999390000000 1.0
C      1  0.7934360000000  0.5261880000000  0.4194730000000 1.0
C      1  0.7934330000000  0.4316070000000  0.4501790000000 1.0
C      1  0.2066020000000  0.4314510000000  0.4503440000000 1.0
C      1  0.2065350000000  0.5260280000000  0.4195900000000 1.0
C      1  0.2065190000000  0.5844940000000  0.5000190000000 1.0
C      1  0.2065550000000  0.5260600000000  0.5804830000000 1.0
C      1  0.2066320000000  0.4314620000000  0.5497950000000 1.0
C      1  0.3501170000000  0.7013330000000  0.5000180000000 1.0
C      1  0.3501220000000  0.5622400000000  0.3085900000000 1.0
C      1  0.3501770000000  0.3369520000000  0.3816230000000 1.0
C      1  0.3502390000000  0.3370720000000  0.6185210000000 1.0
C      1  0.3501710000000  0.5623150000000  0.6914480000000 1.0
C      1  0.6497880000000  0.7014050000000  0.5000110000000 1.0
C      1  0.6498410000000  0.5622570000000  0.6914180000000 1.0
C      1  0.6499140000000  0.3370990000000  0.6183440000000 1.0
C      1  0.6498450000000  0.3370480000000  0.3815290000000 1.0
C      1  0.6497760000000  0.5623490000000  0.3085310000000 1.0
C      1  0.5965130000000  0.3886510000000  0.3146480000000 1.0
C      1  0.5965380000000  0.2896650000000  0.5485560000000 1.0
C      1  0.5963940000000  0.4812260000000  0.7148980000000 1.0
C      1  0.5964380000000  0.6989550000000  0.5844170000000 1.0
C      1  0.5964610000000  0.6419670000000  0.3367990000000 1.0
C      1  0.4035730000000  0.3885960000000  0.6854510000000 1.0
C      1  0.4035280000000  0.2893610000000  0.4514240000000 1.0
C      1  0.4035430000000  0.4811750000000  0.2851010000000 1.0
C      1  0.4034910000000  0.6988370000000  0.4156340000000 1.0
C      1  0.4035140000000  0.6418670000000  0.6631750000000 1.0
C      1  0.5965150000000  0.6419360000000  0.6631440000000 1.0
C      1  0.5963930000000  0.6988950000000  0.4156010000000 1.0
C      1  0.5963780000000  0.4812470000000  0.2850620000000 1.0
C      1  0.5965350000000  0.2894370000000  0.4513530000000 1.0
C      1  0.5966810000000  0.3886260000000  0.6854220000000 1.0
C      1  0.4034120000000  0.6418950000000  0.3368420000000 1.0
C      1  0.4034730000000  0.6989090000000  0.5844560000000 1.0
C      1  0.4035530000000  0.4811610000000  0.7149890000000 1.0
C      1  0.4035860000000  0.2896060000000  0.5485980000000 1.0
C      1  0.4034750000000  0.3885890000000  0.3147220000000 1.0
C      1  0.7428440000000  0.5522410000000  0.3395340000000 1.0
C      1  0.7428390000000  0.3635790000000  0.4007600000000 1.0
C      1  0.7428610000000  0.3635560000000  0.5991090000000 1.0
C      1  0.7429070000000  0.5521610000000  0.6603040000000 1.0
C      1  0.7428120000000  0.6686600000000  0.4999820000000 1.0
C      1  0.2571590000000  0.5521330000000  0.6604590000000 1.0
C      1  0.2571780000000  0.3635000000000  0.5992440000000 1.0
C      1  0.2571900000000  0.3634200000000  0.4008990000000 1.0
C      1  0.2570620000000  0.5520780000000  0.3396060000000 1.0
C      1  0.2570990000000  0.6685820000000  0.5000180000000 1.0
END
