TITL C-1525613-7943-4953 -0.0149267113123694 3375 -8946.1107184032 0 0 60 (C1) n - 1
REM
REM in /home/nfs/bkarasulu/CARBON/AIRSS/Generating-Clusters/ReaxFF-fromJPCA2015/Units_Real/Try2-Higher-symm/Only-C60
REM
REM
REM
REM
REM
REM ./C.cell (863b2abdce7293c0672fb3ba77bf323a)
REM AIRSS Version 0.9.1 bugfix July 2018 build 013d7b7c2542+ Fri, 06 Jul 2018 19:26:36 +0100
REM compiler GCC version 9.2.1 20190827 (Red Hat 9.2.1-1)
REM options -cpp -mtune=generic -march=x86-64 -g -O0 -fpre-include=/usr/include/finclude/math-vector-fortran.h
REM seed -603577055 -273947608 57043269 136758214 1143821230 -1496307998 1860697773 -459587958 472720 -2069790797 815456849 -1178403184 -693302812 1563914003 1898889870 551333664 614755864 -371318148 -2136393051 1134930581 -162508348 -966236197 229721378 256621873 1117344696 651847095 941647485 858624415 -911778565 -1699915802 -218794955 -1840137771 -132535128
REM
CELL 1.54180   15.00000   15.00000   15.00000   90.00000   90.00000   90.00000
LATT -1
SFAC C  
C      1  0.5173680000000  0.5354710000000  0.2776870000000 1.0
C      1  0.3859830000000  0.4540120000000  0.3116860000000 1.0
C      1  0.2923140000000  0.5394940000000  0.4014880000000 1.0
C      1  0.2894670000000  0.4682100000000  0.5513030000000 1.0
C      1  0.3680390000000  0.5676380000000  0.6635580000000 1.0
C      1  0.4822370000000  0.4640790000000  0.7219270000000 1.0
C      1  0.6141340000000  0.5464610000000  0.6880320000000 1.0
C      1  0.7090580000000  0.4596680000000  0.5995250000000 1.0
C      1  0.7097270000000  0.5302360000000  0.4495080000000 1.0
C      1  0.6319460000000  0.4313540000000  0.3362110000000 1.0
C      1  0.4305060000000  0.3091830000000  0.6398310000000 1.0
C      1  0.5370360000000  0.7123110000000  0.6800800000000 1.0
C      1  0.6243530000000  0.3033490000000  0.6043610000000 1.0
C      1  0.6498710000000  0.6883150000000  0.5232010000000 1.0
C      1  0.6434870000000  0.3432750000000  0.3862090000000 1.0
C      1  0.5703510000000  0.6904530000000  0.3595410000000 1.0
C      1  0.4619430000000  0.2877020000000  0.3195230000000 1.0
C      1  0.3742560000000  0.6986160000000  0.3944490000000 1.0
C      1  0.3510080000000  0.3115230000000  0.4767010000000 1.0
C      1  0.3569210000000  0.6553520000000  0.6134100000000 1.0
C      1  0.4254370000000  0.5849920000000  0.5179410000000 1.0
C      1  0.4627190000000  0.4332460000000  0.5776620000000 1.0
C      1  0.5059940000000  0.5873470000000  0.5707430000000 1.0
C      1  0.5569070000000  0.4352260000000  0.5732190000000 1.0
C      1  0.5751820000000  0.5756320000000  0.5090840000000 1.0
C      1  0.5748790000000  0.4192720000000  0.4815050000000 1.0
C      1  0.5355820000000  0.5700020000000  0.4225310000000 1.0
C      1  0.4933890000000  0.4135870000000  0.4290210000000 1.0
C      1  0.4439070000000  0.5727330000000  0.4286790000000 1.0
C      1  0.4240180000000  0.4257920000000  0.4904690000000 1.0
C      1  0.6618660000000  0.5176960000000  0.3692520000000 1.0
C      1  0.5503920000000  0.4461050000000  0.2857170000000 1.0
C      1  0.4221170000000  0.5397210000000  0.2903570000000 1.0
C      1  0.3143860000000  0.4523840000000  0.3762320000000 1.0
C      1  0.2699800000000  0.5457810000000  0.4968490000000 1.0
C      1  0.3380570000000  0.4809890000000  0.6311890000000 1.0
C      1  0.4498740000000  0.5532930000000  0.7139010000000 1.0
C      1  0.5784280000000  0.4599160000000  0.7107630000000 1.0
C      1  0.6858440000000  0.5471640000000  0.6238500000000 1.0
C      1  0.7296110000000  0.4524520000000  0.5035080000000 1.0
C      1  0.4185040000000  0.7182580000000  0.5650490000000 1.0
C      1  0.4681350000000  0.2614510000000  0.5685380000000 1.0
C      1  0.5090640000000  0.7456750000000  0.5957120000000 1.0
C      1  0.5693020000000  0.2713060000000  0.5347690000000 1.0
C      1  0.5802700000000  0.7497780000000  0.5171830000000 1.0
C      1  0.5814200000000  0.2802820000000  0.4341640000000 1.0
C      1  0.5319880000000  0.7377880000000  0.4305350000000 1.0
C      1  0.4902920000000  0.2537910000000  0.4034690000000 1.0
C      1  0.4300980000000  0.7276480000000  0.4637470000000 1.0
C      1  0.4193340000000  0.2489820000000  0.4820400000000 1.0
C      1  0.3152670000000  0.4009970000000  0.4707510000000 1.0
C      1  0.3287060000000  0.6171120000000  0.5301550000000 1.0
C      1  0.4132410000000  0.4089510000000  0.6653900000000 1.0
C      1  0.5291080000000  0.6048280000000  0.6727810000000 1.0
C      1  0.6334090000000  0.4013900000000  0.6404330000000 1.0
C      1  0.6846010000000  0.5982560000000  0.5295180000000 1.0
C      1  0.6704470000000  0.3820100000000  0.4697850000000 1.0
C      1  0.5863820000000  0.5897620000000  0.3354890000000 1.0
C      1  0.4712140000000  0.3951700000000  0.3272560000000 1.0
C      1  0.3706440000000  0.5965320000000  0.3625330000000 1.0
END
