TITL C-1525613-7943-3856 0.00185198674316454 3375 -8075.32964532485 0 0 60 (Cs) n - 1
REM
REM in /home/nfs/bkarasulu/CARBON/AIRSS/Generating-Clusters/ReaxFF-fromJPCA2015/Units_Real/Try2-Higher-symm/Only-C60
REM
REM
REM
REM
REM
REM ./C.cell (863b2abdce7293c0672fb3ba77bf323a)
REM AIRSS Version 0.9.1 bugfix July 2018 build 013d7b7c2542+ Fri, 06 Jul 2018 19:26:36 +0100
REM compiler GCC version 9.2.1 20190827 (Red Hat 9.2.1-1)
REM options -cpp -mtune=generic -march=x86-64 -g -O0 -fpre-include=/usr/include/finclude/math-vector-fortran.h
REM seed -1036408459 1686712653 1813547457 899307127 1802733309 849505083 -166899313 -2093663707 1800911922 -825415859 228347066 1711086579 -327847499 -1984227250 -1852096639 1465426513 -353636168 603764842 1513452052 -714987770 1036554029 -804109894 41550650 434070442 -1713503859 533907029 -2026901651 -1115837956 1604066489 -1506899437 2066971933 1217603856 -1867017982
REM
CELL 1.54180   15.00000   15.00000   15.00000   90.00000   90.00000   90.00000
LATT -1
SFAC C  
C      1  0.3400670000000  0.2493240000000  0.5660970000000 1.0
C      1  0.3838420000000  0.2697700000000  0.3682720000000 1.0
C      1  0.5871640000000  0.2687760000000  0.3477660000000 1.0
C      1  0.6693420000000  0.2478560000000  0.5332500000000 1.0
C      1  0.5167560000000  0.2689450000000  0.6672970000000 1.0
C      1  0.3400570000000  0.7506850000000  0.5660650000000 1.0
C      1  0.3838420000000  0.7302310000000  0.3682440000000 1.0
C      1  0.5871610000000  0.7312220000000  0.3477430000000 1.0
C      1  0.6693360000000  0.7521400000000  0.5332280000000 1.0
C      1  0.5167440000000  0.7310480000000  0.6672720000000 1.0
C      1  0.6812990000000  0.4058680000000  0.5434730000000 1.0
C      1  0.5161090000000  0.4311090000000  0.6894540000000 1.0
C      1  0.3333750000000  0.4077210000000  0.5808120000000 1.0
C      1  0.3749810000000  0.4312820000000  0.3625890000000 1.0
C      1  0.5969560000000  0.4311950000000  0.3400380000000 1.0
C      1  0.6812960000000  0.5941310000000  0.5434820000000 1.0
C      1  0.5161080000000  0.5688840000000  0.6894500000000 1.0
C      1  0.3333740000000  0.5922930000000  0.5808130000000 1.0
C      1  0.3749810000000  0.5687200000000  0.3625780000000 1.0
C      1  0.5969580000000  0.5688020000000  0.3400370000000 1.0
C      1  0.3302770000000  0.3238870000000  0.6245540000000 1.0
C      1  0.3298450000000  0.3476180000000  0.3760980000000 1.0
C      1  0.5666610000000  0.3484610000000  0.3002350000000 1.0
C      1  0.7109320000000  0.3271860000000  0.5007720000000 1.0
C      1  0.5626620000000  0.3464920000000  0.6973650000000 1.0
C      1  0.3302690000000  0.6761350000000  0.6245380000000 1.0
C      1  0.3298470000000  0.6523820000000  0.3760780000000 1.0
C      1  0.5666620000000  0.6515310000000  0.3002220000000 1.0
C      1  0.7109290000000  0.6728050000000  0.5007680000000 1.0
C      1  0.5626540000000  0.6535070000000  0.6973500000000 1.0
C      1  0.4403810000000  0.4492380000000  0.4370340000000 1.0
C      1  0.5493290000000  0.4517530000000  0.4250500000000 1.0
C      1  0.5940310000000  0.4484800000000  0.5236930000000 1.0
C      1  0.5054250000000  0.4519110000000  0.5930610000000 1.0
C      1  0.4151040000000  0.4501280000000  0.5454880000000 1.0
C      1  0.4403840000000  0.5507670000000  0.4370320000000 1.0
C      1  0.5493310000000  0.5482490000000  0.4250490000000 1.0
C      1  0.5940280000000  0.5515160000000  0.5236960000000 1.0
C      1  0.5054250000000  0.5480730000000  0.5930620000000 1.0
C      1  0.4151030000000  0.5498840000000  0.5454890000000 1.0
C      1  0.4758060000000  0.6551980000000  0.7072220000000 1.0
C      1  0.2946130000000  0.6700540000000  0.5434220000000 1.0
C      1  0.3954260000000  0.6508720000000  0.3172370000000 1.0
C      1  0.6424330000000  0.6539920000000  0.3442760000000 1.0
C      1  0.6912220000000  0.6769670000000  0.5874800000000 1.0
C      1  0.4758150000000  0.3447960000000  0.7072410000000 1.0
C      1  0.2946200000000  0.3299490000000  0.5434370000000 1.0
C      1  0.3954250000000  0.3491210000000  0.3172520000000 1.0
C      1  0.6424330000000  0.3460080000000  0.3442870000000 1.0
C      1  0.6912290000000  0.3230400000000  0.5874870000000 1.0
C      1  0.5073870000000  0.2328510000000  0.5770290000000 1.0
C      1  0.4264250000000  0.2271310000000  0.5277970000000 1.0
C      1  0.4453900000000  0.2342510000000  0.4349980000000 1.0
C      1  0.5398660000000  0.2338430000000  0.4255540000000 1.0
C      1  0.5769230000000  0.2265020000000  0.5127210000000 1.0
C      1  0.5073780000000  0.7671400000000  0.5770020000000 1.0
C      1  0.4264190000000  0.7728710000000  0.5277680000000 1.0
C      1  0.4453870000000  0.7657560000000  0.4349700000000 1.0
C      1  0.5398630000000  0.7661600000000  0.4255290000000 1.0
C      1  0.5769160000000  0.7734920000000  0.5126980000000 1.0
END
