TITL C-1525613-7943-6227 0.0146455060664348 3375 -8942.74641601 0 0 60 (C1) n - 1
REM
REM in /home/nfs/bkarasulu/CARBON/AIRSS/Generating-Clusters/ReaxFF-fromJPCA2015/Units_Real/Try2-Higher-symm/Only-C60
REM
REM
REM
REM
REM
REM ./C.cell (863b2abdce7293c0672fb3ba77bf323a)
REM AIRSS Version 0.9.1 bugfix July 2018 build 013d7b7c2542+ Fri, 06 Jul 2018 19:26:36 +0100
REM compiler GCC version 9.2.1 20190827 (Red Hat 9.2.1-1)
REM options -cpp -mtune=generic -march=x86-64 -g -O0 -fpre-include=/usr/include/finclude/math-vector-fortran.h
REM seed 53259291 875402534 1938037295 1202863476 1383633422 957324143 916620231 1684173731 -914997275 460944243 -1088434251 -1500584550 -378092956 1614914555 -553819128 220045026 1123917287 -2081166047 1432392808 -1620774023 1808332579 1216031722 -1672197953 -314966813 1148007388 -1607706868 -1130380094 442784714 -1700890034 -2114718040 -2132810411 985984161 1443121622
REM
CELL 1.54180   15.00000   15.00000   15.00000   90.00000   90.00000   90.00000
LATT -1
SFAC C  
C      1  0.4501150000000  0.6764490000000  0.3409680000000 1.0
C      1  0.5252410000000  0.3052440000000  0.3775640000000 1.0
C      1  0.5866810000000  0.6905590000000  0.4342520000000 1.0
C      1  0.6635240000000  0.2953550000000  0.4903460000000 1.0
C      1  0.6516820000000  0.7032040000000  0.5987290000000 1.0
C      1  0.5510080000000  0.3218410000000  0.6602300000000 1.0
C      1  0.4749850000000  0.6939280000000  0.6244650000000 1.0
C      1  0.4203150000000  0.3122640000000  0.5687930000000 1.0
C      1  0.3360080000000  0.7054010000000  0.5108250000000 1.0
C      1  0.3496770000000  0.2967080000000  0.4057370000000 1.0
C      1  0.6905980000000  0.5385170000000  0.6589470000000 1.0
C      1  0.5619530000000  0.4588520000000  0.7498360000000 1.0
C      1  0.4128930000000  0.5512730000000  0.7211720000000 1.0
C      1  0.3079420000000  0.4502060000000  0.6183820000000 1.0
C      1  0.2524390000000  0.5526490000000  0.4852610000000 1.0
C      1  0.3095030000000  0.4603080000000  0.3401210000000 1.0
C      1  0.4372890000000  0.5369670000000  0.2411850000000 1.0
C      1  0.5868860000000  0.4480720000000  0.2797190000000 1.0
C      1  0.6921260000000  0.5498600000000  0.3821780000000 1.0
C      1  0.7480680000000  0.4485520000000  0.5161170000000 1.0
C      1  0.3249450000000  0.5307300000000  0.6751390000000 1.0
C      1  0.2488090000000  0.4681150000000  0.5378200000000 1.0
C      1  0.2790700000000  0.5428700000000  0.3863300000000 1.0
C      1  0.3804380000000  0.4612160000000  0.2659460000000 1.0
C      1  0.5373800000000  0.5288650000000  0.2486550000000 1.0
C      1  0.6745800000000  0.4691380000000  0.3256890000000 1.0
C      1  0.7512660000000  0.5330010000000  0.4623820000000 1.0
C      1  0.7191440000000  0.4573990000000  0.6117490000000 1.0
C      1  0.6190750000000  0.5362820000000  0.7316870000000 1.0
C      1  0.4622600000000  0.4705630000000  0.7514090000000 1.0
C      1  0.5472620000000  0.5957660000000  0.7277740000000 1.0
C      1  0.4145720000000  0.4096470000000  0.6996370000000 1.0
C      1  0.2899320000000  0.5919670000000  0.6149550000000 1.0
C      1  0.2582180000000  0.4128220000000  0.4637540000000 1.0
C      1  0.3348340000000  0.6000860000000  0.3407650000000 1.0
C      1  0.4527580000000  0.4022070000000  0.2728020000000 1.0
C      1  0.5829820000000  0.5894240000000  0.3031710000000 1.0
C      1  0.7088390000000  0.4083360000000  0.3866760000000 1.0
C      1  0.7418400000000  0.5881870000000  0.5363410000000 1.0
C      1  0.6598430000000  0.3977390000000  0.6475710000000 1.0
C      1  0.5938240000000  0.3771780000000  0.7073380000000 1.0
C      1  0.4653970000000  0.6342860000000  0.7044660000000 1.0
C      1  0.3658530000000  0.3697660000000  0.6310830000000 1.0
C      1  0.2679510000000  0.6363780000000  0.5356920000000 1.0
C      1  0.2892160000000  0.3745570000000  0.3851590000000 1.0
C      1  0.4007170000000  0.6242970000000  0.2773550000000 1.0
C      1  0.5346640000000  0.3652070000000  0.2975680000000 1.0
C      1  0.6333530000000  0.6300790000000  0.3709070000000 1.0
C      1  0.7312200000000  0.3643970000000  0.4657360000000 1.0
C      1  0.7125540000000  0.6253500000000  0.6159680000000 1.0
C      1  0.4128540000000  0.7217340000000  0.5603490000000 1.0
C      1  0.3939880000000  0.2776000000000  0.4854650000000 1.0
C      1  0.4211010000000  0.6869560000000  0.4740990000000 1.0
C      1  0.4399160000000  0.2754800000000  0.4035300000000 1.0
C      1  0.4944360000000  0.7112180000000  0.4142650000000 1.0
C      1  0.5868060000000  0.2779890000000  0.4418740000000 1.0
C      1  0.6103610000000  0.7232830000000  0.5178920000000 1.0
C      1  0.5780990000000  0.3150060000000  0.5278350000000 1.0
C      1  0.5606740000000  0.7212090000000  0.5977890000000 1.0
C      1  0.5100380000000  0.2974570000000  0.5905480000000 1.0
END
