TITL C-1525613-7943-6981 -0.151453332621273 3375 -8685.94745501099 0 0 60 (Ci) n - 1
REM
REM in /home/nfs/bkarasulu/CARBON/AIRSS/Generating-Clusters/ReaxFF-fromJPCA2015/Units_Real/Try2-Higher-symm/Only-C60
REM
REM
REM
REM
REM
REM ./C.cell (863b2abdce7293c0672fb3ba77bf323a)
REM AIRSS Version 0.9.1 bugfix July 2018 build 013d7b7c2542+ Fri, 06 Jul 2018 19:26:36 +0100
REM compiler GCC version 9.2.1 20190827 (Red Hat 9.2.1-1)
REM options -cpp -mtune=generic -march=x86-64 -g -O0 -fpre-include=/usr/include/finclude/math-vector-fortran.h
REM seed -1528146697 -1093215022 -529356439 522408958 1284945451 399857569 -1516875074 1225740899 -970332962 1706535347 189840842 52122848 -1360604772 -880005027 -438708878 1379627694 760840118 2134040411 -1531557094 -880659653 1610230528 -557400130 -1954462260 1678313724 -842383377 -490181454 -155587157 2130888222 180719411 167861825 387150345 -578034860 806269423
REM
CELL 1.54180   15.00000   15.00000   15.00000   90.00000   90.00000   90.00000
LATT -1
SFAC C  
C      1  0.3933890000000  0.3131830000000  0.6070100000000 1.0
C      1  0.3015700000000  0.4193310000000  0.3937310000000 1.0
C      1  0.2903670000000  0.5451940000000  0.6053510000000 1.0
C      1  0.3587470000000  0.6638690000000  0.3902190000000 1.0
C      1  0.4832680000000  0.7125410000000  0.6063230000000 1.0
C      1  0.6066110000000  0.6868170000000  0.3929900000000 1.0
C      1  0.6984300000000  0.5806700000000  0.6062690000000 1.0
C      1  0.7096330000000  0.4548060000000  0.3946490000000 1.0
C      1  0.6412530000000  0.3361310000000  0.6097810000000 1.0
C      1  0.5167320000000  0.2874590000000  0.3936770000000 1.0
C      1  0.6489380000000  0.5510890000000  0.6966390000000 1.0
C      1  0.6497010000000  0.4555170000000  0.3051170000000 1.0
C      1  0.5956500000000  0.3745340000000  0.6985070000000 1.0
C      1  0.5028200000000  0.3435730000000  0.3036700000000 1.0
C      1  0.4115700000000  0.3702270000000  0.6962390000000 1.0
C      1  0.3510620000000  0.4489110000000  0.3033610000000 1.0
C      1  0.3502980000000  0.5444830000000  0.6948830000000 1.0
C      1  0.4043500000000  0.6254660000000  0.3014930000000 1.0
C      1  0.4971800000000  0.6564270000000  0.6963300000000 1.0
C      1  0.5884300000000  0.6297730000000  0.3037610000000 1.0
C      1  0.4818750000000  0.3139240000000  0.5639130000000 1.0
C      1  0.3706830000000  0.3637560000000  0.4360630000000 1.0
C      1  0.3193250000000  0.4618540000000  0.5634340000000 1.0
C      1  0.3288180000000  0.5801010000000  0.4327720000000 1.0
C      1  0.4124080000000  0.6636400000000  0.5598260000000 1.0
C      1  0.5181250000000  0.6860770000000  0.4360870000000 1.0
C      1  0.6293170000000  0.6362430000000  0.5639370000000 1.0
C      1  0.6806770000000  0.5381470000000  0.4365660000000 1.0
C      1  0.6711820000000  0.4198990000000  0.5672280000000 1.0
C      1  0.5875930000000  0.3363590000000  0.4401730000000 1.0
C      1  0.3896720000000  0.4608060000000  0.7136770000000 1.0
C      1  0.3867940000000  0.5343190000000  0.2834950000000 1.0
C      1  0.4293330000000  0.5930690000000  0.7134710000000 1.0
C      1  0.4969810000000  0.6172340000000  0.2843300000000 1.0
C      1  0.5675760000000  0.5957860000000  0.7148740000000 1.0
C      1  0.6103280000000  0.5391940000000  0.2863220000000 1.0
C      1  0.6132060000000  0.4656810000000  0.7165050000000 1.0
C      1  0.5706670000000  0.4069310000000  0.2865290000000 1.0
C      1  0.5030190000000  0.3827660000000  0.7156700000000 1.0
C      1  0.4324240000000  0.4042140000000  0.2851260000000 1.0
C      1  0.4687920000000  0.2752610000000  0.4742790000000 1.0
C      1  0.3522760000000  0.3245190000000  0.5234420000000 1.0
C      1  0.2777110000000  0.4591570000000  0.4758110000000 1.0
C      1  0.2881930000000  0.5868220000000  0.5210430000000 1.0
C      1  0.3868530000000  0.6971000000000  0.4730340000000 1.0
C      1  0.5312080000000  0.7247390000000  0.5257210000000 1.0
C      1  0.6477240000000  0.6754810000000  0.4765580000000 1.0
C      1  0.7222890000000  0.5408430000000  0.5241900000000 1.0
C      1  0.7118060000000  0.4131780000000  0.4789570000000 1.0
C      1  0.6131470000000  0.3029000000000  0.5269660000000 1.0
C      1  0.5057730000000  0.5799110000000  0.4301210000000 1.0
C      1  0.5530940000000  0.5608620000000  0.5693880000000 1.0
C      1  0.5784240000000  0.5186250000000  0.4314430000000 1.0
C      1  0.5747420000000  0.4689460000000  0.5705290000000 1.0
C      1  0.5412220000000  0.4295820000000  0.4325970000000 1.0
C      1  0.4942260000000  0.4200900000000  0.5698790000000 1.0
C      1  0.4469050000000  0.4391380000000  0.4306130000000 1.0
C      1  0.4215770000000  0.4813750000000  0.5685560000000 1.0
C      1  0.4252570000000  0.5310540000000  0.4294720000000 1.0
C      1  0.4587770000000  0.5704160000000  0.5674030000000 1.0
END
