TITL C-1525613-7943-508 0.105893172032553 3375 -8820.78283022491 0 0 60 (C2) n - 1
REM
REM in /home/nfs/bkarasulu/CARBON/AIRSS/Generating-Clusters/ReaxFF-fromJPCA2015/Units_Real/Try2-Higher-symm/Only-C60
REM
REM
REM
REM
REM
REM ./C.cell (863b2abdce7293c0672fb3ba77bf323a)
REM AIRSS Version 0.9.1 bugfix July 2018 build 013d7b7c2542+ Fri, 06 Jul 2018 19:26:36 +0100
REM compiler GCC version 9.2.1 20190827 (Red Hat 9.2.1-1)
REM options -cpp -mtune=generic -march=x86-64 -g -O0 -fpre-include=/usr/include/finclude/math-vector-fortran.h
REM seed -417575244 -564608097 -309109634 527368985 -181788172 -175199101 973307687 1932425647 -645586740 1536326939 -151272597 1149370525 145290207 -395590273 2142843184 1943027559 -18062103 277919395 1725141939 -1822917912 -1961721978 883188922 -198350988 -2123013825 1995022398 1044950550 -1005475100 1643544611 181764154 1241484468 -1579602988 1164504905 -977759720
REM
CELL 1.54180   15.00000   15.00000   15.00000   90.00000   90.00000   90.00000
LATT -1
SFAC C  
C      1  0.3911030000000  0.3347430000000  0.6080960000000 1.0
C      1  0.3462260000000  0.3305380000000  0.5232520000000 1.0
C      1  0.3617640000000  0.3326760000000  0.4278240000000 1.0
C      1  0.4295530000000  0.3260430000000  0.3590790000000 1.0
C      1  0.5249400000000  0.3235280000000  0.3437980000000 1.0
C      1  0.6088820000000  0.3347930000000  0.3919230000000 1.0
C      1  0.6537620000000  0.3305520000000  0.4767730000000 1.0
C      1  0.6381900000000  0.3327100000000  0.5722060000000 1.0
C      1  0.5704130000000  0.3260760000000  0.6409560000000 1.0
C      1  0.4750320000000  0.3235730000000  0.6562060000000 1.0
C      1  0.6644920000000  0.3988510000000  0.3404900000000 1.0
C      1  0.7307400000000  0.3919010000000  0.4632880000000 1.0
C      1  0.7030030000000  0.3937200000000  0.6072540000000 1.0
C      1  0.6057100000000  0.3861900000000  0.7110020000000 1.0
C      1  0.4644210000000  0.3789340000000  0.7377090000000 1.0
C      1  0.3355320000000  0.3988320000000  0.6595410000000 1.0
C      1  0.2692670000000  0.3919210000000  0.5367440000000 1.0
C      1  0.2968890000000  0.3936850000000  0.3928180000000 1.0
C      1  0.3943030000000  0.3861530000000  0.2889310000000 1.0
C      1  0.5356030000000  0.3788680000000  0.2622390000000 1.0
C      1  0.5327840000000  0.5289910000000  0.7051780000000 1.0
C      1  0.4290670000000  0.5256390000000  0.7119020000000 1.0
C      1  0.3138600000000  0.5407640000000  0.5579290000000 1.0
C      1  0.2931480000000  0.5325010000000  0.4625270000000 1.0
C      1  0.3843980000000  0.5276330000000  0.3578700000000 1.0
C      1  0.4669240000000  0.5290690000000  0.2948110000000 1.0
C      1  0.5710040000000  0.5256960000000  0.2879960000000 1.0
C      1  0.6861350000000  0.5408090000000  0.4419940000000 1.0
C      1  0.7068890000000  0.5324400000000  0.5375260000000 1.0
C      1  0.6156200000000  0.5276220000000  0.6419270000000 1.0
C      1  0.2534320000000  0.4426040000000  0.4555750000000 1.0
C      1  0.3344400000000  0.4501370000000  0.3303180000000 1.0
C      1  0.4616050000000  0.4373190000000  0.2457930000000 1.0
C      1  0.6110280000000  0.4403850000000  0.2695060000000 1.0
C      1  0.7155430000000  0.4605260000000  0.3955320000000 1.0
C      1  0.7466280000000  0.4424730000000  0.5445020000000 1.0
C      1  0.6654650000000  0.4502250000000  0.6696770000000 1.0
C      1  0.5384200000000  0.4373190000000  0.7540260000000 1.0
C      1  0.3890320000000  0.4403700000000  0.7304180000000 1.0
C      1  0.2844510000000  0.4605470000000  0.6045200000000 1.0
C      1  0.6903460000000  0.6814200000000  0.5951940000000 1.0
C      1  0.5791110000000  0.6753890000000  0.6700370000000 1.0
C      1  0.4504790000000  0.6828200000000  0.7118670000000 1.0
C      1  0.3654550000000  0.6738480000000  0.6589920000000 1.0
C      1  0.2960180000000  0.6843540000000  0.5030360000000 1.0
C      1  0.3098390000000  0.6807760000000  0.4050310000000 1.0
C      1  0.4206460000000  0.6758970000000  0.3295210000000 1.0
C      1  0.5494190000000  0.6823790000000  0.2883100000000 1.0
C      1  0.6346150000000  0.6738310000000  0.3410540000000 1.0
C      1  0.7040890000000  0.6843420000000  0.4970480000000 1.0
C      1  0.6134720000000  0.6097470000000  0.2730890000000 1.0
C      1  0.6698630000000  0.6344950000000  0.4216250000000 1.0
C      1  0.7414220000000  0.6210070000000  0.5527690000000 1.0
C      1  0.6377370000000  0.6212430000000  0.6437540000000 1.0
C      1  0.5248370000000  0.6322310000000  0.7137580000000 1.0
C      1  0.3867860000000  0.6097560000000  0.7269080000000 1.0
C      1  0.3301550000000  0.6344720000000  0.5783910000000 1.0
C      1  0.2584390000000  0.6209350000000  0.4475100000000 1.0
C      1  0.3623890000000  0.6214320000000  0.3562450000000 1.0
C      1  0.4751870000000  0.6322710000000  0.2862060000000 1.0
END
