TITL C-1525613-7943-2738 0.0204251759270601 3375 -8774.32776533902 0 0 60 (C2) n - 1
REM
REM in /home/nfs/bkarasulu/CARBON/AIRSS/Generating-Clusters/ReaxFF-fromJPCA2015/Units_Real/Try2-Higher-symm/Only-C60
REM
REM
REM
REM
REM
REM ./C.cell (863b2abdce7293c0672fb3ba77bf323a)
REM AIRSS Version 0.9.1 bugfix July 2018 build 013d7b7c2542+ Fri, 06 Jul 2018 19:26:36 +0100
REM compiler GCC version 9.2.1 20190827 (Red Hat 9.2.1-1)
REM options -cpp -mtune=generic -march=x86-64 -g -O0 -fpre-include=/usr/include/finclude/math-vector-fortran.h
REM seed -353186276 -305590992 1068931667 1756481892 39771753 -296864174 -444139313 239294588 -176332853 1845292445 1234508318 -35347469 -1478599301 578047866 -247220293 -535930375 -1210622113 1688244202 1143065242 1029344063 1892402522 1537052421 -739584993 -1616242188 -2096299354 1709747015 1445037669 -397552672 -1443097441 1682144298 -900854836 -1995857520 725247034
REM
CELL 1.54180   15.00000   15.00000   15.00000   90.00000   90.00000   90.00000
LATT -1
SFAC C  
C      1  0.3522510000000  0.3855570000000  0.7323270000000 1.0
C      1  0.5085250000000  0.3718470000000  0.7110290000000 1.0
C      1  0.6673550000000  0.3866590000000  0.7094720000000 1.0
C      1  0.7295220000000  0.3834870000000  0.5791280000000 1.0
C      1  0.7031530000000  0.3661590000000  0.4174880000000 1.0
C      1  0.6477490000000  0.3855570000000  0.2676730000000 1.0
C      1  0.4914750000000  0.3718470000000  0.2889720000000 1.0
C      1  0.3326450000000  0.3866590000000  0.2905280000000 1.0
C      1  0.2704770000000  0.3834870000000  0.4208710000000 1.0
C      1  0.2968480000000  0.3661600000000  0.5825120000000 1.0
C      1  0.6650090000000  0.4830900000000  0.7100440000000 1.0
C      1  0.7514180000000  0.4834100000000  0.5748730000000 1.0
C      1  0.7372680000000  0.4643370000000  0.4098970000000 1.0
C      1  0.6469850000000  0.4818580000000  0.2768980000000 1.0
C      1  0.4904140000000  0.4617710000000  0.2520010000000 1.0
C      1  0.3349920000000  0.4830890000000  0.2899550000000 1.0
C      1  0.2485790000000  0.4834080000000  0.4251250000000 1.0
C      1  0.2627320000000  0.4643390000000  0.5901010000000 1.0
C      1  0.3530160000000  0.4818580000000  0.7231010000000 1.0
C      1  0.5095860000000  0.4617700000000  0.7479980000000 1.0
C      1  0.3780410000000  0.6978820000000  0.5966880000000 1.0
C      1  0.4575990000000  0.6969980000000  0.6495500000000 1.0
C      1  0.5529290000000  0.6916650000000  0.6442620000000 1.0
C      1  0.6280890000000  0.7021410000000  0.5859810000000 1.0
C      1  0.6526160000000  0.6871790000000  0.4938870000000 1.0
C      1  0.6219600000000  0.6978790000000  0.4033120000000 1.0
C      1  0.5424020000000  0.6970010000000  0.3504540000000 1.0
C      1  0.4470730000000  0.6916680000000  0.3557390000000 1.0
C      1  0.3719100000000  0.7021380000000  0.4140200000000 1.0
C      1  0.3473880000000  0.6871750000000  0.5061120000000 1.0
C      1  0.7398270000000  0.5216200000000  0.4869830000000 1.0
C      1  0.6927050000000  0.5238390000000  0.3506290000000 1.0
C      1  0.5615760000000  0.5247950000000  0.2664230000000 1.0
C      1  0.4204820000000  0.5240430000000  0.2727580000000 1.0
C      1  0.2936260000000  0.5346160000000  0.3594530000000 1.0
C      1  0.2601730000000  0.5216190000000  0.5130130000000 1.0
C      1  0.3072940000000  0.5238410000000  0.6493710000000 1.0
C      1  0.4384240000000  0.5247950000000  0.7335780000000 1.0
C      1  0.5795180000000  0.5240440000000  0.7272420000000 1.0
C      1  0.7063750000000  0.5346160000000  0.6405470000000 1.0
C      1  0.6734350000000  0.3302130000000  0.6368480000000 1.0
C      1  0.7000940000000  0.3451210000000  0.5053180000000 1.0
C      1  0.6588820000000  0.3264500000000  0.3377100000000 1.0
C      1  0.5768200000000  0.3304740000000  0.2892290000000 1.0
C      1  0.4061450000000  0.3321630000000  0.3047610000000 1.0
C      1  0.3265650000000  0.3302130000000  0.3631520000000 1.0
C      1  0.2999060000000  0.3451220000000  0.4946820000000 1.0
C      1  0.3411170000000  0.3264500000000  0.6622900000000 1.0
C      1  0.4231800000000  0.3304740000000  0.7107710000000 1.0
C      1  0.5938550000000  0.3321630000000  0.6952390000000 1.0
C      1  0.3689220000000  0.5948580000000  0.6033860000000 1.0
C      1  0.4553120000000  0.5928010000000  0.6586220000000 1.0
C      1  0.5553930000000  0.5887590000000  0.6514620000000 1.0
C      1  0.6417650000000  0.6006310000000  0.5964130000000 1.0
C      1  0.6585280000000  0.5855840000000  0.4926860000000 1.0
C      1  0.6310730000000  0.5948550000000  0.3966160000000 1.0
C      1  0.5446880000000  0.5928000000000  0.3413800000000 1.0
C      1  0.4446070000000  0.5887570000000  0.3485410000000 1.0
C      1  0.3582320000000  0.6006270000000  0.4035900000000 1.0
C      1  0.3414760000000  0.5855830000000  0.5073110000000 1.0
END
