TITL C-1525613-7943-3163 -0.000110824600693184 3375 -8758.27553273921 0 0 60 (D5h) n - 1
REM
REM in /home/nfs/bkarasulu/CARBON/AIRSS/Generating-Clusters/ReaxFF-fromJPCA2015/Units_Real/Try2-Higher-symm/Only-C60
REM
REM
REM
REM
REM
REM ./C.cell (863b2abdce7293c0672fb3ba77bf323a)
REM AIRSS Version 0.9.1 bugfix July 2018 build 013d7b7c2542+ Fri, 06 Jul 2018 19:26:36 +0100
REM compiler GCC version 9.2.1 20190827 (Red Hat 9.2.1-1)
REM options -cpp -mtune=generic -march=x86-64 -g -O0 -fpre-include=/usr/include/finclude/math-vector-fortran.h
REM seed 31526451 454424496 1239763069 1794625942 279713974 -148391446 1505217759 1524084267 -1781477175 26616391 -1281944065 -1514635555 -152874305 875893860 -1047183821 -70325941 1855098322 -1015239605 957166773 1845097800 -1189920625 1521595444 1853410987 -1597981218 1688840920 237056147 318279271 -1997880354 1502380073 -554158349 1466985835 -1586949967 -366108372
REM
CELL 1.54180   15.00000   15.00000   15.00000   90.00000   90.00000   90.00000
LATT -1
SFAC C  
C      1  0.5554330000000  0.7338110000000  0.4999910000000 1.0
C      1  0.7400170000000  0.5196230000000  0.4999970000000 1.0
C      1  0.5929310000000  0.2780390000000  0.5000070000000 1.0
C      1  0.3172330000000  0.3435370000000  0.5000080000000 1.0
C      1  0.2942150000000  0.6249990000000  0.4999980000000 1.0
C      1  0.4445740000000  0.7333280000000  0.4999920000000 1.0
C      1  0.2599330000000  0.5196810000000  0.5000020000000 1.0
C      1  0.4068760000000  0.2777180000000  0.5000090000000 1.0
C      1  0.6822900000000  0.3438770000000  0.5000040000000 1.0
C      1  0.7065840000000  0.6254570000000  0.4999930000000 1.0
C      1  0.4517990000000  0.2674130000000  0.5933520000000 1.0
C      1  0.2633870000000  0.4738060000000  0.5936210000000 1.0
C      1  0.4020020000000  0.7170910000000  0.5936940000000 1.0
C      1  0.6756660000000  0.6599230000000  0.5934170000000 1.0
C      1  0.7071930000000  0.3818860000000  0.5937760000000 1.0
C      1  0.5482580000000  0.2673330000000  0.5934220000000 1.0
C      1  0.7367190000000  0.4737630000000  0.5936130000000 1.0
C      1  0.5978640000000  0.7169020000000  0.5936590000000 1.0
C      1  0.3241300000000  0.6600950000000  0.5935000000000 1.0
C      1  0.2927740000000  0.3819110000000  0.5938950000000 1.0
C      1  0.3877500000000  0.4181480000000  0.5000050000000 1.0
C      1  0.3856820000000  0.5812580000000  0.4999980000000 1.0
C      1  0.5439400000000  0.6322120000000  0.4999950000000 1.0
C      1  0.6401460000000  0.5017410000000  0.4999990000000 1.0
C      1  0.5429040000000  0.3668180000000  0.5000030000000 1.0
C      1  0.6116490000000  0.4187590000000  0.5000020000000 1.0
C      1  0.6151410000000  0.5826500000000  0.4999950000000 1.0
C      1  0.4575080000000  0.6312380000000  0.4999960000000 1.0
C      1  0.3594080000000  0.5008020000000  0.5000020000000 1.0
C      1  0.4563550000000  0.3664600000000  0.5000040000000 1.0
C      1  0.2927720000000  0.3819050000000  0.4061190000000 1.0
C      1  0.3241280000000  0.6600880000000  0.4064920000000 1.0
C      1  0.5978620000000  0.7168950000000  0.4063230000000 1.0
C      1  0.7367170000000  0.4737560000000  0.4063840000000 1.0
C      1  0.5482560000000  0.2673260000000  0.4065940000000 1.0
C      1  0.7071910000000  0.3818790000000  0.4062290000000 1.0
C      1  0.6756640000000  0.6599160000000  0.4065680000000 1.0
C      1  0.4020000000000  0.7170840000000  0.4062920000000 1.0
C      1  0.2633850000000  0.4737990000000  0.4063860000000 1.0
C      1  0.4517970000000  0.2674070000000  0.4066660000000 1.0
C      1  0.3682430000000  0.5953880000000  0.3466210000000 1.0
C      1  0.5498780000000  0.6550180000000  0.3462470000000 1.0
C      1  0.6628780000000  0.5001290000000  0.3465230000000 1.0
C      1  0.5507140000000  0.3454550000000  0.3465170000000 1.0
C      1  0.3681740000000  0.4038600000000  0.3461650000000 1.0
C      1  0.6316610000000  0.5952320000000  0.3467190000000 1.0
C      1  0.4499700000000  0.6551470000000  0.3461280000000 1.0
C      1  0.3372230000000  0.5002050000000  0.3466090000000 1.0
C      1  0.4493410000000  0.3455050000000  0.3465970000000 1.0
C      1  0.6318340000000  0.4038370000000  0.3462010000000 1.0
C      1  0.5507180000000  0.3454660000000  0.6534930000000 1.0
C      1  0.3681770000000  0.4038710000000  0.6538450000000 1.0
C      1  0.3682460000000  0.5953990000000  0.6533750000000 1.0
C      1  0.5498810000000  0.6550290000000  0.6537410000000 1.0
C      1  0.6628820000000  0.5001400000000  0.6534740000000 1.0
C      1  0.4493440000000  0.3455170000000  0.6534150000000 1.0
C      1  0.6318380000000  0.4038490000000  0.6538030000000 1.0
C      1  0.6316640000000  0.5952440000000  0.6532720000000 1.0
C      1  0.4499730000000  0.6551580000000  0.6538620000000 1.0
C      1  0.3372260000000  0.5002160000000  0.6533950000000 1.0
END
