TITL C-1525613-7943-7492 0.0439104154870982 3375 -9219.40284219181 0 0 60 (C1) n - 1
REM
REM in /home/nfs/bkarasulu/CARBON/AIRSS/Generating-Clusters/ReaxFF-fromJPCA2015/Units_Real/Try2-Higher-symm/Only-C60
REM
REM
REM
REM
REM
REM ./C.cell (863b2abdce7293c0672fb3ba77bf323a)
REM AIRSS Version 0.9.1 bugfix July 2018 build 013d7b7c2542+ Fri, 06 Jul 2018 19:26:36 +0100
REM compiler GCC version 9.2.1 20190827 (Red Hat 9.2.1-1)
REM options -cpp -mtune=generic -march=x86-64 -g -O0 -fpre-include=/usr/include/finclude/math-vector-fortran.h
REM seed 393034309 -1757279187 -142204125 -2083956753 85005251 1953287682 2066093060 1540942131 23994633 -326031837 156668467 -343244785 -101644993 755483664 872542735 776990983 -569633367 735921914 86472484 -2004517700 -307982 -550693382 1930302759 1566000156 -404307606 1565995739 -1264619923 1115647838 715432428 -474695634 -54157021 -1084110049 1025193932
REM
CELL 1.54180   15.00000   15.00000   15.00000   90.00000   90.00000   90.00000
LATT -1
SFAC C  
C      1  0.3994490000000  0.6169000000000  0.6340170000000 1.0
C      1  0.4861730000000  0.6228230000000  0.6558480000000 1.0
C      1  0.5782440000000  0.6436400000000  0.6720820000000 1.0
C      1  0.6020200000000  0.5541310000000  0.6751970000000 1.0
C      1  0.6600380000000  0.4854270000000  0.6575040000000 1.0
C      1  0.6270790000000  0.3963080000000  0.6178830000000 1.0
C      1  0.5436520000000  0.3875400000000  0.6102590000000 1.0
C      1  0.4571010000000  0.3707630000000  0.5991880000000 1.0
C      1  0.4186260000000  0.4495210000000  0.6167350000000 1.0
C      1  0.3621670000000  0.5147780000000  0.6277900000000 1.0
C      1  0.5689190000000  0.2096180000000  0.5462100000000 1.0
C      1  0.4099410000000  0.2724520000000  0.5630580000000 1.0
C      1  0.2760920000000  0.3727080000000  0.5765770000000 1.0
C      1  0.2146030000000  0.5286450000000  0.5584780000000 1.0
C      1  0.2790010000000  0.6807470000000  0.5374250000000 1.0
C      1  0.4235300000000  0.7618410000000  0.5433020000000 1.0
C      1  0.5978960000000  0.7531990000000  0.5474030000000 1.0
C      1  0.7060240000000  0.6234590000000  0.5645000000000 1.0
C      1  0.7854230000000  0.4653500000000  0.5622840000000 1.0
C      1  0.6938180000000  0.3275500000000  0.5662910000000 1.0
C      1  0.5617640000000  0.2326980000000  0.4469490000000 1.0
C      1  0.3996080000000  0.2725020000000  0.4588680000000 1.0
C      1  0.2713840000000  0.3664070000000  0.4707850000000 1.0
C      1  0.2199310000000  0.5219580000000  0.4543120000000 1.0
C      1  0.2876900000000  0.6684740000000  0.4396130000000 1.0
C      1  0.4275340000000  0.7630230000000  0.4444440000000 1.0
C      1  0.5984030000000  0.7429990000000  0.4477370000000 1.0
C      1  0.7242980000000  0.6397740000000  0.4640160000000 1.0
C      1  0.7841770000000  0.4703280000000  0.4572920000000 1.0
C      1  0.6941800000000  0.3350470000000  0.4591610000000 1.0
C      1  0.2749820000000  0.5812300000000  0.4001510000000 1.0
C      1  0.3639310000000  0.7093750000000  0.3951810000000 1.0
C      1  0.5125550000000  0.7445450000000  0.4010310000000 1.0
C      1  0.6514400000000  0.6754700000000  0.4074830000000 1.0
C      1  0.7585570000000  0.5569580000000  0.4504480000000 1.0
C      1  0.7191610000000  0.4119040000000  0.4125390000000 1.0
C      1  0.6255210000000  0.2926210000000  0.4069100000000 1.0
C      1  0.4790860000000  0.2605550000000  0.4061060000000 1.0
C      1  0.3437380000000  0.3346630000000  0.4140700000000 1.0
C      1  0.2610650000000  0.4456710000000  0.4297190000000 1.0
C      1  0.4117060000000  0.6462160000000  0.3385340000000 1.0
C      1  0.5045600000000  0.6678280000000  0.3427190000000 1.0
C      1  0.5931990000000  0.6192000000000  0.3485140000000 1.0
C      1  0.6113020000000  0.5284510000000  0.3474500000000 1.0
C      1  0.6392670000000  0.4414210000000  0.3528180000000 1.0
C      1  0.5833500000000  0.3595000000000  0.3471080000000 1.0
C      1  0.4909050000000  0.3379830000000  0.3453230000000 1.0
C      1  0.4055140000000  0.3883840000000  0.3483400000000 1.0
C      1  0.3892770000000  0.4767330000000  0.3407180000000 1.0
C      1  0.3577290000000  0.5619570000000  0.3427240000000 1.0
C      1  0.5109250000000  0.7879790000000  0.5817000000000 1.0
C      1  0.6407780000000  0.6832700000000  0.5998400000000 1.0
C      1  0.7262430000000  0.5357130000000  0.6043730000000 1.0
C      1  0.7855960000000  0.3757100000000  0.5954530000000 1.0
C      1  0.6538830000000  0.2361850000000  0.5876530000000 1.0
C      1  0.4798430000000  0.2060340000000  0.5908090000000 1.0
C      1  0.3168110000000  0.2964670000000  0.6136060000000 1.0
C      1  0.2777770000000  0.4702520000000  0.6055070000000 1.0
C      1  0.2092740000000  0.6233370000000  0.5836600000000 1.0
C      1  0.3632600000000  0.6937790000000  0.5843050000000 1.0
END
