TITL C-1525613-7943-2522 0.103470181318659 3375 -8164.56881705557 0 0 60 (C10) n - 1
REM
REM in /home/nfs/bkarasulu/CARBON/AIRSS/Generating-Clusters/ReaxFF-fromJPCA2015/Units_Real/Try2-Higher-symm/Only-C60
REM
REM
REM
REM
REM
REM ./C.cell (863b2abdce7293c0672fb3ba77bf323a)
REM AIRSS Version 0.9.1 bugfix July 2018 build 013d7b7c2542+ Fri, 06 Jul 2018 19:26:36 +0100
REM compiler GCC version 9.2.1 20190827 (Red Hat 9.2.1-1)
REM options -cpp -mtune=generic -march=x86-64 -g -O0 -fpre-include=/usr/include/finclude/math-vector-fortran.h
REM seed -1396883714 655578482 -1739168395 535325713 -1855240224 544402291 -657506522 467920865 1075547373 -807341698 912452381 1681402455 -2079839106 1457621715 1308221479 -1960276410 261069705 1789236326 -1590628707 -1814080907 2102614670 1992260262 1385847771 131254820 1149857778 969039783 575875600 -1359390744 902166790 1750964947 -470850897 -1702896561 1353387802
REM
CELL 1.54180   15.00000   15.00000   15.00000   90.00000   90.00000   90.00000
LATT -1
SFAC C  
C      1  0.5944570000000  0.7762870000000  0.6145410000000 1.0
C      1  0.4138160000000  0.7800890000000  0.6152400000000 1.0
C      1  0.2659630000000  0.6753150000000  0.6148600000000 1.0
C      1  0.2076880000000  0.5047390000000  0.6148120000000 1.0
C      1  0.2604550000000  0.3312360000000  0.6152700000000 1.0
C      1  0.4055430000000  0.2237150000000  0.6145370000000 1.0
C      1  0.5861850000000  0.2199110000000  0.6152400000000 1.0
C      1  0.7340350000000  0.3246870000000  0.6148580000000 1.0
C      1  0.7923120000000  0.4952610000000  0.6148090000000 1.0
C      1  0.7395450000000  0.6687630000000  0.6152690000000 1.0
C      1  0.3169040000000  0.3187150000000  0.5435960000000 1.0
C      1  0.4595400000000  0.2467640000000  0.5435280000000 1.0
C      1  0.6170000000000  0.2688780000000  0.5438300000000 1.0
C      1  0.7277930000000  0.3826870000000  0.5433650000000 1.0
C      1  0.7546370000000  0.5402560000000  0.5439360000000 1.0
C      1  0.6830960000000  0.6812870000000  0.5435950000000 1.0
C      1  0.5404630000000  0.7532320000000  0.5435220000000 1.0
C      1  0.3829950000000  0.7311200000000  0.5438320000000 1.0
C      1  0.2722090000000  0.6173150000000  0.5433690000000 1.0
C      1  0.2453600000000  0.4597440000000  0.5439360000000 1.0
C      1  0.4194030000000  0.6625440000000  0.4829130000000 1.0
C      1  0.3424030000000  0.5869640000000  0.4826900000000 1.0
C      1  0.3216420000000  0.4709900000000  0.4831270000000 1.0
C      1  0.3680930000000  0.3767440000000  0.4827360000000 1.0
C      1  0.4706840000000  0.3221000000000  0.4829920000000 1.0
C      1  0.5805550000000  0.3374350000000  0.4829160000000 1.0
C      1  0.6576200000000  0.4130720000000  0.4826910000000 1.0
C      1  0.6783590000000  0.5289850000000  0.4831250000000 1.0
C      1  0.6318890000000  0.6232750000000  0.4827360000000 1.0
C      1  0.5293580000000  0.6778950000000  0.4829880000000 1.0
C      1  0.2808990000000  0.4692600000000  0.3879620000000 1.0
C      1  0.3400270000000  0.3470740000000  0.3872300000000 1.0
C      1  0.4612280000000  0.2818670000000  0.3894780000000 1.0
C      1  0.5967400000000  0.3006130000000  0.3866890000000 1.0
C      1  0.6951250000000  0.3950410000000  0.3889050000000 1.0
C      1  0.7191030000000  0.5307340000000  0.3879670000000 1.0
C      1  0.6599670000000  0.6529310000000  0.3872340000000 1.0
C      1  0.5387720000000  0.7181320000000  0.3894790000000 1.0
C      1  0.4032630000000  0.6993820000000  0.3866880000000 1.0
C      1  0.3048740000000  0.6049610000000  0.3889030000000 1.0
C      1  0.7509300000000  0.4140480000000  0.6335900000000 1.0
C      1  0.7558840000000  0.5788160000000  0.6341340000000 1.0
C      1  0.6597240000000  0.7127650000000  0.6334270000000 1.0
C      1  0.5040890000000  0.7662260000000  0.6338730000000 1.0
C      1  0.3460720000000  0.7189460000000  0.6337420000000 1.0
C      1  0.2490730000000  0.5859500000000  0.6335900000000 1.0
C      1  0.2441140000000  0.4211830000000  0.6341340000000 1.0
C      1  0.3402770000000  0.2872360000000  0.6334270000000 1.0
C      1  0.4959110000000  0.2337690000000  0.6338750000000 1.0
C      1  0.6539270000000  0.2810560000000  0.6337400000000 1.0
C      1  0.6913000000000  0.5925360000000  0.3355670000000 1.0
C      1  0.6003120000000  0.6873520000000  0.3374820000000 1.0
C      1  0.4710340000000  0.7105820000000  0.3366520000000 1.0
C      1  0.3527960000000  0.6533740000000  0.3361000000000 1.0
C      1  0.2906230000000  0.5376090000000  0.3377340000000 1.0
C      1  0.3087050000000  0.4074660000000  0.3355700000000 1.0
C      1  0.3996780000000  0.3126500000000  0.3374830000000 1.0
C      1  0.5289730000000  0.2894170000000  0.3366390000000 1.0
C      1  0.6472070000000  0.3466340000000  0.3361140000000 1.0
C      1  0.7093730000000  0.4623820000000  0.3377350000000 1.0
END
