TITL C-1525613-7943-767 0.100625884157702 3375 -8631.07879397954 0 0 60 (C1) n - 1
REM
REM in /home/nfs/bkarasulu/CARBON/AIRSS/Generating-Clusters/ReaxFF-fromJPCA2015/Units_Real/Try2-Higher-symm/Only-C60
REM
REM
REM
REM
REM
REM ./C.cell (863b2abdce7293c0672fb3ba77bf323a)
REM AIRSS Version 0.9.1 bugfix July 2018 build 013d7b7c2542+ Fri, 06 Jul 2018 19:26:36 +0100
REM compiler GCC version 9.2.1 20190827 (Red Hat 9.2.1-1)
REM options -cpp -mtune=generic -march=x86-64 -g -O0 -fpre-include=/usr/include/finclude/math-vector-fortran.h
REM seed -2145012834 -1348450654 1194356389 484992411 950155488 1510802326 782840291 -1779261543 -1485565594 -1831935174 -1435439398 -400003697 -977180295 658852410 -1707940412 -1656743147 917170475 757869696 -223898973 440674933 -255172827 261012736 40304719 -1395933825 -1999985082 1540530354 103012699 -969011235 1904643567 -2116031996 -2014911114 1002815080 -1239446512
REM
CELL 1.54180   15.00000   15.00000   15.00000   90.00000   90.00000   90.00000
LATT -1
SFAC C  
C      1  0.4338150000000  0.6988850000000  0.4622670000000 1.0
C      1  0.5240430000000  0.7070030000000  0.4241820000000 1.0
C      1  0.5934040000000  0.6983050000000  0.4938680000000 1.0
C      1  0.5433980000000  0.6929360000000  0.5800250000000 1.0
C      1  0.4462700000000  0.6902950000000  0.5604170000000 1.0
C      1  0.4326420000000  0.3022220000000  0.4597940000000 1.0
C      1  0.5228610000000  0.2936830000000  0.4220090000000 1.0
C      1  0.5935990000000  0.3011630000000  0.4907250000000 1.0
C      1  0.5400040000000  0.3001870000000  0.5741010000000 1.0
C      1  0.4433600000000  0.3066860000000  0.5581650000000 1.0
C      1  0.7099390000000  0.5518200000000  0.2965730000000 1.0
C      1  0.7603960000000  0.5515860000000  0.6321140000000 1.0
C      1  0.4534590000000  0.5531030000000  0.7834780000000 1.0
C      1  0.2420940000000  0.5462970000000  0.5440720000000 1.0
C      1  0.3683970000000  0.5495020000000  0.2377880000000 1.0
C      1  0.7097670000000  0.4479100000000  0.2969340000000 1.0
C      1  0.7616240000000  0.4491600000000  0.6318090000000 1.0
C      1  0.4531510000000  0.4513840000000  0.7827470000000 1.0
C      1  0.2400600000000  0.4515360000000  0.5437970000000 1.0
C      1  0.3685020000000  0.4510800000000  0.2375680000000 1.0
C      1  0.6170950000000  0.4513520000000  0.2613840000000 1.0
C      1  0.7567220000000  0.4514790000000  0.5339000000000 1.0
C      1  0.5477860000000  0.4533490000000  0.7541370000000 1.0
C      1  0.2462300000000  0.4472960000000  0.6422540000000 1.0
C      1  0.2859450000000  0.4497370000000  0.2943510000000 1.0
C      1  0.6172420000000  0.5486260000000  0.2613620000000 1.0
C      1  0.7569730000000  0.5485140000000  0.5334490000000 1.0
C      1  0.5469690000000  0.5516170000000  0.7529880000000 1.0
C      1  0.2472150000000  0.5499790000000  0.6423830000000 1.0
C      1  0.2862540000000  0.5507200000000  0.2950300000000 1.0
C      1  0.3170610000000  0.4107960000000  0.6928050000000 1.0
C      1  0.2676640000000  0.4105680000000  0.3762110000000 1.0
C      1  0.5387120000000  0.4039100000000  0.2986770000000 1.0
C      1  0.7015230000000  0.3894120000000  0.4747800000000 1.0
C      1  0.5911110000000  0.4062320000000  0.6796060000000 1.0
C      1  0.3172120000000  0.5885420000000  0.6927690000000 1.0
C      1  0.2683400000000  0.5891500000000  0.3772410000000 1.0
C      1  0.5389390000000  0.5968230000000  0.2980910000000 1.0
C      1  0.7018690000000  0.6096350000000  0.4741820000000 1.0
C      1  0.5882840000000  0.6017420000000  0.6778410000000 1.0
C      1  0.7280730000000  0.5999220000000  0.3792850000000 1.0
C      1  0.6861160000000  0.5979810000000  0.6780010000000 1.0
C      1  0.3805370000000  0.5909280000000  0.7361990000000 1.0
C      1  0.2484350000000  0.6154670000000  0.4648850000000 1.0
C      1  0.4550940000000  0.5972740000000  0.2500920000000 1.0
C      1  0.7272210000000  0.4001200000000  0.3797910000000 1.0
C      1  0.6884200000000  0.4021260000000  0.6807980000000 1.0
C      1  0.3807250000000  0.4125980000000  0.7359300000000 1.0
C      1  0.2473890000000  0.3838060000000  0.4636500000000 1.0
C      1  0.4549810000000  0.4033050000000  0.2505860000000 1.0
C      1  0.4478270000000  0.5925650000000  0.5515050000000 1.0
C      1  0.4372210000000  0.6006870000000  0.4535510000000 1.0
C      1  0.5254130000000  0.6084600000000  0.4018210000000 1.0
C      1  0.6033820000000  0.5997450000000  0.4847510000000 1.0
C      1  0.5457610000000  0.5917300000000  0.5817980000000 1.0
C      1  0.4489690000000  0.4046890000000  0.5533540000000 1.0
C      1  0.4381240000000  0.4005720000000  0.4549110000000 1.0
C      1  0.5261070000000  0.3925950000000  0.4027740000000 1.0
C      1  0.6034270000000  0.4004010000000  0.4861300000000 1.0
C      1  0.5468460000000  0.4008090000000  0.5843140000000 1.0
END
