TITL C-1525613-7943-3435 -0.0377704986515052 3375 -9284.2587253725 0 0 60 (C1) n - 1
REM
REM in /home/nfs/bkarasulu/CARBON/AIRSS/Generating-Clusters/ReaxFF-fromJPCA2015/Units_Real/Try2-Higher-symm/Only-C60
REM
REM
REM
REM
REM
REM ./C.cell (863b2abdce7293c0672fb3ba77bf323a)
REM AIRSS Version 0.9.1 bugfix July 2018 build 013d7b7c2542+ Fri, 06 Jul 2018 19:26:36 +0100
REM compiler GCC version 9.2.1 20190827 (Red Hat 9.2.1-1)
REM options -cpp -mtune=generic -march=x86-64 -g -O0 -fpre-include=/usr/include/finclude/math-vector-fortran.h
REM seed -903641281 94368798 702288121 2035476176 -954957025 -698516157 1265248823 -683024499 -1373037130 1412393228 -102743977 -1471807552 1731903853 1534127514 410333123 -195773818 -1055015732 -820444151 766169787 1473394563 -1898794742 -315656029 -1044395624 -1316532185 -993289423 418333124 -468817110 456268106 679327992 1055455289 -274111290 1325459445 972778062
REM
CELL 1.54180   15.00000   15.00000   15.00000   90.00000   90.00000   90.00000
LATT -1
SFAC C  
C      1  0.6789140000000  0.5346830000000  0.3605280000000 1.0
C      1  0.5867270000000  0.3403410000000  0.3635730000000 1.0
C      1  0.3794760000000  0.3662780000000  0.3655230000000 1.0
C      1  0.3387360000000  0.5781360000000  0.3657520000000 1.0
C      1  0.5229510000000  0.6760180000000  0.3706080000000 1.0
C      1  0.6776200000000  0.5352490000000  0.6391070000000 1.0
C      1  0.5866520000000  0.3408600000000  0.6367700000000 1.0
C      1  0.3797730000000  0.3668230000000  0.6346630000000 1.0
C      1  0.3395110000000  0.5777310000000  0.6343970000000 1.0
C      1  0.5244330000000  0.6734270000000  0.6266970000000 1.0
C      1  0.5253570000000  0.2892670000000  0.4057580000000 1.0
C      1  0.2878050000000  0.3933440000000  0.3901630000000 1.0
C      1  0.3285040000000  0.6742820000000  0.3894580000000 1.0
C      1  0.6020920000000  0.7251590000000  0.4048440000000 1.0
C      1  0.7449350000000  0.4752430000000  0.4039340000000 1.0
C      1  0.5252120000000  0.2897700000000  0.5945130000000 1.0
C      1  0.2880840000000  0.3936260000000  0.6098390000000 1.0
C      1  0.3283670000000  0.6740930000000  0.6117850000000 1.0
C      1  0.6001250000000  0.7192680000000  0.5922020000000 1.0
C      1  0.7441340000000  0.4762490000000  0.5959580000000 1.0
C      1  0.6873230000000  0.2342130000000  0.5506850000000 1.0
C      1  0.3006600000000  0.2440300000000  0.5495770000000 1.0
C      1  0.1943740000000  0.6177180000000  0.5495230000000 1.0
C      1  0.5444340000000  0.7860650000000  0.5492650000000 1.0
C      1  0.7822160000000  0.5542640000000  0.5489630000000 1.0
C      1  0.6873260000000  0.2336760000000  0.4499960000000 1.0
C      1  0.3005420000000  0.2437980000000  0.4506940000000 1.0
C      1  0.1939820000000  0.6174340000000  0.4505530000000 1.0
C      1  0.5426910000000  0.7887040000000  0.4516210000000 1.0
C      1  0.7844410000000  0.5529950000000  0.4507110000000 1.0
C      1  0.2560300000000  0.5495130000000  0.5914610000000 1.0
C      1  0.4661880000000  0.7440450000000  0.5913230000000 1.0
C      1  0.7182630000000  0.6124790000000  0.5948190000000 1.0
C      1  0.6772490000000  0.3216140000000  0.5956060000000 1.0
C      1  0.3836790000000  0.2749890000000  0.5971900000000 1.0
C      1  0.2555710000000  0.5493140000000  0.4083850000000 1.0
C      1  0.4640070000000  0.7462310000000  0.4094080000000 1.0
C      1  0.7219070000000  0.6130130000000  0.4039190000000 1.0
C      1  0.6771040000000  0.3211090000000  0.4050030000000 1.0
C      1  0.3835850000000  0.2745650000000  0.4029210000000 1.0
C      1  0.2467810000000  0.4607350000000  0.5506900000000 1.0
C      1  0.3771440000000  0.7361410000000  0.5522480000000 1.0
C      1  0.6711620000000  0.6801280000000  0.5492270000000 1.0
C      1  0.7237580000000  0.3930390000000  0.5490660000000 1.0
C      1  0.4648040000000  0.2402800000000  0.5533050000000 1.0
C      1  0.2465920000000  0.4604640000000  0.4493130000000 1.0
C      1  0.3751340000000  0.7369520000000  0.4497520000000 1.0
C      1  0.6742770000000  0.6819410000000  0.4536960000000 1.0
C      1  0.7237780000000  0.3923770000000  0.4514560000000 1.0
C      1  0.4647110000000  0.2400090000000  0.4468820000000 1.0
C      1  0.5108970000000  0.5809780000000  0.6472210000000 1.0
C      1  0.5825410000000  0.5162820000000  0.6530800000000 1.0
C      1  0.5423020000000  0.4295240000000  0.6540220000000 1.0
C      1  0.4471830000000  0.4393550000000  0.6486000000000 1.0
C      1  0.4274260000000  0.5337160000000  0.6462210000000 1.0
C      1  0.5107230000000  0.5812500000000  0.3512140000000 1.0
C      1  0.5836380000000  0.5160020000000  0.3462490000000 1.0
C      1  0.5425200000000  0.4291770000000  0.3457760000000 1.0
C      1  0.4470040000000  0.4387330000000  0.3512340000000 1.0
C      1  0.4266430000000  0.5333030000000  0.3530530000000 1.0
END
