TITL C-1525613-7943-4149 0.082564659866513 3375 -8344.17302141219 0 0 60 (C1) n - 1
REM
REM in /home/nfs/bkarasulu/CARBON/AIRSS/Generating-Clusters/ReaxFF-fromJPCA2015/Units_Real/Try2-Higher-symm/Only-C60
REM
REM
REM
REM
REM
REM ./C.cell (863b2abdce7293c0672fb3ba77bf323a)
REM AIRSS Version 0.9.1 bugfix July 2018 build 013d7b7c2542+ Fri, 06 Jul 2018 19:26:36 +0100
REM compiler GCC version 9.2.1 20190827 (Red Hat 9.2.1-1)
REM options -cpp -mtune=generic -march=x86-64 -g -O0 -fpre-include=/usr/include/finclude/math-vector-fortran.h
REM seed 1669196370 -1504751830 -1479386811 -568828167 1499426944 1820179972 677535099 56207806 991169154 -365046811 1599532235 579044970 669043983 1481584723 -485735056 -1585351340 1085594388 -2142388785 -763486660 1046537259 1868190200 1890156839 -555481985 -499196590 1911174054 1612499174 -1981428241 1201846118 1976670291 1851267480 1503058169 1686464592 326937397
REM
CELL 1.54180   15.00000   15.00000   15.00000   90.00000   90.00000   90.00000
LATT -1
SFAC C  
C      1  0.5723440000000  0.4569730000000  0.4086160000000 1.0
C      1  0.4805790000000  0.4178520000000  0.4075070000000 1.0
C      1  0.4149300000000  0.4946060000000  0.4053630000000 1.0
C      1  0.4677680000000  0.5813110000000  0.4076780000000 1.0
C      1  0.5644010000000  0.5570710000000  0.4082480000000 1.0
C      1  0.5723720000000  0.5431790000000  0.5914970000000 1.0
C      1  0.4806720000000  0.5821620000000  0.5925290000000 1.0
C      1  0.4149090000000  0.5054520000000  0.5946120000000 1.0
C      1  0.4677360000000  0.4187230000000  0.5923020000000 1.0
C      1  0.5644340000000  0.4430470000000  0.5917040000000 1.0
C      1  0.3365460000000  0.3396290000000  0.6199500000000 1.0
C      1  0.2966920000000  0.6084710000000  0.6171530000000 1.0
C      1  0.5402370000000  0.7230710000000  0.6107750000000 1.0
C      1  0.7250280000000  0.5305420000000  0.6165750000000 1.0
C      1  0.5997990000000  0.2943400000000  0.6142130000000 1.0
C      1  0.3365420000000  0.6603730000000  0.3800430000000 1.0
C      1  0.2966600000000  0.3915320000000  0.3828620000000 1.0
C      1  0.5401710000000  0.2769510000000  0.3892270000000 1.0
C      1  0.7249990000000  0.4694940000000  0.3834430000000 1.0
C      1  0.5997330000000  0.7056240000000  0.3857600000000 1.0
C      1  0.2704930000000  0.6544820000000  0.4494570000000 1.0
C      1  0.5735310000000  0.7619330000000  0.4521700000000 1.0
C      1  0.7758170000000  0.5141190000000  0.4524460000000 1.0
C      1  0.5935210000000  0.2467500000000  0.4563650000000 1.0
C      1  0.2868580000000  0.3262080000000  0.4546210000000 1.0
C      1  0.2704040000000  0.3454690000000  0.5505170000000 1.0
C      1  0.5736160000000  0.2379620000000  0.5477530000000 1.0
C      1  0.7758640000000  0.4859620000000  0.5474810000000 1.0
C      1  0.5934970000000  0.7532480000000  0.5435130000000 1.0
C      1  0.2869030000000  0.6737550000000  0.5453900000000 1.0
C      1  0.6359490000000  0.6177140000000  0.3962380000000 1.0
C      1  0.6506960000000  0.4055870000000  0.3970770000000 1.0
C      1  0.4589040000000  0.3267910000000  0.3937950000000 1.0
C      1  0.3160870000000  0.4877260000000  0.3940850000000 1.0
C      1  0.4342560000000  0.6678740000000  0.3935150000000 1.0
C      1  0.6359670000000  0.3823420000000  0.6038560000000 1.0
C      1  0.6507000000000  0.5944090000000  0.6029570000000 1.0
C      1  0.4589640000000  0.6731400000000  0.6061290000000 1.0
C      1  0.3161330000000  0.5122270000000  0.6058770000000 1.0
C      1  0.4341660000000  0.3320230000000  0.6064740000000 1.0
C      1  0.4684600000000  0.5763520000000  0.2975260000000 1.0
C      1  0.5627440000000  0.5554400000000  0.2988050000000 1.0
C      1  0.5717590000000  0.4593960000000  0.2986730000000 1.0
C      1  0.4834770000000  0.4205340000000  0.2976530000000 1.0
C      1  0.4200810000000  0.4932050000000  0.2977740000000 1.0
C      1  0.4684180000000  0.4235770000000  0.7024290000000 1.0
C      1  0.5627810000000  0.4445170000000  0.7013200000000 1.0
C      1  0.5717880000000  0.5405450000000  0.7013480000000 1.0
C      1  0.4834270000000  0.5794690000000  0.7025330000000 1.0
C      1  0.4199990000000  0.5067780000000  0.7021630000000 1.0
C      1  0.5078010000000  0.7310210000000  0.3905640000000 1.0
C      1  0.7201600000000  0.5667760000000  0.3913530000000 1.0
C      1  0.6292090000000  0.3110710000000  0.3956900000000 1.0
C      1  0.3608750000000  0.3172790000000  0.3919430000000 1.0
C      1  0.2810130000000  0.5788340000000  0.3865360000000 1.0
C      1  0.5077550000000  0.2690180000000  0.6093810000000 1.0
C      1  0.7202630000000  0.4333070000000  0.6086710000000 1.0
C      1  0.6292230000000  0.6888990000000  0.6043330000000 1.0
C      1  0.3608830000000  0.6827550000000  0.6080840000000 1.0
C      1  0.2810050000000  0.4211030000000  0.6134530000000 1.0
END
