TITL C-1525613-7943-125 -0.00411573732837975 3375 -8587.59372794146 0 0 60 (C1) n - 1
REM
REM in /home/nfs/bkarasulu/CARBON/AIRSS/Generating-Clusters/ReaxFF-fromJPCA2015/Units_Real/Try2-Higher-symm/Only-C60
REM
REM
REM
REM
REM
REM ./C.cell (863b2abdce7293c0672fb3ba77bf323a)
REM AIRSS Version 0.9.1 bugfix July 2018 build 013d7b7c2542+ Fri, 06 Jul 2018 19:26:36 +0100
REM compiler GCC version 9.2.1 20190827 (Red Hat 9.2.1-1)
REM options -cpp -mtune=generic -march=x86-64 -g -O0 -fpre-include=/usr/include/finclude/math-vector-fortran.h
REM seed -2076971513 1901223734 -576254677 1658290505 -1917887012 -460404728 449687242 -1008646913 -1210429013 -156240017 1050358299 -334130834 -579696882 890906543 -935543594 222777600 654237046 1773338310 1362855369 -1659464561 -1896624154 811978412 1421690537 157291978 -223280387 2094927182 -205231326 2069392152 2031658815 -728793079 1746407372 19512965 -1220339100
REM
CELL 1.54180   15.00000   15.00000   15.00000   90.00000   90.00000   90.00000
LATT -1
SFAC C  
C      1  0.7132190000000  0.4954350000000  0.5914930000000 1.0
C      1  0.5725250000000  0.7049010000000  0.5924450000000 1.0
C      1  0.3360900000000  0.6224070000000  0.5901580000000 1.0
C      1  0.3193820000000  0.3668590000000  0.5965660000000 1.0
C      1  0.5529000000000  0.2966840000000  0.5939430000000 1.0
C      1  0.2947570000000  0.4942300000000  0.4115680000000 1.0
C      1  0.4339600000000  0.7112950000000  0.4152020000000 1.0
C      1  0.6678640000000  0.6324980000000  0.4038850000000 1.0
C      1  0.6737780000000  0.3783620000000  0.4058600000000 1.0
C      1  0.4436740000000  0.2933440000000  0.4061930000000 1.0
C      1  0.5778870000000  0.6110010000000  0.7422480000000 1.0
C      1  0.4103520000000  0.6144060000000  0.7324070000000 1.0
C      1  0.3596930000000  0.4585810000000  0.7313560000000 1.0
C      1  0.5023760000000  0.3656770000000  0.7429200000000 1.0
C      1  0.6385370000000  0.4562190000000  0.7336900000000 1.0
C      1  0.4124450000000  0.6177400000000  0.2730290000000 1.0
C      1  0.5823850000000  0.6075720000000  0.2552570000000 1.0
C      1  0.6380980000000  0.4537970000000  0.2630770000000 1.0
C      1  0.4978200000000  0.3648830000000  0.2573330000000 1.0
C      1  0.3611910000000  0.4611180000000  0.2698310000000 1.0
C      1  0.6110850000000  0.6755650000000  0.6756300000000 1.0
C      1  0.3797520000000  0.6659740000000  0.6566590000000 1.0
C      1  0.3012630000000  0.4287110000000  0.6603450000000 1.0
C      1  0.5081460000000  0.2962730000000  0.6764240000000 1.0
C      1  0.6912780000000  0.4356980000000  0.6552460000000 1.0
C      1  0.3836230000000  0.6755000000000  0.3449740000000 1.0
C      1  0.6316720000000  0.6602460000000  0.3210760000000 1.0
C      1  0.6927680000000  0.4388130000000  0.3416340000000 1.0
C      1  0.4888630000000  0.2955140000000  0.3240980000000 1.0
C      1  0.3067100000000  0.4341230000000  0.3448230000000 1.0
C      1  0.3568380000000  0.6553070000000  0.4358550000000 1.0
C      1  0.3123640000000  0.4044840000000  0.4382020000000 1.0
C      1  0.5350660000000  0.2847810000000  0.4048610000000 1.0
C      1  0.7026820000000  0.4646210000000  0.4357000000000 1.0
C      1  0.6022110000000  0.6970940000000  0.4034810000000 1.0
C      1  0.6567190000000  0.6570880000000  0.5932090000000 1.0
C      1  0.6835260000000  0.4096040000000  0.5614150000000 1.0
C      1  0.4621560000000  0.2815740000000  0.5963970000000 1.0
C      1  0.2923540000000  0.4535360000000  0.5660800000000 1.0
C      1  0.4003970000000  0.6869490000000  0.5634420000000 1.0
C      1  0.6790180000000  0.5720960000000  0.5501200000000 1.0
C      1  0.4952640000000  0.6888890000000  0.5340970000000 1.0
C      1  0.3342290000000  0.5403310000000  0.5460720000000 1.0
C      1  0.3926920000000  0.3287840000000  0.5543850000000 1.0
C      1  0.6047560000000  0.3552630000000  0.5389870000000 1.0
C      1  0.3402840000000  0.5614270000000  0.4562350000000 1.0
C      1  0.5181940000000  0.6924830000000  0.4446800000000 1.0
C      1  0.6735980000000  0.5555240000000  0.4582030000000 1.0
C      1  0.6004520000000  0.3381030000000  0.4465040000000 1.0
C      1  0.3892050000000  0.3479760000000  0.4620450000000 1.0
C      1  0.6119870000000  0.5296600000000  0.2330750000000 1.0
C      1  0.4957850000000  0.5968270000000  0.2558680000000 1.0
C      1  0.3712230000000  0.5448490000000  0.2528310000000 1.0
C      1  0.4397430000000  0.4288940000000  0.2514100000000 1.0
C      1  0.5728420000000  0.4031970000000  0.2381980000000 1.0
C      1  0.3696140000000  0.5413620000000  0.7519130000000 1.0
C      1  0.4934890000000  0.5938780000000  0.7482120000000 1.0
C      1  0.6165010000000  0.5355740000000  0.7587840000000 1.0
C      1  0.5732660000000  0.4102870000000  0.7643150000000 1.0
C      1  0.4394520000000  0.4261250000000  0.7460570000000 1.0
END
