TITL C-1525613-7943-3062 0.000383245230050595 3375 -9532.73144580057 0 0 60 (D5d) n - 1
REM
REM in /home/nfs/bkarasulu/CARBON/AIRSS/Generating-Clusters/ReaxFF-fromJPCA2015/Units_Real/Try2-Higher-symm/Only-C60
REM
REM
REM
REM
REM
REM ./C.cell (863b2abdce7293c0672fb3ba77bf323a)
REM AIRSS Version 0.9.1 bugfix July 2018 build 013d7b7c2542+ Fri, 06 Jul 2018 19:26:36 +0100
REM compiler GCC version 9.2.1 20190827 (Red Hat 9.2.1-1)
REM options -cpp -mtune=generic -march=x86-64 -g -O0 -fpre-include=/usr/include/finclude/math-vector-fortran.h
REM seed -784530128 1225716017 -1599570405 -18053581 -1957930825 820888815 -481962417 490882150 -170338138 906465787 -872894971 -1999183705 1976933668 1264425608 2078278679 -907488176 1272557015 1763299160 1715415829 -22999779 -565234565 -1334983231 976943228 -782125708 -1798251008 1821550800 -591653611 -696363741 1521138668 407184455 1577903121 -584553309 43456622
REM
CELL 1.54180   15.00000   15.00000   15.00000   90.00000   90.00000   90.00000
LATT -1
SFAC C  
C      1  0.6938830000000  0.3881780000000  0.3783980000000 1.0
C      1  0.4535760000000  0.2810280000000  0.3783990000000 1.0
C      1  0.2774390000000  0.4764960000000  0.3783900000000 1.0
C      1  0.4088600000000  0.7044410000000  0.3783850000000 1.0
C      1  0.6662470000000  0.6498430000000  0.3783950000000 1.0
C      1  0.3061030000000  0.3882290000000  0.3783910000000 1.0
C      1  0.5463830000000  0.2810130000000  0.3783990000000 1.0
C      1  0.7225600000000  0.4764410000000  0.3783980000000 1.0
C      1  0.5911820000000  0.7044130000000  0.3783870000000 1.0
C      1  0.3337790000000  0.6498890000000  0.3783890000000 1.0
C      1  0.5956670000000  0.2866440000000  0.4590800000000 1.0
C      1  0.3266770000000  0.3430900000000  0.4590720000000 1.0
C      1  0.2972140000000  0.6163720000000  0.4590680000000 1.0
C      1  0.5480000000000  0.7288380000000  0.4590660000000 1.0
C      1  0.7324460000000  0.5250540000000  0.4590770000000 1.0
C      1  0.4042950000000  0.2866710000000  0.4590780000000 1.0
C      1  0.6732970000000  0.3430450000000  0.4590770000000 1.0
C      1  0.7028060000000  0.6163190000000  0.4590730000000 1.0
C      1  0.4520430000000  0.7288520000000  0.4590650000000 1.0
C      1  0.2675600000000  0.5251130000000  0.4590670000000 1.0
C      1  0.6274620000000  0.5934220000000  0.6899120000000 1.0
C      1  0.6282350000000  0.4076250000000  0.6899150000000 1.0
C      1  0.4517820000000  0.3494860000000  0.6899220000000 1.0
C      1  0.3419720000000  0.4993590000000  0.6899030000000 1.0
C      1  0.4505390000000  0.6501280000000  0.6899110000000 1.0
C      1  0.3725430000000  0.5934610000000  0.6899130000000 1.0
C      1  0.3717510000000  0.4076660000000  0.6899070000000 1.0
C      1  0.5481900000000  0.3494680000000  0.6899240000000 1.0
C      1  0.6580240000000  0.4993140000000  0.6899120000000 1.0
C      1  0.5494810000000  0.6501090000000  0.6899060000000 1.0
C      1  0.6939000000000  0.6117700000000  0.6216090000000 1.0
C      1  0.6662230000000  0.3501110000000  0.6216120000000 1.0
C      1  0.4088190000000  0.2955910000000  0.6216140000000 1.0
C      1  0.2774350000000  0.5235600000000  0.6216010000000 1.0
C      1  0.4536170000000  0.7189810000000  0.6216000000000 1.0
C      1  0.3061130000000  0.6118230000000  0.6216030000000 1.0
C      1  0.3337520000000  0.3501580000000  0.6216060000000 1.0
C      1  0.5911390000000  0.2955620000000  0.6216150000000 1.0
C      1  0.7225660000000  0.5235050000000  0.6216090000000 1.0
C      1  0.5464230000000  0.7189650000000  0.6216010000000 1.0
C      1  0.5482180000000  0.6505210000000  0.3100770000000 1.0
C      1  0.6580200000000  0.5006410000000  0.3100980000000 1.0
C      1  0.5494600000000  0.3498640000000  0.3100860000000 1.0
C      1  0.3725430000000  0.4065750000000  0.3100880000000 1.0
C      1  0.3717700000000  0.5923750000000  0.3100880000000 1.0
C      1  0.4518100000000  0.6505380000000  0.3100750000000 1.0
C      1  0.3419840000000  0.5006840000000  0.3100900000000 1.0
C      1  0.4505180000000  0.3498810000000  0.3100900000000 1.0
C      1  0.6274510000000  0.4065370000000  0.3100890000000 1.0
C      1  0.6282460000000  0.5923350000000  0.3100960000000 1.0
C      1  0.2675540000000  0.4749470000000  0.5409230000000 1.0
C      1  0.4043330000000  0.7133550000000  0.5409200000000 1.0
C      1  0.6733250000000  0.6569120000000  0.5409280000000 1.0
C      1  0.7027860000000  0.3836300000000  0.5409310000000 1.0
C      1  0.4520010000000  0.2711640000000  0.5409350000000 1.0
C      1  0.7324410000000  0.4748880000000  0.5409330000000 1.0
C      1  0.5957050000000  0.7133290000000  0.5409220000000 1.0
C      1  0.3267010000000  0.6569580000000  0.5409220000000 1.0
C      1  0.2971950000000  0.3836830000000  0.5409250000000 1.0
C      1  0.5479560000000  0.2711500000000  0.5409360000000 1.0
END
