TITL C-1525613-7943-3019 0.030714700265313 3375 -8317.99785713763 0 0 60 (C2) n - 1
REM
REM in /home/nfs/bkarasulu/CARBON/AIRSS/Generating-Clusters/ReaxFF-fromJPCA2015/Units_Real/Try2-Higher-symm/Only-C60
REM
REM
REM
REM
REM
REM ./C.cell (863b2abdce7293c0672fb3ba77bf323a)
REM AIRSS Version 0.9.1 bugfix July 2018 build 013d7b7c2542+ Fri, 06 Jul 2018 19:26:36 +0100
REM compiler GCC version 9.2.1 20190827 (Red Hat 9.2.1-1)
REM options -cpp -mtune=generic -march=x86-64 -g -O0 -fpre-include=/usr/include/finclude/math-vector-fortran.h
REM seed -1316237184 -1755881991 850183393 136283505 -1559532485 573391552 -1476077184 592036281 -1890448232 -1785343488 220036939 -2059874516 349290505 315091591 1550670712 1234789942 -193926003 1520528043 1416097239 -1862894448 -1648165563 1104557683 -80467357 822983240 641527165 462169971 374514441 1538356489 1084506992 -621577833 962736654 -974634955 902076784
REM
CELL 1.54180   15.00000   15.00000   15.00000   90.00000   90.00000   90.00000
LATT -1
SFAC C  
C      1  0.6334560000000  0.6244580000000  0.6732350000000 1.0
C      1  0.7099770000000  0.6244360000000  0.5618410000000 1.0
C      1  0.7059400000000  0.6254430000000  0.4267910000000 1.0
C      1  0.6233630000000  0.6262420000000  0.3200540000000 1.0
C      1  0.4939450000000  0.6258530000000  0.2825690000000 1.0
C      1  0.3665570000000  0.6245080000000  0.3267760000000 1.0
C      1  0.2900100000000  0.6244090000000  0.4381550000000 1.0
C      1  0.2940620000000  0.6254640000000  0.5732210000000 1.0
C      1  0.3766480000000  0.6262720000000  0.6799330000000 1.0
C      1  0.5060560000000  0.6257910000000  0.7174420000000 1.0
C      1  0.5901060000000  0.4199810000000  0.7559300000000 1.0
C      1  0.7339380000000  0.4202430000000  0.6602290000000 1.0
C      1  0.7714840000000  0.4197300000000  0.4915320000000 1.0
C      1  0.7272980000000  0.4250520000000  0.3242930000000 1.0
C      1  0.5779550000000  0.4236740000000  0.2366550000000 1.0
C      1  0.4098400000000  0.4201760000000  0.2438860000000 1.0
C      1  0.2661360000000  0.4201820000000  0.3397860000000 1.0
C      1  0.2285710000000  0.4197110000000  0.5084860000000 1.0
C      1  0.2725940000000  0.4252060000000  0.6757700000000 1.0
C      1  0.4220040000000  0.4236070000000  0.7632890000000 1.0
C      1  0.5883870000000  0.2825270000000  0.3571510000000 1.0
C      1  0.5056290000000  0.2841830000000  0.3630790000000 1.0
C      1  0.4374060000000  0.2856030000000  0.4137340000000 1.0
C      1  0.3922340000000  0.2856220000000  0.4850310000000 1.0
C      1  0.3774690000000  0.2841530000000  0.5686930000000 1.0
C      1  0.4120960000000  0.2824490000000  0.6439090000000 1.0
C      1  0.4949840000000  0.2842010000000  0.6350610000000 1.0
C      1  0.5642990000000  0.2858570000000  0.5833460000000 1.0
C      1  0.6062610000000  0.2859150000000  0.5173690000000 1.0
C      1  0.6212920000000  0.2843250000000  0.4328570000000 1.0
C      1  0.6464580000000  0.4560990000000  0.6939930000000 1.0
C      1  0.7335350000000  0.4562420000000  0.5660480000000 1.0
C      1  0.7305730000000  0.4579950000000  0.4195660000000 1.0
C      1  0.6376160000000  0.4598550000000  0.2956570000000 1.0
C      1  0.4938090000000  0.4573490000000  0.2573670000000 1.0
C      1  0.3535240000000  0.4561750000000  0.3059390000000 1.0
C      1  0.2665680000000  0.4561710000000  0.4339740000000 1.0
C      1  0.2693920000000  0.4580590000000  0.5804570000000 1.0
C      1  0.3623260000000  0.4599050000000  0.7043690000000 1.0
C      1  0.5061610000000  0.4572110000000  0.7425090000000 1.0
C      1  0.3384390000000  0.5334340000000  0.4526920000000 1.0
C      1  0.3410740000000  0.5340310000000  0.5566230000000 1.0
C      1  0.4045860000000  0.5346380000000  0.6393630000000 1.0
C      1  0.5044550000000  0.5347510000000  0.6670630000000 1.0
C      1  0.6024810000000  0.5336060000000  0.6333740000000 1.0
C      1  0.6615850000000  0.5334400000000  0.5473100000000 1.0
C      1  0.6589230000000  0.5340120000000  0.4433810000000 1.0
C      1  0.5954050000000  0.5346250000000  0.3606420000000 1.0
C      1  0.4955400000000  0.5347790000000  0.3329100000000 1.0
C      1  0.3975210000000  0.5336310000000  0.3666060000000 1.0
C      1  0.2860600000000  0.6763740000000  0.5055670000000 1.0
C      1  0.3310720000000  0.6774570000000  0.6295170000000 1.0
C      1  0.4401000000000  0.6777710000000  0.7037220000000 1.0
C      1  0.5719530000000  0.6767940000000  0.7007320000000 1.0
C      1  0.6767790000000  0.6759440000000  0.6209150000000 1.0
C      1  0.7138980000000  0.6763720000000  0.4944290000000 1.0
C      1  0.6689700000000  0.6774300000000  0.3704600000000 1.0
C      1  0.5599230000000  0.6777810000000  0.2962800000000 1.0
C      1  0.4280700000000  0.6768520000000  0.2993380000000 1.0
C      1  0.3232070000000  0.6759430000000  0.3790920000000 1.0
END
