TITL C-1525613-7943-4830 0.368293357392833 3375 -9201.80608067469 0 0 60 (C1) n - 1
REM
REM in /home/nfs/bkarasulu/CARBON/AIRSS/Generating-Clusters/ReaxFF-fromJPCA2015/Units_Real/Try2-Higher-symm/Only-C60
REM
REM
REM
REM
REM
REM ./C.cell (863b2abdce7293c0672fb3ba77bf323a)
REM AIRSS Version 0.9.1 bugfix July 2018 build 013d7b7c2542+ Fri, 06 Jul 2018 19:26:36 +0100
REM compiler GCC version 9.2.1 20190827 (Red Hat 9.2.1-1)
REM options -cpp -mtune=generic -march=x86-64 -g -O0 -fpre-include=/usr/include/finclude/math-vector-fortran.h
REM seed 975312481 1252935571 2014126786 678912460 1836774257 -1272666540 432078725 -94707683 23635263 -280033834 -1031719711 -1070135304 1913991630 714713611 -240868611 -1972072153 -1438066188 -52156217 22378817 1708753406 337376852 -1868330904 324547863 667091161 619810034 -1370092823 -1916817309 -387350024 1769122755 622855460 207455393 -1719044791 -352687609
REM
CELL 1.54180   15.00000   15.00000   15.00000   90.00000   90.00000   90.00000
LATT -1
SFAC C  
C      1  0.4888870000000  0.7204500000000  0.6095960000000 1.0
C      1  0.6631730000000  0.6618910000000  0.6244000000000 1.0
C      1  0.7168400000000  0.5851240000000  0.6274340000000 1.0
C      1  0.6683340000000  0.3968510000000  0.6025230000000 1.0
C      1  0.6235680000000  0.3095010000000  0.5993730000000 1.0
C      1  0.5253970000000  0.2999640000000  0.6050170000000 1.0
C      1  0.3432990000000  0.3662620000000  0.6171330000000 1.0
C      1  0.2831900000000  0.4444180000000  0.6040330000000 1.0
C      1  0.3067200000000  0.5384460000000  0.6003900000000 1.0
C      1  0.3944380000000  0.7068120000000  0.6203730000000 1.0
C      1  0.2333710000000  0.4285980000000  0.5209720000000 1.0
C      1  0.2780580000000  0.5759170000000  0.5154670000000 1.0
C      1  0.3601550000000  0.7140410000000  0.5288410000000 1.0
C      1  0.5102500000000  0.7368330000000  0.5191550000000 1.0
C      1  0.6646000000000  0.6986940000000  0.5386510000000 1.0
C      1  0.7506470000000  0.5688970000000  0.5383480000000 1.0
C      1  0.7134630000000  0.4113260000000  0.5172080000000 1.0
C      1  0.6476710000000  0.2729300000000  0.5132900000000 1.0
C      1  0.4927860000000  0.2638890000000  0.5194740000000 1.0
C      1  0.3357630000000  0.3056530000000  0.5403390000000 1.0
C      1  0.5993270000000  0.6248490000000  0.6857850000000 1.0
C      1  0.6560670000000  0.5445150000000  0.6915770000000 1.0
C      1  0.6433580000000  0.4466610000000  0.6838390000000 1.0
C      1  0.5731780000000  0.3866840000000  0.7055030000000 1.0
C      1  0.4941950000000  0.3393340000000  0.6889910000000 1.0
C      1  0.3975480000000  0.3768030000000  0.6983680000000 1.0
C      1  0.3776920000000  0.4671600000000  0.7071420000000 1.0
C      1  0.3582220000000  0.5562550000000  0.6834100000000 1.0
C      1  0.4140240000000  0.6381920000000  0.6881380000000 1.0
C      1  0.5096710000000  0.6540320000000  0.6742460000000 1.0
C      1  0.5522920000000  0.6444670000000  0.3161270000000 1.0
C      1  0.5981640000000  0.5651670000000  0.3035130000000 1.0
C      1  0.6531890000000  0.4911750000000  0.3145630000000 1.0
C      1  0.6272810000000  0.3948730000000  0.3145090000000 1.0
C      1  0.5463860000000  0.3408830000000  0.3123530000000 1.0
C      1  0.4474450000000  0.3554640000000  0.3135510000000 1.0
C      1  0.4026180000000  0.4350530000000  0.3005450000000 1.0
C      1  0.3466840000000  0.5081600000000  0.3098060000000 1.0
C      1  0.3720820000000  0.6052760000000  0.3168980000000 1.0
C      1  0.4524270000000  0.6597240000000  0.3163070000000 1.0
C      1  0.7287240000000  0.6485870000000  0.4900740000000 1.0
C      1  0.7346550000000  0.4963510000000  0.4775400000000 1.0
C      1  0.6972300000000  0.3348510000000  0.4629880000000 1.0
C      1  0.5698260000000  0.2476270000000  0.4639100000000 1.0
C      1  0.4074960000000  0.2833380000000  0.4786180000000 1.0
C      1  0.2664050000000  0.3449640000000  0.4848100000000 1.0
C      1  0.2464000000000  0.5024180000000  0.4597610000000 1.0
C      1  0.3077090000000  0.6554290000000  0.4751260000000 1.0
C      1  0.4309230000000  0.7417050000000  0.4707010000000 1.0
C      1  0.5934850000000  0.7175140000000  0.4776700000000 1.0
C      1  0.7045040000000  0.5312880000000  0.3907090000000 1.0
C      1  0.6653700000000  0.3312480000000  0.3763570000000 1.0
C      1  0.5876750000000  0.2783120000000  0.3745970000000 1.0
C      1  0.3901420000000  0.3252200000000  0.3907420000000 1.0
C      1  0.3045650000000  0.3697620000000  0.3985260000000 1.0
C      1  0.2904610000000  0.4652090000000  0.3809780000000 1.0
C      1  0.3340660000000  0.6644640000000  0.3844040000000 1.0
C      1  0.4116910000000  0.7178660000000  0.3824570000000 1.0
C      1  0.6111340000000  0.6752960000000  0.3908980000000 1.0
C      1  0.6950810000000  0.6273310000000  0.4019450000000 1.0
END
