TITL C-1525613-7943-824 0.0318706058436838 3375 -8617.17073853473 0 0 60 (C1) n - 1
REM
REM in /home/nfs/bkarasulu/CARBON/AIRSS/Generating-Clusters/ReaxFF-fromJPCA2015/Units_Real/Try2-Higher-symm/Only-C60
REM
REM
REM
REM
REM
REM ./C.cell (863b2abdce7293c0672fb3ba77bf323a)
REM AIRSS Version 0.9.1 bugfix July 2018 build 013d7b7c2542+ Fri, 06 Jul 2018 19:26:36 +0100
REM compiler GCC version 9.2.1 20190827 (Red Hat 9.2.1-1)
REM options -cpp -mtune=generic -march=x86-64 -g -O0 -fpre-include=/usr/include/finclude/math-vector-fortran.h
REM seed 2072572390 -1472089788 925021616 83135154 -427836234 -955454988 920259434 -2093655699 1784854557 -2061218497 407629635 2134972088 -694264291 -2040819047 192446927 -1194445324 1538315075 -2047169294 1873133864 -1495706678 527401625 -900248188 -177551693 796824822 1217821420 715090435 -1697433058 -565779901 -2002101719 1007887550 1162465685 -1333479427 605554956
REM
CELL 1.54180   15.00000   15.00000   15.00000   90.00000   90.00000   90.00000
LATT -1
SFAC C  
C      1  0.3353120000000  0.3911850000000  0.3195870000000 1.0
C      1  0.2765630000000  0.3878820000000  0.5992270000000 1.0
C      1  0.5078310000000  0.3946730000000  0.7502670000000 1.0
C      1  0.7380410000000  0.3815960000000  0.5580570000000 1.0
C      1  0.6234950000000  0.3842860000000  0.2922900000000 1.0
C      1  0.3352080000000  0.6081220000000  0.3198520000000 1.0
C      1  0.2774740000000  0.6118910000000  0.6007250000000 1.0
C      1  0.5155070000000  0.6084890000000  0.7468550000000 1.0
C      1  0.7331580000000  0.6144790000000  0.5672880000000 1.0
C      1  0.6269540000000  0.6127570000000  0.2935470000000 1.0
C      1  0.3653620000000  0.4068220000000  0.4709520000000 1.0
C      1  0.4341560000000  0.4085560000000  0.6092750000000 1.0
C      1  0.5909370000000  0.4085940000000  0.6102610000000 1.0
C      1  0.6275830000000  0.4111300000000  0.4476290000000 1.0
C      1  0.4865450000000  0.4113350000000  0.3711980000000 1.0
C      1  0.3661800000000  0.5933730000000  0.4708690000000 1.0
C      1  0.4344910000000  0.5918520000000  0.6095210000000 1.0
C      1  0.5901150000000  0.5891180000000  0.6052840000000 1.0
C      1  0.6272610000000  0.5874030000000  0.4484950000000 1.0
C      1  0.4874120000000  0.5908600000000  0.3677280000000 1.0
C      1  0.3266930000000  0.6868140000000  0.5766380000000 1.0
C      1  0.5149920000000  0.6836420000000  0.6927090000000 1.0
C      1  0.6899420000000  0.6837270000000  0.5253310000000 1.0
C      1  0.5775950000000  0.6849950000000  0.3222210000000 1.0
C      1  0.3594330000000  0.6941340000000  0.3435440000000 1.0
C      1  0.3255940000000  0.3127300000000  0.5752490000000 1.0
C      1  0.5061080000000  0.3169220000000  0.6999010000000 1.0
C      1  0.7052140000000  0.3143330000000  0.5069500000000 1.0
C      1  0.5757620000000  0.3107550000000  0.3177730000000 1.0
C      1  0.3624910000000  0.3058360000000  0.3423080000000 1.0
C      1  0.5891580000000  0.6832420000000  0.6251350000000 1.0
C      1  0.6452730000000  0.6816860000000  0.4404670000000 1.0
C      1  0.4822800000000  0.6851570000000  0.3475190000000 1.0
C      1  0.3519310000000  0.6882590000000  0.4794550000000 1.0
C      1  0.4271560000000  0.6887770000000  0.6238920000000 1.0
C      1  0.5799690000000  0.3171440000000  0.6341130000000 1.0
C      1  0.6476730000000  0.3184020000000  0.4319140000000 1.0
C      1  0.4830730000000  0.3161130000000  0.3500520000000 1.0
C      1  0.3534190000000  0.3116460000000  0.4787210000000 1.0
C      1  0.4248870000000  0.3117920000000  0.6232740000000 1.0
C      1  0.4313380000000  0.2502340000000  0.4787910000000 1.0
C      1  0.4677520000000  0.2503800000000  0.5644440000000 1.0
C      1  0.5613910000000  0.2529500000000  0.5634480000000 1.0
C      1  0.5880960000000  0.2556020000000  0.4699690000000 1.0
C      1  0.5067750000000  0.2532860000000  0.4194080000000 1.0
C      1  0.4283450000000  0.7511240000000  0.4784740000000 1.0
C      1  0.4654560000000  0.7519310000000  0.5639200000000 1.0
C      1  0.5593910000000  0.7514410000000  0.5606880000000 1.0
C      1  0.5846980000000  0.7481890000000  0.4676530000000 1.0
C      1  0.5025300000000  0.7490600000000  0.4171420000000 1.0
C      1  0.5127570000000  0.5506200000000  0.6475850000000 1.0
C      1  0.6443570000000  0.5487710000000  0.5371260000000 1.0
C      1  0.5758630000000  0.5510280000000  0.3747680000000 1.0
C      1  0.4020200000000  0.5532600000000  0.3915230000000 1.0
C      1  0.3644040000000  0.5515030000000  0.5574270000000 1.0
C      1  0.5116160000000  0.4494260000000  0.6493880000000 1.0
C      1  0.6446730000000  0.4454190000000  0.5377050000000 1.0
C      1  0.5754950000000  0.4484910000000  0.3750810000000 1.0
C      1  0.4007480000000  0.4480090000000  0.3918260000000 1.0
C      1  0.3640700000000  0.4487660000000  0.5575600000000 1.0
END
