TITL C-1525613-7943-7799 -0.289062203150062 3375 -9022.44282923626 0 0 60 (C2) n - 1
REM
REM in /home/nfs/bkarasulu/CARBON/AIRSS/Generating-Clusters/ReaxFF-fromJPCA2015/Units_Real/Try2-Higher-symm/Only-C60
REM
REM
REM
REM
REM
REM ./C.cell (863b2abdce7293c0672fb3ba77bf323a)
REM AIRSS Version 0.9.1 bugfix July 2018 build 013d7b7c2542+ Fri, 06 Jul 2018 19:26:36 +0100
REM compiler GCC version 9.2.1 20190827 (Red Hat 9.2.1-1)
REM options -cpp -mtune=generic -march=x86-64 -g -O0 -fpre-include=/usr/include/finclude/math-vector-fortran.h
REM seed -2096751244 130105798 1640777 -1318227023 -859311684 295013589 -1769732380 48914529 -1674130494 -1243803948 -539586496 1557766859 1080794269 -1674348552 773616958 -1015500901 -2138792663 -306135150 1679546155 2016314194 1095382388 -1895182350 -148732862 269254196 1291409324 1452017364 -1320982352 2078493273 1949472230 -912510341 1842889038 -1051841632 -848871939
REM
CELL 1.54180   15.00000   15.00000   15.00000   90.00000   90.00000   90.00000
LATT -1
SFAC C  
C      1  0.5760890000000  0.2903450000000  0.6413650000000 1.0
C      1  0.6586890000000  0.2914860000000  0.4719890000000 1.0
C      1  0.5228050000000  0.2914320000000  0.3411230000000 1.0
C      1  0.3554580000000  0.2865750000000  0.4322850000000 1.0
C      1  0.3893150000000  0.2897910000000  0.6124250000000 1.0
C      1  0.5760890000000  0.7096560000000  0.3586350000000 1.0
C      1  0.6586890000000  0.7085140000000  0.5280110000000 1.0
C      1  0.5228050000000  0.7085680000000  0.6588770000000 1.0
C      1  0.3554580000000  0.7134250000000  0.5677150000000 1.0
C      1  0.3893150000000  0.7102090000000  0.3875760000000 1.0
C      1  0.6773020000000  0.3956390000000  0.4738950000000 1.0
C      1  0.5346640000000  0.3943280000000  0.3275260000000 1.0
C      1  0.3515800000000  0.3885580000000  0.4152270000000 1.0
C      1  0.3753970000000  0.3921690000000  0.6199790000000 1.0
C      1  0.5801820000000  0.3944840000000  0.6589670000000 1.0
C      1  0.6773020000000  0.6043610000000  0.5261050000000 1.0
C      1  0.5346640000000  0.6056720000000  0.6724740000000 1.0
C      1  0.3515800000000  0.6114420000000  0.5847730000000 1.0
C      1  0.3753970000000  0.6078310000000  0.3800210000000 1.0
C      1  0.5801820000000  0.6055160000000  0.3410330000000 1.0
C      1  0.7275000000000  0.5162260000000  0.6195340000000 1.0
C      1  0.6803420000000  0.5149340000000  0.3162170000000 1.0
C      1  0.3705500000000  0.5090140000000  0.2801040000000 1.0
C      1  0.2563440000000  0.5128540000000  0.5418260000000 1.0
C      1  0.4506190000000  0.5178530000000  0.7415820000000 1.0
C      1  0.7275000000000  0.4837740000000  0.3804660000000 1.0
C      1  0.6803420000000  0.4850660000000  0.6837830000000 1.0
C      1  0.3705500000000  0.4909860000000  0.7198960000000 1.0
C      1  0.2563440000000  0.4871460000000  0.4581740000000 1.0
C      1  0.4506190000000  0.4821470000000  0.2584180000000 1.0
C      1  0.4823060000000  0.7197810000000  0.3700770000000 1.0
C      1  0.3550140000000  0.7443510000000  0.4738120000000 1.0
C      1  0.4371370000000  0.7177370000000  0.6158520000000 1.0
C      1  0.5933310000000  0.7183930000000  0.5968240000000 1.0
C      1  0.6215880000000  0.7199080000000  0.4412880000000 1.0
C      1  0.4823060000000  0.2802190000000  0.6299230000000 1.0
C      1  0.3550140000000  0.2556490000000  0.5261880000000 1.0
C      1  0.4371370000000  0.2822630000000  0.3841480000000 1.0
C      1  0.5933310000000  0.2816070000000  0.4031760000000 1.0
C      1  0.6215880000000  0.2800920000000  0.5587120000000 1.0
C      1  0.5396230000000  0.4260100000000  0.5753880000000 1.0
C      1  0.5856840000000  0.4270230000000  0.4891520000000 1.0
C      1  0.5178820000000  0.4267710000000  0.4189520000000 1.0
C      1  0.4304330000000  0.4250100000000  0.4612520000000 1.0
C      1  0.4432270000000  0.4260450000000  0.5583130000000 1.0
C      1  0.5396230000000  0.5739900000000  0.4246120000000 1.0
C      1  0.5856840000000  0.5729770000000  0.5108480000000 1.0
C      1  0.5178820000000  0.5732290000000  0.5810480000000 1.0
C      1  0.4304330000000  0.5749900000000  0.5387480000000 1.0
C      1  0.4432270000000  0.5739550000000  0.4416870000000 1.0
C      1  0.2855470000000  0.5466800000000  0.6235700000000 1.0
C      1  0.5398570000000  0.5386630000000  0.7440970000000 1.0
C      1  0.7498890000000  0.5394430000000  0.5327190000000 1.0
C      1  0.6030650000000  0.5400360000000  0.2720270000000 1.0
C      1  0.3085810000000  0.5453850000000  0.3410130000000 1.0
C      1  0.2855470000000  0.4533200000000  0.3764300000000 1.0
C      1  0.5398570000000  0.4613370000000  0.2559030000000 1.0
C      1  0.7498890000000  0.4605570000000  0.4672810000000 1.0
C      1  0.6030650000000  0.4599640000000  0.7279740000000 1.0
C      1  0.3085810000000  0.4546150000000  0.6589870000000 1.0
END
