TITL C-1525613-7943-5962 -0.000111346274809309 3375 -9528.83331746229 0 0 60 (C2h) n - 1
REM
REM in /home/nfs/bkarasulu/CARBON/AIRSS/Generating-Clusters/ReaxFF-fromJPCA2015/Units_Real/Try2-Higher-symm/Only-C60
REM
REM
REM
REM
REM
REM ./C.cell (863b2abdce7293c0672fb3ba77bf323a)
REM AIRSS Version 0.9.1 bugfix July 2018 build 013d7b7c2542+ Fri, 06 Jul 2018 19:26:36 +0100
REM compiler GCC version 9.2.1 20190827 (Red Hat 9.2.1-1)
REM options -cpp -mtune=generic -march=x86-64 -g -O0 -fpre-include=/usr/include/finclude/math-vector-fortran.h
REM seed -22703611 -289945453 -656468499 -2093803973 1694369678 1438838916 -233768008 1612001683 993375637 1818672996 2096800345 1946745459 981389427 1205012635 661232703 1530807835 -1346203045 -2095909747 547340376 -785261883 -1689565786 -934229196 546528806 -1502080925 -1553573732 -377868382 -2026256221 -373034045 1210163436 504169503 1562401574 -1458348717 -1844524915
REM
CELL 1.54180   15.00000   15.00000   15.00000   90.00000   90.00000   90.00000
LATT -1
SFAC C  
C      1  0.4076410000000  0.6282770000000  0.6897810000000 1.0
C      1  0.3495630000000  0.4518050000000  0.6897740000000 1.0
C      1  0.4995060000000  0.3423330000000  0.6890980000000 1.0
C      1  0.6511950000000  0.4504580000000  0.6929480000000 1.0
C      1  0.5932270000000  0.6267270000000  0.6894580000000 1.0
C      1  0.4076410000000  0.3717230000000  0.6897810000000 1.0
C      1  0.3495630000000  0.5481950000000  0.6897740000000 1.0
C      1  0.4995060000000  0.6576670000000  0.6890990000000 1.0
C      1  0.6511950000000  0.5495420000000  0.6929480000000 1.0
C      1  0.5932270000000  0.3732730000000  0.6894570000000 1.0
C      1  0.2712000000000  0.4520310000000  0.5408140000000 1.0
C      1  0.4746570000000  0.2673500000000  0.5407730000000 1.0
C      1  0.7132120000000  0.4031550000000  0.5398620000000 1.0
C      1  0.6567180000000  0.6733490000000  0.5404650000000 1.0
C      1  0.3833140000000  0.7030070000000  0.5408570000000 1.0
C      1  0.2712000000000  0.5479690000000  0.5408140000000 1.0
C      1  0.4746570000000  0.7326500000000  0.5407730000000 1.0
C      1  0.7132120000000  0.5968450000000  0.5398620000000 1.0
C      1  0.6567180000000  0.3266510000000  0.5404650000000 1.0
C      1  0.3833140000000  0.2969930000000  0.5408570000000 1.0
C      1  0.7269450000000  0.4524640000000  0.4591310000000 1.0
C      1  0.6162730000000  0.7034430000000  0.4592180000000 1.0
C      1  0.3428990000000  0.6734130000000  0.4589640000000 1.0
C      1  0.2866700000000  0.4043170000000  0.4589500000000 1.0
C      1  0.5247350000000  0.2669640000000  0.4589960000000 1.0
C      1  0.7269450000000  0.5475360000000  0.4591310000000 1.0
C      1  0.6162730000000  0.2965570000000  0.4592180000000 1.0
C      1  0.3428990000000  0.3265860000000  0.4589630000000 1.0
C      1  0.2866700000000  0.5956830000000  0.4589500000000 1.0
C      1  0.5247350000000  0.7330350000000  0.4589960000000 1.0
C      1  0.5235650000000  0.2783220000000  0.6210850000000 1.0
C      1  0.7222790000000  0.4511080000000  0.6241690000000 1.0
C      1  0.6117860000000  0.6930970000000  0.6205670000000 1.0
C      1  0.3500050000000  0.6663270000000  0.6215900000000 1.0
C      1  0.2955210000000  0.4088230000000  0.6215410000000 1.0
C      1  0.5235660000000  0.7216780000000  0.6210850000000 1.0
C      1  0.7222790000000  0.5488920000000  0.6241690000000 1.0
C      1  0.6117860000000  0.3069030000000  0.6205670000000 1.0
C      1  0.3500050000000  0.3336730000000  0.6215900000000 1.0
C      1  0.2955210000000  0.5911770000000  0.6215410000000 1.0
C      1  0.6499910000000  0.3335270000000  0.3781760000000 1.0
C      1  0.7032160000000  0.5904600000000  0.3789690000000 1.0
C      1  0.4763260000000  0.7229940000000  0.3783330000000 1.0
C      1  0.2812170000000  0.5464000000000  0.3782470000000 1.0
C      1  0.3881720000000  0.3060400000000  0.3783690000000 1.0
C      1  0.6499910000000  0.6664730000000  0.3781760000000 1.0
C      1  0.7032160000000  0.4095400000000  0.3789690000000 1.0
C      1  0.4763260000000  0.2770050000000  0.3783330000000 1.0
C      1  0.2812170000000  0.4536000000000  0.3782460000000 1.0
C      1  0.3881720000000  0.6939600000000  0.3783690000000 1.0
C      1  0.5925390000000  0.6287230000000  0.3096660000000 1.0
C      1  0.4067800000000  0.6275370000000  0.3101660000000 1.0
C      1  0.3502080000000  0.4505300000000  0.3100620000000 1.0
C      1  0.5007080000000  0.3415220000000  0.3100140000000 1.0
C      1  0.6499300000000  0.4518130000000  0.3099570000000 1.0
C      1  0.5925390000000  0.3712770000000  0.3096660000000 1.0
C      1  0.4067800000000  0.3724630000000  0.3101660000000 1.0
C      1  0.3502080000000  0.5494710000000  0.3100630000000 1.0
C      1  0.5007080000000  0.6584780000000  0.3100140000000 1.0
C      1  0.6499300000000  0.5481870000000  0.3099560000000 1.0
END
