TITL C-1525613-7943-5114 0.171315960508572 3375 -8629.0545898536 0 0 60 (C1) n - 1
REM
REM in /home/nfs/bkarasulu/CARBON/AIRSS/Generating-Clusters/ReaxFF-fromJPCA2015/Units_Real/Try2-Higher-symm/Only-C60
REM
REM
REM
REM
REM
REM ./C.cell (863b2abdce7293c0672fb3ba77bf323a)
REM AIRSS Version 0.9.1 bugfix July 2018 build 013d7b7c2542+ Fri, 06 Jul 2018 19:26:36 +0100
REM compiler GCC version 9.2.1 20190827 (Red Hat 9.2.1-1)
REM options -cpp -mtune=generic -march=x86-64 -g -O0 -fpre-include=/usr/include/finclude/math-vector-fortran.h
REM seed 490831561 2112520614 183823055 897128155 1192730242 -237763261 -1449137002 687988229 -269092022 1927816674 -1014165166 -1310344951 135683454 -1181218730 559331193 677620856 -1455172367 1231266557 938427279 -1262659825 574821981 -1165467156 -1451837714 -1659655722 1942971047 1714563772 1680783923 2094409352 -1773734913 1249729641 -1366423299 -1685621429 -2075360845
REM
CELL 1.54180   15.00000   15.00000   15.00000   90.00000   90.00000   90.00000
LATT -1
SFAC C  
C      1  0.4008590000000  0.4820680000000  0.5992060000000 1.0
C      1  0.4771750000000  0.4183670000000  0.5757290000000 1.0
C      1  0.5599730000000  0.4610720000000  0.5763530000000 1.0
C      1  0.5489930000000  0.5576000000000  0.5797880000000 1.0
C      1  0.4557900000000  0.5750390000000  0.5868250000000 1.0
C      1  0.4044540000000  0.4825630000000  0.4031790000000 1.0
C      1  0.4807640000000  0.4145660000000  0.4221020000000 1.0
C      1  0.5632360000000  0.4587830000000  0.4225610000000 1.0
C      1  0.5500620000000  0.5557190000000  0.4231710000000 1.0
C      1  0.4580850000000  0.5716160000000  0.4191640000000 1.0
C      1  0.6526890000000  0.4185050000000  0.5578140000000 1.0
C      1  0.6254720000000  0.6191230000000  0.5521700000000 1.0
C      1  0.4161650000000  0.6629470000000  0.5601520000000 1.0
C      1  0.3104470000000  0.5004680000000  0.5478900000000 1.0
C      1  0.4734210000000  0.3202860000000  0.5602080000000 1.0
C      1  0.6560920000000  0.4176380000000  0.4426430000000 1.0
C      1  0.6260870000000  0.6197990000000  0.4493400000000 1.0
C      1  0.4191540000000  0.6613270000000  0.4394070000000 1.0
C      1  0.3120630000000  0.5008840000000  0.4512560000000 1.0
C      1  0.4738600000000  0.3180630000000  0.4427350000000 1.0
C      1  0.4370920000000  0.4699040000000  0.7642710000000 1.0
C      1  0.5272960000000  0.4208780000000  0.7643580000000 1.0
C      1  0.5942690000000  0.4912900000000  0.7609180000000 1.0
C      1  0.5484470000000  0.5797610000000  0.7586640000000 1.0
C      1  0.4496420000000  0.5704360000000  0.7651180000000 1.0
C      1  0.4342320000000  0.4710570000000  0.2360700000000 1.0
C      1  0.5249060000000  0.4215890000000  0.2364570000000 1.0
C      1  0.5915110000000  0.4925750000000  0.2389710000000 1.0
C      1  0.5451330000000  0.5814390000000  0.2380130000000 1.0
C      1  0.4460030000000  0.5718530000000  0.2305390000000 1.0
C      1  0.3725650000000  0.4537540000000  0.3049010000000 1.0
C      1  0.5378360000000  0.3383840000000  0.2845700000000 1.0
C      1  0.6766020000000  0.4799120000000  0.2873710000000 1.0
C      1  0.5822750000000  0.6559580000000  0.2820730000000 1.0
C      1  0.3889310000000  0.6132500000000  0.2899330000000 1.0
C      1  0.3728860000000  0.4513160000000  0.6972950000000 1.0
C      1  0.5392720000000  0.3364860000000  0.7170700000000 1.0
C      1  0.6803080000000  0.4765670000000  0.7137350000000 1.0
C      1  0.5853070000000  0.6543020000000  0.7126250000000 1.0
C      1  0.3902940000000  0.6109630000000  0.7048980000000 1.0
C      1  0.7102620000000  0.5775820000000  0.4139760000000 1.0
C      1  0.4809700000000  0.7334240000000  0.4120580000000 1.0
C      1  0.2733440000000  0.5772890000000  0.4030930000000 1.0
C      1  0.3829240000000  0.2863620000000  0.4086840000000 1.0
C      1  0.6433140000000  0.3221700000000  0.4070090000000 1.0
C      1  0.7089350000000  0.5771110000000  0.5880730000000 1.0
C      1  0.4784030000000  0.7355700000000  0.5880380000000 1.0
C      1  0.2701420000000  0.5769410000000  0.5938760000000 1.0
C      1  0.3824360000000  0.2868530000000  0.5926370000000 1.0
C      1  0.6412280000000  0.3222110000000  0.5926300000000 1.0
C      1  0.2954010000000  0.2908600000000  0.5523600000000 1.0
C      1  0.5542780000000  0.2976150000000  0.6270940000000 1.0
C      1  0.7086200000000  0.4834530000000  0.6198410000000 1.0
C      1  0.5669700000000  0.7109300000000  0.6292260000000 1.0
C      1  0.3393080000000  0.6410210000000  0.6326410000000 1.0
C      1  0.2953960000000  0.2912460000000  0.4479550000000 1.0
C      1  0.5550510000000  0.2987040000000  0.3742150000000 1.0
C      1  0.7094800000000  0.4852460000000  0.3799370000000 1.0
C      1  0.5706740000000  0.7067070000000  0.3717000000000 1.0
C      1  0.3432140000000  0.6405990000000  0.3654160000000 1.0
END
