TITL C-1525613-7943-3576 -0.0699400478312315 3375 -8554.33631140101 0 0 60 (Ci) n - 1
REM
REM in /home/nfs/bkarasulu/CARBON/AIRSS/Generating-Clusters/ReaxFF-fromJPCA2015/Units_Real/Try2-Higher-symm/Only-C60
REM
REM
REM
REM
REM
REM ./C.cell (863b2abdce7293c0672fb3ba77bf323a)
REM AIRSS Version 0.9.1 bugfix July 2018 build 013d7b7c2542+ Fri, 06 Jul 2018 19:26:36 +0100
REM compiler GCC version 9.2.1 20190827 (Red Hat 9.2.1-1)
REM options -cpp -mtune=generic -march=x86-64 -g -O0 -fpre-include=/usr/include/finclude/math-vector-fortran.h
REM seed 728800215 836782829 -1352154954 -1014461898 641905119 252885337 -1508021078 1583741019 1084240682 -60652941 531790814 -346091917 1161930440 801001132 -2114339618 -669485609 -1709189085 -1186223943 2039383941 -1360027513 -1401892060 -2042917838 -1102455401 -861002113 810724870 -1617160315 -1275176897 -401653911 1531763195 -1109259062 -329459962 676141040 1330207946
REM
CELL 1.54180   15.00000   15.00000   15.00000   90.00000   90.00000   90.00000
LATT -1
SFAC C  
C      1  0.7046770000000  0.6413610000000  0.4773740000000 1.0
C      1  0.2989390000000  0.5944610000000  0.4080610000000 1.0
C      1  0.6956120000000  0.5181030000000  0.3767450000000 1.0
C      1  0.3030450000000  0.4351580000000  0.3882590000000 1.0
C      1  0.6983020000000  0.3738790000000  0.4409090000000 1.0
C      1  0.2953540000000  0.3586170000000  0.5226110000000 1.0
C      1  0.7010540000000  0.4055030000000  0.5919510000000 1.0
C      1  0.3043690000000  0.4818940000000  0.6232300000000 1.0
C      1  0.6969490000000  0.5648530000000  0.6117510000000 1.0
C      1  0.3016950000000  0.6261220000000  0.5590920000000 1.0
C      1  0.6120470000000  0.6847380000000  0.4729740000000 1.0
C      1  0.3905570000000  0.6273120000000  0.3692580000000 1.0
C      1  0.6070930000000  0.5222870000000  0.3254580000000 1.0
C      1  0.3941260000000  0.4146020000000  0.3440740000000 1.0
C      1  0.6036980000000  0.3353440000000  0.4215560000000 1.0
C      1  0.3878960000000  0.3152410000000  0.5270110000000 1.0
C      1  0.6094460000000  0.3726460000000  0.6307650000000 1.0
C      1  0.3929070000000  0.4776920000000  0.6745600000000 1.0
C      1  0.6058730000000  0.5853980000000  0.6559120000000 1.0
C      1  0.3962910000000  0.6646440000000  0.5784100000000 1.0
C      1  0.6112310000000  0.5139330000000  0.7368900000000 1.0
C      1  0.3912590000000  0.6540890000000  0.6876150000000 1.0
C      1  0.6076020000000  0.7389520000000  0.5688080000000 1.0
C      1  0.3918840000000  0.7269480000000  0.4127190000000 1.0
C      1  0.6052870000000  0.6248810000000  0.2994150000000 1.0
C      1  0.3887600000000  0.4861050000000  0.2631250000000 1.0
C      1  0.6087370000000  0.3459190000000  0.3124240000000 1.0
C      1  0.3924000000000  0.2610580000000  0.4312040000000 1.0
C      1  0.6081090000000  0.2731060000000  0.5873100000000 1.0
C      1  0.3947210000000  0.3751260000000  0.7005760000000 1.0
C      1  0.4784470000000  0.4345910000000  0.3852120000000 1.0
C      1  0.5191260000000  0.3777620000000  0.4412250000000 1.0
C      1  0.4744430000000  0.3614240000000  0.5240920000000 1.0
C      1  0.5217890000000  0.4058260000000  0.5974690000000 1.0
C      1  0.4789070000000  0.4856950000000  0.6300410000000 1.0
C      1  0.5215640000000  0.5654280000000  0.6147880000000 1.0
C      1  0.4808860000000  0.6222520000000  0.5587250000000 1.0
C      1  0.5255230000000  0.6385560000000  0.4759450000000 1.0
C      1  0.4782420000000  0.5941660000000  0.4025320000000 1.0
C      1  0.5210900000000  0.5143260000000  0.3699570000000 1.0
C      1  0.6125400000000  0.4224670000000  0.7269600000000 1.0
C      1  0.3888400000000  0.5730240000000  0.7287640000000 1.0
C      1  0.6082430000000  0.6946420000000  0.6483230000000 1.0
C      1  0.3939670000000  0.7429630000000  0.5029020000000 1.0
C      1  0.5967180000000  0.6899160000000  0.3677610000000 1.0
C      1  0.3874510000000  0.5774770000000  0.2730070000000 1.0
C      1  0.6111620000000  0.4269730000000  0.2712430000000 1.0
C      1  0.3917570000000  0.3053540000000  0.3516710000000 1.0
C      1  0.6060220000000  0.2570520000000  0.4970790000000 1.0
C      1  0.4033120000000  0.3101160000000  0.6321890000000 1.0
C      1  0.2716300000000  0.4205840000000  0.5746640000000 1.0
C      1  0.7216580000000  0.4870640000000  0.5906960000000 1.0
C      1  0.2732680000000  0.5539960000000  0.5915850000000 1.0
C      1  0.7315010000000  0.6149240000000  0.5523940000000 1.0
C      1  0.2708480000000  0.6261850000000  0.4811690000000 1.0
C      1  0.7283730000000  0.5794140000000  0.4253310000000 1.0
C      1  0.2783780000000  0.5129510000000  0.4093350000000 1.0
C      1  0.7267340000000  0.4460120000000  0.4084320000000 1.0
C      1  0.2685070000000  0.3850540000000  0.4476210000000 1.0
C      1  0.7291510000000  0.3738330000000  0.5188400000000 1.0
END
