TITL C-1525613-7943-586 0.0173899056067553 3375 -8938.18781214005 0 0 60 (C2) n - 1
REM
REM in /home/nfs/bkarasulu/CARBON/AIRSS/Generating-Clusters/ReaxFF-fromJPCA2015/Units_Real/Try2-Higher-symm/Only-C60
REM
REM
REM
REM
REM
REM ./C.cell (863b2abdce7293c0672fb3ba77bf323a)
REM AIRSS Version 0.9.1 bugfix July 2018 build 013d7b7c2542+ Fri, 06 Jul 2018 19:26:36 +0100
REM compiler GCC version 9.2.1 20190827 (Red Hat 9.2.1-1)
REM options -cpp -mtune=generic -march=x86-64 -g -O0 -fpre-include=/usr/include/finclude/math-vector-fortran.h
REM seed 317291205 -1562605665 1913687871 590290774 2001479700 -34289863 221954719 -143013832 -1206594885 1878901788 368317372 -224541426 1252138579 -1990266808 1862602396 1777047128 1662050986 -654010088 2022867526 1303140008 2089364325 1948991681 -935851089 -1086666701 -402715271 -1551863534 -358368871 728589650 -2122930208 489343759 -1055801588 -1482069681 2015247363
REM
CELL 1.54180   15.00000   15.00000   15.00000   90.00000   90.00000   90.00000
LATT -1
SFAC C  
C      1  0.6401700000000  0.6098950000000  0.6071220000000 1.0
C      1  0.6450400000000  0.6546460000000  0.5217700000000 1.0
C      1  0.6460380000000  0.6409910000000  0.4265870000000 1.0
C      1  0.6436380000000  0.5713710000000  0.3591820000000 1.0
C      1  0.6354050000000  0.4759960000000  0.3491670000000 1.0
C      1  0.6401640000000  0.3903700000000  0.3929070000000 1.0
C      1  0.6449430000000  0.3456320000000  0.4782710000000 1.0
C      1  0.6459950000000  0.3592250000000  0.5734540000000 1.0
C      1  0.6436610000000  0.4288550000000  0.6408460000000 1.0
C      1  0.6354210000000  0.5242370000000  0.6508190000000 1.0
C      1  0.4076890000000  0.2220240000000  0.4696660000000 1.0
C      1  0.3892150000000  0.2106510000000  0.6035060000000 1.0
C      1  0.3885880000000  0.3395690000000  0.6866840000000 1.0
C      1  0.3769440000000  0.4999200000000  0.7759820000000 1.0
C      1  0.3784200000000  0.6730280000000  0.7212490000000 1.0
C      1  0.4081120000000  0.7785350000000  0.5305000000000 1.0
C      1  0.3893690000000  0.7885280000000  0.3965410000000 1.0
C      1  0.3886530000000  0.6596590000000  0.3137470000000 1.0
C      1  0.3771550000000  0.4998160000000  0.2234010000000 1.0
C      1  0.3784930000000  0.3266650000000  0.2782110000000 1.0
C      1  0.5960510000000  0.2643310000000  0.4667190000000 1.0
C      1  0.5994950000000  0.2840580000000  0.6102330000000 1.0
C      1  0.5947790000000  0.3928770000000  0.7147940000000 1.0
C      1  0.5797800000000  0.5370860000000  0.7275900000000 1.0
C      1  0.5880970000000  0.6675190000000  0.6628910000000 1.0
C      1  0.5962140000000  0.7359880000000  0.5333300000000 1.0
C      1  0.5995880000000  0.7161420000000  0.3897400000000 1.0
C      1  0.5947820000000  0.6072990000000  0.2851930000000 1.0
C      1  0.5798120000000  0.4630750000000  0.2723930000000 1.0
C      1  0.5881210000000  0.3327250000000  0.3371360000000 1.0
C      1  0.5523920000000  0.7396120000000  0.6153370000000 1.0
C      1  0.5564760000000  0.7698340000000  0.4548100000000 1.0
C      1  0.5612640000000  0.6937330000000  0.3056350000000 1.0
C      1  0.5419480000000  0.5434050000000  0.2385050000000 1.0
C      1  0.5473740000000  0.3755220000000  0.2649800000000 1.0
C      1  0.5522080000000  0.2607730000000  0.3847350000000 1.0
C      1  0.5562560000000  0.2304320000000  0.5451700000000 1.0
C      1  0.5613580000000  0.3063640000000  0.6944310000000 1.0
C      1  0.5418860000000  0.4567430000000  0.7614250000000 1.0
C      1  0.5472880000000  0.6245810000000  0.7349320000000 1.0
C      1  0.3386710000000  0.2531790000000  0.5341200000000 1.0
C      1  0.3384690000000  0.2823760000000  0.6264570000000 1.0
C      1  0.3712740000000  0.4081630000000  0.7554040000000 1.0
C      1  0.3891410000000  0.5783700000000  0.7264130000000 1.0
C      1  0.3962240000000  0.7218170000000  0.6519250000000 1.0
C      1  0.3390870000000  0.7463430000000  0.4664420000000 1.0
C      1  0.3385860000000  0.7165710000000  0.3742470000000 1.0
C      1  0.3712790000000  0.5914250000000  0.2446770000000 1.0
C      1  0.3891860000000  0.4212420000000  0.2727410000000 1.0
C      1  0.3957990000000  0.2784750000000  0.3480430000000 1.0
C      1  0.4747740000000  0.3207840000000  0.6893370000000 1.0
C      1  0.4501070000000  0.4459640000000  0.7928980000000 1.0
C      1  0.4557650000000  0.6373250000000  0.7633500000000 1.0
C      1  0.4524000000000  0.7546930000000  0.6087150000000 1.0
C      1  0.4640590000000  0.8039370000000  0.4558320000000 1.0
C      1  0.4747580000000  0.6788660000000  0.3109110000000 1.0
C      1  0.4501880000000  0.5540600000000  0.2069650000000 1.0
C      1  0.4559780000000  0.3622620000000  0.2362760000000 1.0
C      1  0.4521170000000  0.2462270000000  0.3916940000000 1.0
C      1  0.4638560000000  0.1962090000000  0.5439670000000 1.0
END
