TITL C-1525613-7943-7595 0.168640822507827 3375 -8886.67597845828 0 0 60 (D5) n - 1
REM
REM in /home/nfs/bkarasulu/CARBON/AIRSS/Generating-Clusters/ReaxFF-fromJPCA2015/Units_Real/Try2-Higher-symm/Only-C60
REM
REM
REM
REM
REM
REM ./C.cell (863b2abdce7293c0672fb3ba77bf323a)
REM AIRSS Version 0.9.1 bugfix July 2018 build 013d7b7c2542+ Fri, 06 Jul 2018 19:26:36 +0100
REM compiler GCC version 9.2.1 20190827 (Red Hat 9.2.1-1)
REM options -cpp -mtune=generic -march=x86-64 -g -O0 -fpre-include=/usr/include/finclude/math-vector-fortran.h
REM seed 1334957352 2023943487 662525125 1579780166 347078913 -1323431477 -922214388 706163103 251386395 -622052061 -199078561 1031067846 -1342394991 1602288561 450679752 -1857961139 -850791959 821218466 -354226792 -1115130363 -875924539 1430071002 -1040803181 455468170 -2134858317 -696399082 1378284772 -1208790054 -932540194 159086648 298750214 -464405352 1648543253
REM
CELL 1.54180   15.00000   15.00000   15.00000   90.00000   90.00000   90.00000
LATT -1
SFAC C  
C      1  0.6282730000000  0.6632770000000  0.3896650000000 1.0
C      1  0.6949090000000  0.4284350000000  0.3896670000000 1.0
C      1  0.4922110000000  0.2924870000000  0.3896480000000 1.0
C      1  0.3002690000000  0.4433720000000  0.3896790000000 1.0
C      1  0.3843950000000  0.6724120000000  0.3896910000000 1.0
C      1  0.6282730000000  0.3367230000000  0.6103350000000 1.0
C      1  0.6949090000000  0.5715650000000  0.6103330000000 1.0
C      1  0.4922110000000  0.7075130000000  0.6103520000000 1.0
C      1  0.3002690000000  0.5566280000000  0.6103210000000 1.0
C      1  0.3843950000000  0.3275880000000  0.6103090000000 1.0
C      1  0.5731060000000  0.7141230000000  0.4513920000000 1.0
C      1  0.7262470000000  0.4966690000000  0.4514840000000 1.0
C      1  0.5666940000000  0.2837970000000  0.4513870000000 1.0
C      1  0.3150010000000  0.3697470000000  0.4514900000000 1.0
C      1  0.3189360000000  0.6356810000000  0.4514850000000 1.0
C      1  0.5731060000000  0.2858770000000  0.5486080000000 1.0
C      1  0.7262470000000  0.5033310000000  0.5485160000000 1.0
C      1  0.5666940000000  0.7162030000000  0.5486130000000 1.0
C      1  0.3150010000000  0.6302530000000  0.5485100000000 1.0
C      1  0.3189360000000  0.3643190000000  0.5485150000000 1.0
C      1  0.5182750000000  0.4185220000000  0.2723840000000 1.0
C      1  0.4281490000000  0.4574300000000  0.2724060000000 1.0
C      1  0.4373030000000  0.5551910000000  0.2724130000000 1.0
C      1  0.5331060000000  0.5766780000000  0.2723950000000 1.0
C      1  0.5831520000000  0.4921990000000  0.2723980000000 1.0
C      1  0.5182750000000  0.5814780000000  0.7276160000000 1.0
C      1  0.4281490000000  0.5425700000000  0.7275940000000 1.0
C      1  0.4373030000000  0.4448090000000  0.7275870000000 1.0
C      1  0.5331060000000  0.4233220000000  0.7276050000000 1.0
C      1  0.5831520000000  0.5078010000000  0.7276020000000 1.0
C      1  0.5433710000000  0.6621680000000  0.6771850000000 1.0
C      1  0.6676070000000  0.5088360000000  0.6772560000000 1.0
C      1  0.5601920000000  0.3433240000000  0.6772140000000 1.0
C      1  0.3695970000000  0.3943550000000  0.6772640000000 1.0
C      1  0.3592050000000  0.5913400000000  0.6772610000000 1.0
C      1  0.5433710000000  0.3378320000000  0.3228150000000 1.0
C      1  0.6676070000000  0.4911640000000  0.3227440000000 1.0
C      1  0.5601920000000  0.6566760000000  0.3227860000000 1.0
C      1  0.3695970000000  0.6056450000000  0.3227360000000 1.0
C      1  0.3592050000000  0.4086600000000  0.3227390000000 1.0
C      1  0.4573260000000  0.5664640000000  0.5689060000000 1.0
C      1  0.5500240000000  0.5611360000000  0.5689130000000 1.0
C      1  0.5735810000000  0.4713070000000  0.5688940000000 1.0
C      1  0.4954280000000  0.4211420000000  0.5689160000000 1.0
C      1  0.4235950000000  0.4799790000000  0.5689060000000 1.0
C      1  0.4573260000000  0.4335360000000  0.4310940000000 1.0
C      1  0.5500240000000  0.4388640000000  0.4310870000000 1.0
C      1  0.5735810000000  0.5286930000000  0.4311060000000 1.0
C      1  0.4954280000000  0.5788580000000  0.4310840000000 1.0
C      1  0.4235950000000  0.5200210000000  0.4310940000000 1.0
C      1  0.4908010000000  0.3239580000000  0.6010180000000 1.0
C      1  0.3297590000000  0.4543490000000  0.6009690000000 1.0
C      1  0.4039810000000  0.6477960000000  0.6009620000000 1.0
C      1  0.6109330000000  0.6370100000000  0.6010200000000 1.0
C      1  0.6645740000000  0.4368730000000  0.6009760000000 1.0
C      1  0.4908010000000  0.6760420000000  0.3989820000000 1.0
C      1  0.3297590000000  0.5456510000000  0.3990310000000 1.0
C      1  0.4039810000000  0.3522040000000  0.3990380000000 1.0
C      1  0.6109330000000  0.3629900000000  0.3989800000000 1.0
C      1  0.6645740000000  0.5631270000000  0.3990240000000 1.0
END
