TITL C-1525613-7943-5934 -0.00202390546718736 3375 -8628.11557195908 0 0 60 (Cs) n - 1
REM
REM in /home/nfs/bkarasulu/CARBON/AIRSS/Generating-Clusters/ReaxFF-fromJPCA2015/Units_Real/Try2-Higher-symm/Only-C60
REM
REM
REM
REM
REM
REM ./C.cell (863b2abdce7293c0672fb3ba77bf323a)
REM AIRSS Version 0.9.1 bugfix July 2018 build 013d7b7c2542+ Fri, 06 Jul 2018 19:26:36 +0100
REM compiler GCC version 9.2.1 20190827 (Red Hat 9.2.1-1)
REM options -cpp -mtune=generic -march=x86-64 -g -O0 -fpre-include=/usr/include/finclude/math-vector-fortran.h
REM seed 790923494 -1164036289 -2000979383 -275986458 -1972421536 -1630229817 -1004036415 1450137051 -1353850157 1887190144 1101946647 -1855239826 -879915673 -1112768434 1834792696 1954549816 1940223658 -907083261 -85320153 1848044224 963831141 -1513473616 1286499565 -1461421289 140552206 -1478322122 -459861469 127149457 -573938798 558631414 -1681405698 -1969843417 522159256
REM
CELL 1.54180   15.00000   15.00000   15.00000   90.00000   90.00000   90.00000
LATT -1
SFAC C  
C      1  0.6672000000000  0.3952620000000  0.4566150000000 1.0
C      1  0.5119200000000  0.3953030000000  0.3249400000000 1.0
C      1  0.3362840000000  0.3953050000000  0.4368480000000 1.0
C      1  0.3900410000000  0.3952650000000  0.6332300000000 1.0
C      1  0.5910490000000  0.3829240000000  0.6428670000000 1.0
C      1  0.6722710000000  0.6062700000000  0.4582400000000 1.0
C      1  0.5127570000000  0.6036670000000  0.3237420000000 1.0
C      1  0.3348190000000  0.6036640000000  0.4371780000000 1.0
C      1  0.3894410000000  0.6062680000000  0.6385570000000 1.0
C      1  0.5893120000000  0.6146850000000  0.6400710000000 1.0
C      1  0.6033160000000  0.7085260000000  0.6620370000000 1.0
C      1  0.6850550000000  0.7024930000000  0.4555370000000 1.0
C      1  0.5131880000000  0.7000540000000  0.3112730000000 1.0
C      1  0.3233190000000  0.7000490000000  0.4323250000000 1.0
C      1  0.3816010000000  0.7024910000000  0.6490130000000 1.0
C      1  0.6038370000000  0.2890880000000  0.6629770000000 1.0
C      1  0.6829950000000  0.2995380000000  0.4549890000000 1.0
C      1  0.5128190000000  0.2991680000000  0.3115500000000 1.0
C      1  0.3237820000000  0.2991700000000  0.4319740000000 1.0
C      1  0.3818700000000  0.2995400000000  0.6468310000000 1.0
C      1  0.5059170000000  0.4431780000000  0.4166060000000 1.0
C      1  0.4219010000000  0.4431800000000  0.4701480000000 1.0
C      1  0.4507820000000  0.4394410000000  0.5651150000000 1.0
C      1  0.5397590000000  0.4068730000000  0.5623970000000 1.0
C      1  0.5798010000000  0.4394400000000  0.4828940000000 1.0
C      1  0.5064370000000  0.5559650000000  0.4152550000000 1.0
C      1  0.4204530000000  0.5559640000000  0.4700700000000 1.0
C      1  0.4518480000000  0.5603180000000  0.5691670000000 1.0
C      1  0.5407940000000  0.5919480000000  0.5639910000000 1.0
C      1  0.5830250000000  0.5603190000000  0.4855380000000 1.0
C      1  0.6506270000000  0.7709110000000  0.5105090000000 1.0
C      1  0.5557030000000  0.7668750000000  0.3618960000000 1.0
C      1  0.3850660000000  0.7658540000000  0.4062300000000 1.0
C      1  0.3745380000000  0.7682370000000  0.5822760000000 1.0
C      1  0.5388330000000  0.7766190000000  0.6472380000000 1.0
C      1  0.6504380000000  0.2307640000000  0.5107190000000 1.0
C      1  0.5557550000000  0.2321940000000  0.3617580000000 1.0
C      1  0.3850920000000  0.2328170000000  0.4061360000000 1.0
C      1  0.3743820000000  0.2320480000000  0.5821610000000 1.0
C      1  0.5389250000000  0.2236230000000  0.6471250000000 1.0
C      1  0.3511410000000  0.2321950000000  0.4921040000000 1.0
C      1  0.4461340000000  0.2307670000000  0.6408680000000 1.0
C      1  0.6168900000000  0.2236120000000  0.5974580000000 1.0
C      1  0.6275550000000  0.2320360000000  0.4208790000000 1.0
C      1  0.4634940000000  0.2328120000000  0.3561930000000 1.0
C      1  0.3512680000000  0.7668690000000  0.4922340000000 1.0
C      1  0.4459700000000  0.7709050000000  0.6409890000000 1.0
C      1  0.6171070000000  0.7766240000000  0.5973360000000 1.0
C      1  0.6275260000000  0.7682380000000  0.4209770000000 1.0
C      1  0.4634690000000  0.7658520000000  0.3562470000000 1.0
C      1  0.6201350000000  0.4573380000000  0.6884330000000 1.0
C      1  0.7261630000000  0.4605520000000  0.4372250000000 1.0
C      1  0.5161980000000  0.4583620000000  0.2610160000000 1.0
C      1  0.2765230000000  0.4583580000000  0.4137420000000 1.0
C      1  0.3475900000000  0.4605510000000  0.6785160000000 1.0
C      1  0.6187410000000  0.5400780000000  0.6862200000000 1.0
C      1  0.7332330000000  0.5434120000000  0.4357820000000 1.0
C      1  0.5166330000000  0.5413650000000  0.2583740000000 1.0
C      1  0.2739450000000  0.5413600000000  0.4130550000000 1.0
C      1  0.3433320000000  0.5434120000000  0.6843270000000 1.0
END
