TITL C-1525613-7943-2846 -0.0016527856266167 3375 -9430.61832119692 0 0 60 (C1) n - 1
REM
REM in /home/nfs/bkarasulu/CARBON/AIRSS/Generating-Clusters/ReaxFF-fromJPCA2015/Units_Real/Try2-Higher-symm/Only-C60
REM
REM
REM
REM
REM
REM ./C.cell (863b2abdce7293c0672fb3ba77bf323a)
REM AIRSS Version 0.9.1 bugfix July 2018 build 013d7b7c2542+ Fri, 06 Jul 2018 19:26:36 +0100
REM compiler GCC version 9.2.1 20190827 (Red Hat 9.2.1-1)
REM options -cpp -mtune=generic -march=x86-64 -g -O0 -fpre-include=/usr/include/finclude/math-vector-fortran.h
REM seed 2021861405 -1186825036 318299519 -1622313215 -1988500522 730875749 1980085859 -964517187 1849773215 693149749 -1146976836 417180116 1616765993 1292465203 -1360555040 -355709653 -458822390 -502096722 -1549363580 -400323139 487766355 -115832792 -1400098312 885305622 -1610679631 1361931729 1492042971 1309018653 178746721 -1253380141 -856208989 -1413656995 1997363872
REM
CELL 1.54180   15.00000   15.00000   15.00000   90.00000   90.00000   90.00000
LATT -1
SFAC C  
C      1  0.3355110000000  0.3489910000000  0.3784290000000 1.0
C      1  0.3009550000000  0.6107370000000  0.3756030000000 1.0
C      1  0.5493400000000  0.7228230000000  0.3796310000000 1.0
C      1  0.7220760000000  0.5184580000000  0.3778710000000 1.0
C      1  0.5917880000000  0.2913140000000  0.3770380000000 1.0
C      1  0.6657220000000  0.3478890000000  0.3775880000000 1.0
C      1  0.6994620000000  0.6108270000000  0.3760000000000 1.0
C      1  0.4511990000000  0.7229990000000  0.3794190000000 1.0
C      1  0.2788540000000  0.5182670000000  0.3776170000000 1.0
C      1  0.4086570000000  0.2908930000000  0.3767640000000 1.0
C      1  0.6274730000000  0.4058720000000  0.3114970000000 1.0
C      1  0.4517730000000  0.3467930000000  0.3085540000000 1.0
C      1  0.3455660000000  0.4962440000000  0.3153580000000 1.0
C      1  0.4505710000000  0.6475670000000  0.3154550000000 1.0
C      1  0.6278210000000  0.5898940000000  0.3111830000000 1.0
C      1  0.3733640000000  0.4065340000000  0.3123270000000 1.0
C      1  0.5483170000000  0.3466810000000  0.3088650000000 1.0
C      1  0.6550190000000  0.4959990000000  0.3157450000000 1.0
C      1  0.5499730000000  0.6473570000000  0.3157220000000 1.0
C      1  0.3726710000000  0.5902020000000  0.3107070000000 1.0
C      1  0.4509510000000  0.3449110000000  0.6890420000000 1.0
C      1  0.3453600000000  0.4977890000000  0.6890250000000 1.0
C      1  0.4520470000000  0.6525050000000  0.6831400000000 1.0
C      1  0.6242960000000  0.5906250000000  0.6851670000000 1.0
C      1  0.6259730000000  0.4032170000000  0.6881450000000 1.0
C      1  0.5494900000000  0.3445750000000  0.6883330000000 1.0
C      1  0.6530040000000  0.4981830000000  0.6853970000000 1.0
C      1  0.5480820000000  0.6527190000000  0.6834850000000 1.0
C      1  0.3759060000000  0.5900800000000  0.6843420000000 1.0
C      1  0.3736570000000  0.4029850000000  0.6909930000000 1.0
C      1  0.2993010000000  0.3808720000000  0.4585740000000 1.0
C      1  0.3157340000000  0.6595480000000  0.4582330000000 1.0
C      1  0.6120310000000  0.7259900000000  0.4571280000000 1.0
C      1  0.7322310000000  0.4719520000000  0.4582890000000 1.0
C      1  0.5485120000000  0.2669080000000  0.4580790000000 1.0
C      1  0.7026730000000  0.3806430000000  0.4583680000000 1.0
C      1  0.6843520000000  0.6591030000000  0.4588550000000 1.0
C      1  0.3883360000000  0.7261760000000  0.4567630000000 1.0
C      1  0.2684240000000  0.4711340000000  0.4582440000000 1.0
C      1  0.4525550000000  0.2664430000000  0.4583560000000 1.0
C      1  0.4535700000000  0.2765240000000  0.6194700000000 1.0
C      1  0.2743920000000  0.4747410000000  0.6235200000000 1.0
C      1  0.3945260000000  0.7195230000000  0.6309980000000 1.0
C      1  0.6764130000000  0.6501960000000  0.6265870000000 1.0
C      1  0.6931910000000  0.3851340000000  0.6207400000000 1.0
C      1  0.5463310000000  0.2769350000000  0.6198760000000 1.0
C      1  0.7203310000000  0.4738200000000  0.6195440000000 1.0
C      1  0.6057400000000  0.7194400000000  0.6312450000000 1.0
C      1  0.3235880000000  0.6504860000000  0.6263970000000 1.0
C      1  0.3045180000000  0.3814860000000  0.6234820000000 1.0
C      1  0.3277330000000  0.3383110000000  0.5391230000000 1.0
C      1  0.2891850000000  0.6166670000000  0.5406900000000 1.0
C      1  0.5859250000000  0.7643590000000  0.5449970000000 1.0
C      1  0.7332020000000  0.5221090000000  0.5393380000000 1.0
C      1  0.5959720000000  0.2826360000000  0.5398190000000 1.0
C      1  0.6733230000000  0.3393750000000  0.5403490000000 1.0
C      1  0.7096470000000  0.6155900000000  0.5410160000000 1.0
C      1  0.4143590000000  0.7643710000000  0.5447350000000 1.0
C      1  0.2642130000000  0.5230960000000  0.5393820000000 1.0
C      1  0.4048160000000  0.2825020000000  0.5393630000000 1.0
END
