TITL C-1525613-7943-4381 -7.20882423957737e-05 3375 -9891.2250615972 0 0 60 (Ih) n - 1
REM
REM in /home/nfs/bkarasulu/CARBON/AIRSS/Generating-Clusters/ReaxFF-fromJPCA2015/Units_Real/Try2-Higher-symm/Only-C60
REM
REM
REM
REM
REM
REM ./C.cell (863b2abdce7293c0672fb3ba77bf323a)
REM AIRSS Version 0.9.1 bugfix July 2018 build 013d7b7c2542+ Fri, 06 Jul 2018 19:26:36 +0100
REM compiler GCC version 9.2.1 20190827 (Red Hat 9.2.1-1)
REM options -cpp -mtune=generic -march=x86-64 -g -O0 -fpre-include=/usr/include/finclude/math-vector-fortran.h
REM seed -430584285 -1538783206 1115432425 -1670272968 -616798493 656824216 96759348 -1228128398 -316607708 577260425 -658622536 1354233848 -1183757450 -814290153 1451967601 -1913773839 -361851749 -1680507825 1929399797 862371899 862074573 -929896784 12219113 1892607541 -1949214845 190037506 994965817 1014545888 -1691123476 -1401422772 1850542000 708147853 -634669234
REM
CELL 1.54180   15.00000   15.00000   15.00000   90.00000   90.00000   90.00000
LATT -1
SFAC C  
C      1  0.6683460000000  0.4593710000000  0.6618250000000 1.0
C      1  0.7313350000000  0.5405130000000  0.5319560000000 1.0
C      1  0.7059160000000  0.4593460000000  0.3898890000000 1.0
C      1  0.6018900000000  0.5405410000000  0.2898730000000 1.0
C      1  0.4588990000000  0.4594170000000  0.2701260000000 1.0
C      1  0.3316540000000  0.5406290000000  0.3381750000000 1.0
C      1  0.2686650000000  0.4594870000000  0.4680440000000 1.0
C      1  0.2940840000000  0.5406540000000  0.6101110000000 1.0
C      1  0.3981100000000  0.4594590000000  0.7101270000000 1.0
C      1  0.5411010000000  0.5405830000000  0.7298740000000 1.0
C      1  0.4605110000000  0.3276080000000  0.6577980000000 1.0
C      1  0.5608970000000  0.6724010000000  0.6508240000000 1.0
C      1  0.6378260000000  0.3275480000000  0.5862730000000 1.0
C      1  0.6623060000000  0.6723610000000  0.4887360000000 1.0
C      1  0.6245950000000  0.3275430000000  0.3955340000000 1.0
C      1  0.5394890000000  0.6723920000000  0.3422020000000 1.0
C      1  0.4391030000000  0.3275990000000  0.3491760000000 1.0
C      1  0.3621740000000  0.6724520000000  0.4137270000000 1.0
C      1  0.3376940000000  0.3276390000000  0.5112640000000 1.0
C      1  0.3754050000000  0.6724570000000  0.6044660000000 1.0
C      1  0.4376280000000  0.7226000000000  0.5523240000000 1.0
C      1  0.4801760000000  0.2774330000000  0.5790550000000 1.0
C      1  0.5305490000000  0.7225720000000  0.5755470000000 1.0
C      1  0.5690000000000  0.2774030000000  0.5432250000000 1.0
C      1  0.5813490000000  0.7225520000000  0.4943500000000 1.0
C      1  0.5623720000000  0.2774000000000  0.4476760000000 1.0
C      1  0.5198240000000  0.7225670000000  0.4209450000000 1.0
C      1  0.4694510000000  0.2774280000000  0.4244530000000 1.0
C      1  0.4310000000000  0.7225970000000  0.4567750000000 1.0
C      1  0.4186510000000  0.2774480000000  0.5056500000000 1.0
C      1  0.5295970000000  0.3779430000000  0.7010090000000 1.0
C      1  0.6421600000000  0.6220210000000  0.6451890000000 1.0
C      1  0.7002840000000  0.3778800000000  0.5339340000000 1.0
C      1  0.6820450000000  0.6219970000000  0.4096950000000 1.0
C      1  0.5941320000000  0.3779030000000  0.3199730000000 1.0
C      1  0.4704030000000  0.6220570000000  0.2989910000000 1.0
C      1  0.3578400000000  0.3779790000000  0.3548110000000 1.0
C      1  0.2997160000000  0.6221200000000  0.4660660000000 1.0
C      1  0.3179550000000  0.3780030000000  0.5903050000000 1.0
C      1  0.4058680000000  0.6220970000000  0.6800270000000 1.0
C      1  0.3072310000000  0.3779990000000  0.4357020000000 1.0
C      1  0.3063190000000  0.6221220000000  0.5612550000000 1.0
C      1  0.3792480000000  0.3779880000000  0.6634330000000 1.0
C      1  0.4984390000000  0.6220690000000  0.7031630000000 1.0
C      1  0.6180870000000  0.3779130000000  0.6653140000000 1.0
C      1  0.6927690000000  0.6220010000000  0.5642980000000 1.0
C      1  0.6936810000000  0.3778780000000  0.4387450000000 1.0
C      1  0.6207520000000  0.6220120000000  0.3365670000000 1.0
C      1  0.5015610000000  0.3779310000000  0.2968370000000 1.0
C      1  0.3819130000000  0.6220870000000  0.3346860000000 1.0
C      1  0.2752930000000  0.4594900000000  0.5635930000000 1.0
C      1  0.3556090000000  0.5406390000000  0.6835160000000 1.0
C      1  0.4910310000000  0.4594310000000  0.7333500000000 1.0
C      1  0.6299260000000  0.5405530000000  0.6940440000000 1.0
C      1  0.7191470000000  0.4593510000000  0.5806280000000 1.0
C      1  0.7247070000000  0.5405100000000  0.4364070000000 1.0
C      1  0.6443910000000  0.4593610000000  0.3164840000000 1.0
C      1  0.5089690000000  0.5405690000000  0.2666500000000 1.0
C      1  0.3700740000000  0.4594470000000  0.3059560000000 1.0
C      1  0.2808530000000  0.5406490000000  0.4193720000000 1.0
END
