TITL C-1525613-7943-4639 -7.16711108278454e-05 3375 -9528.81390903127 0 0 60 (Ci) n - 1
REM
REM in /home/nfs/bkarasulu/CARBON/AIRSS/Generating-Clusters/ReaxFF-fromJPCA2015/Units_Real/Try2-Higher-symm/Only-C60
REM
REM
REM
REM
REM
REM ./C.cell (863b2abdce7293c0672fb3ba77bf323a)
REM AIRSS Version 0.9.1 bugfix July 2018 build 013d7b7c2542+ Fri, 06 Jul 2018 19:26:36 +0100
REM compiler GCC version 9.2.1 20190827 (Red Hat 9.2.1-1)
REM options -cpp -mtune=generic -march=x86-64 -g -O0 -fpre-include=/usr/include/finclude/math-vector-fortran.h
REM seed -1437777270 2014529846 -97083461 729988102 -1840736404 812004521 541379658 -1872539729 -1412492913 -369689941 -1358168648 -281551232 -1371920636 1890622572 380369245 1357827796 1105640141 1423628571 1653591192 -1082575441 403087770 1792449194 1811806236 -172233405 -1831369717 1703405786 2074821283 -1062744797 -1710228357 -1706482468 -862207310 40987413 -32035444
REM
CELL 1.54180   15.00000   15.00000   15.00000   90.00000   90.00000   90.00000
LATT -1
SFAC C  
C      1  0.5482610000000  0.2708540000000  0.4592130000000 1.0
C      1  0.2974080000000  0.3834920000000  0.4595730000000 1.0
C      1  0.3271660000000  0.6579340000000  0.4600820000000 1.0
C      1  0.5959770000000  0.7134690000000  0.4591510000000 1.0
C      1  0.7324040000000  0.4749580000000  0.4592070000000 1.0
C      1  0.4522290000000  0.2708550000000  0.4592980000000 1.0
C      1  0.7027670000000  0.3837110000000  0.4592350000000 1.0
C      1  0.6736920000000  0.6570550000000  0.4590870000000 1.0
C      1  0.4045150000000  0.7132650000000  0.4594690000000 1.0
C      1  0.2673290000000  0.4737110000000  0.4601380000000 1.0
C      1  0.3715330000000  0.5937410000000  0.3070170000000 1.0
C      1  0.5491810000000  0.6497890000000  0.3108240000000 1.0
C      1  0.6579350000000  0.4993280000000  0.3102460000000 1.0
C      1  0.5482010000000  0.3494010000000  0.3102650000000 1.0
C      1  0.3721790000000  0.4081770000000  0.3105690000000 1.0
C      1  0.6274650000000  0.5934420000000  0.3101830000000 1.0
C      1  0.4504860000000  0.6492740000000  0.3104970000000 1.0
C      1  0.3409210000000  0.4995020000000  0.3070420000000 1.0
C      1  0.4517500000000  0.3497880000000  0.3109290000000 1.0
C      1  0.6281570000000  0.4076530000000  0.3102740000000 1.0
C      1  0.6940330000000  0.6118440000000  0.3783740000000 1.0
C      1  0.6662900000000  0.3501030000000  0.3785180000000 1.0
C      1  0.4090990000000  0.2963630000000  0.3789710000000 1.0
C      1  0.2735190000000  0.5220980000000  0.3758180000000 1.0
C      1  0.4533330000000  0.7181570000000  0.3793610000000 1.0
C      1  0.3037260000000  0.6151000000000  0.3757900000000 1.0
C      1  0.3340270000000  0.3508060000000  0.3794780000000 1.0
C      1  0.5912710000000  0.2954390000000  0.3784770000000 1.0
C      1  0.7226190000000  0.5235340000000  0.3784620000000 1.0
C      1  0.5460670000000  0.7181180000000  0.3788300000000 1.0
C      1  0.2695130000000  0.5248760000000  0.5408510000000 1.0
C      1  0.4522740000000  0.7294300000000  0.5407130000000 1.0
C      1  0.7029850000000  0.6164560000000  0.5409960000000 1.0
C      1  0.6733080000000  0.3431330000000  0.5411070000000 1.0
C      1  0.4044840000000  0.2859760000000  0.5410760000000 1.0
C      1  0.7324290000000  0.5251480000000  0.5410500000000 1.0
C      1  0.5484730000000  0.7293270000000  0.5409300000000 1.0
C      1  0.2988850000000  0.6152940000000  0.5408230000000 1.0
C      1  0.3265700000000  0.3424000000000  0.5408370000000 1.0
C      1  0.5958340000000  0.2865500000000  0.5411030000000 1.0
C      1  0.6662860000000  0.6500180000000  0.6215820000000 1.0
C      1  0.6936940000000  0.3883600000000  0.6217930000000 1.0
C      1  0.4536210000000  0.2805870000000  0.6217450000000 1.0
C      1  0.2788190000000  0.4767540000000  0.6210270000000 1.0
C      1  0.4087850000000  0.7046990000000  0.6217650000000 1.0
C      1  0.3347120000000  0.6488070000000  0.6209730000000 1.0
C      1  0.3059150000000  0.3880040000000  0.6218680000000 1.0
C      1  0.5464330000000  0.2810070000000  0.6216990000000 1.0
C      1  0.7223690000000  0.4766180000000  0.6217680000000 1.0
C      1  0.5914170000000  0.7048710000000  0.6216030000000 1.0
C      1  0.3722050000000  0.4061640000000  0.6903940000000 1.0
C      1  0.3723510000000  0.5921650000000  0.6899890000000 1.0
C      1  0.5483060000000  0.6510800000000  0.6899590000000 1.0
C      1  0.6576940000000  0.5008780000000  0.6899340000000 1.0
C      1  0.5492340000000  0.3499530000000  0.6898790000000 1.0
C      1  0.6271150000000  0.4067790000000  0.6899520000000 1.0
C      1  0.6280690000000  0.5926230000000  0.6898120000000 1.0
C      1  0.4517740000000  0.6510890000000  0.6903060000000 1.0
C      1  0.3425670000000  0.5005110000000  0.6900220000000 1.0
C      1  0.4503430000000  0.3494820000000  0.6900640000000 1.0
END
