TITL C-1525613-7943-2995 0.0028356681502202 3375 -8506.21607308503 0 0 60 (C1) n - 1
REM
REM in /home/nfs/bkarasulu/CARBON/AIRSS/Generating-Clusters/ReaxFF-fromJPCA2015/Units_Real/Try2-Higher-symm/Only-C60
REM
REM
REM
REM
REM
REM ./C.cell (863b2abdce7293c0672fb3ba77bf323a)
REM AIRSS Version 0.9.1 bugfix July 2018 build 013d7b7c2542+ Fri, 06 Jul 2018 19:26:36 +0100
REM compiler GCC version 9.2.1 20190827 (Red Hat 9.2.1-1)
REM options -cpp -mtune=generic -march=x86-64 -g -O0 -fpre-include=/usr/include/finclude/math-vector-fortran.h
REM seed -1224227048 1831130708 598897760 665595714 -21433886 1309851047 -813553223 -439898280 -474276606 -346201971 -1696727741 141488927 1874611946 553953367 -1535444436 -1866040861 -544010724 -407205197 -2037782513 -1715319878 -552469880 1348449276 -347308899 -430381077 -815881093 1238217590 149857636 483637080 463627422 -69857568 570088754 -701417305 38257799
REM
CELL 1.54180   15.00000   15.00000   15.00000   90.00000   90.00000   90.00000
LATT -1
SFAC C  
C      1  0.6647000000000  0.6038210000000  0.3730980000000 1.0
C      1  0.5035020000000  0.6730460000000  0.3581870000000 1.0
C      1  0.2861280000000  0.5601830000000  0.3701370000000 1.0
C      1  0.3783310000000  0.3617780000000  0.3374160000000 1.0
C      1  0.6532330000000  0.3985810000000  0.3808900000000 1.0
C      1  0.2845280000000  0.5552620000000  0.6347820000000 1.0
C      1  0.5111040000000  0.6977320000000  0.6425750000000 1.0
C      1  0.7252640000000  0.5447210000000  0.6256120000000 1.0
C      1  0.6501390000000  0.3187560000000  0.6682700000000 1.0
C      1  0.3693030000000  0.3671170000000  0.6209120000000 1.0
C      1  0.3477490000000  0.2242280000000  0.5084430000000 1.0
C      1  0.6639510000000  0.2573180000000  0.5765410000000 1.0
C      1  0.7442310000000  0.5788510000000  0.5317240000000 1.0
C      1  0.5098860000000  0.7945580000000  0.5053400000000 1.0
C      1  0.2316180000000  0.5419020000000  0.5507400000000 1.0
C      1  0.6414390000000  0.2620570000000  0.4879620000000 1.0
C      1  0.3352660000000  0.2750360000000  0.4294970000000 1.0
C      1  0.2350960000000  0.5650020000000  0.4545750000000 1.0
C      1  0.5578940000000  0.7773470000000  0.4245880000000 1.0
C      1  0.7206700000000  0.5569180000000  0.4369780000000 1.0
C      1  0.6635280000000  0.4995320000000  0.6866750000000 1.0
C      1  0.5401900000000  0.6530950000000  0.7067400000000 1.0
C      1  0.3616260000000  0.5325340000000  0.6878740000000 1.0
C      1  0.3898600000000  0.4355510000000  0.6819650000000 1.0
C      1  0.6295800000000  0.4043800000000  0.7060020000000 1.0
C      1  0.3723200000000  0.5410760000000  0.3229300000000 1.0
C      1  0.4392530000000  0.6327530000000  0.3049640000000 1.0
C      1  0.6379350000000  0.5493850000000  0.2989770000000 1.0
C      1  0.6277100000000  0.4490900000000  0.3022340000000 1.0
C      1  0.4237140000000  0.4441210000000  0.3393700000000 1.0
C      1  0.5531590000000  0.4540970000000  0.2370720000000 1.0
C      1  0.5660210000000  0.5506250000000  0.2276510000000 1.0
C      1  0.4757880000000  0.5892680000000  0.2248260000000 1.0
C      1  0.4045720000000  0.5214820000000  0.2275600000000 1.0
C      1  0.4556000000000  0.4368840000000  0.2479290000000 1.0
C      1  0.4586130000000  0.4550320000000  0.7537920000000 1.0
C      1  0.4269580000000  0.5461200000000  0.7609960000000 1.0
C      1  0.5165320000000  0.5915880000000  0.7670200000000 1.0
C      1  0.5964400000000  0.5345720000000  0.7518960000000 1.0
C      1  0.5563360000000  0.4448930000000  0.7605470000000 1.0
C      1  0.6785220000000  0.3527290000000  0.5840890000000 1.0
C      1  0.6734120000000  0.6162450000000  0.5839730000000 1.0
C      1  0.4672040000000  0.7266310000000  0.5695820000000 1.0
C      1  0.2945830000000  0.4736910000000  0.5798170000000 1.0
C      1  0.3981640000000  0.2913730000000  0.5743760000000 1.0
C      1  0.3097670000000  0.3613540000000  0.4019240000000 1.0
C      1  0.3036070000000  0.6466650000000  0.4335980000000 1.0
C      1  0.5863610000000  0.6686710000000  0.4087310000000 1.0
C      1  0.6845370000000  0.4655600000000  0.4447060000000 1.0
C      1  0.6067190000000  0.3195350000000  0.4202510000000 1.0
C      1  0.5916330000000  0.5724190000000  0.5498720000000 1.0
C      1  0.4509400000000  0.6431090000000  0.5170290000000 1.0
C      1  0.3657580000000  0.4928700000000  0.5129250000000 1.0
C      1  0.4430620000000  0.3432720000000  0.5046700000000 1.0
C      1  0.5921940000000  0.3991560000000  0.5555040000000 1.0
C      1  0.3753700000000  0.5886710000000  0.4903430000000 1.0
C      1  0.5373310000000  0.6131940000000  0.4822540000000 1.0
C      1  0.6193070000000  0.4829710000000  0.5167220000000 1.0
C      1  0.5391490000000  0.3564390000000  0.4851300000000 1.0
C      1  0.3726130000000  0.4051530000000  0.4692190000000 1.0
END
