TITL C-1525613-7943-996 0.00271714032694483 3375 -8917.2883332685 0 0 60 (C1) n - 1
REM
REM in /home/nfs/bkarasulu/CARBON/AIRSS/Generating-Clusters/ReaxFF-fromJPCA2015/Units_Real/Try2-Higher-symm/Only-C60
REM
REM
REM
REM
REM
REM ./C.cell (863b2abdce7293c0672fb3ba77bf323a)
REM AIRSS Version 0.9.1 bugfix July 2018 build 013d7b7c2542+ Fri, 06 Jul 2018 19:26:36 +0100
REM compiler GCC version 9.2.1 20190827 (Red Hat 9.2.1-1)
REM options -cpp -mtune=generic -march=x86-64 -g -O0 -fpre-include=/usr/include/finclude/math-vector-fortran.h
REM seed 560741526 1582013189 -876025674 -435767313 1743306030 1692634030 -1380349111 1586885858 1492207189 2107450836 -1947563231 829620184 -1302513041 1262815762 609618395 -1505045728 201946414 -218028873 -1487462209 293791755 1698314123 -1510236807 1180895825 -343860279 -481150381 1958565843 -1758928812 -1038958359 1439453088 389184281 -632259013 -816233022 229373366
REM
CELL 1.54180   15.00000   15.00000   15.00000   90.00000   90.00000   90.00000
LATT -1
SFAC C  
C      1  0.4342290000000  0.5368880000000  0.4316530000000 1.0
C      1  0.4608480000000  0.5739200000000  0.5712010000000 1.0
C      1  0.5201580000000  0.5784130000000  0.4374660000000 1.0
C      1  0.5552650000000  0.5596700000000  0.5634290000000 1.0
C      1  0.5840810000000  0.5076470000000  0.4267410000000 1.0
C      1  0.5651540000000  0.4638140000000  0.5631940000000 1.0
C      1  0.5421260000000  0.4265090000000  0.4251160000000 1.0
C      1  0.4778410000000  0.4275370000000  0.5395820000000 1.0
C      1  0.4525960000000  0.4412010000000  0.4421010000000 1.0
C      1  0.4167170000000  0.4932310000000  0.5707450000000 1.0
C      1  0.5298610000000  0.6567050000000  0.3707460000000 1.0
C      1  0.6133520000000  0.6122590000000  0.6309460000000 1.0
C      1  0.6610270000000  0.5198620000000  0.3651080000000 1.0
C      1  0.6360810000000  0.4269890000000  0.6260590000000 1.0
C      1  0.5701540000000  0.3557670000000  0.3664120000000 1.0
C      1  0.4683100000000  0.3337750000000  0.6469490000000 1.0
C      1  0.3859560000000  0.3880150000000  0.3682610000000 1.0
C      1  0.3409230000000  0.4778450000000  0.6359410000000 1.0
C      1  0.3632620000000  0.5715520000000  0.3716310000000 1.0
C      1  0.4292350000000  0.6445470000000  0.6343720000000 1.0
C      1  0.2973420000000  0.4203060000000  0.4080700000000 1.0
C      1  0.2866750000000  0.5583220000000  0.5952980000000 1.0
C      1  0.3634340000000  0.6705100000000  0.4066440000000 1.0
C      1  0.4897160000000  0.7185120000000  0.5941650000000 1.0
C      1  0.6234550000000  0.6825060000000  0.4086470000000 1.0
C      1  0.7051500000000  0.5816540000000  0.5912320000000 1.0
C      1  0.7123340000000  0.4385970000000  0.4061720000000 1.0
C      1  0.6282780000000  0.3309360000000  0.5894480000000 1.0
C      1  0.5084950000000  0.2806760000000  0.4074020000000 1.0
C      1  0.3823970000000  0.3158280000000  0.5994130000000 1.0
C      1  0.4653510000000  0.7488950000000  0.5033230000000 1.0
C      1  0.6194490000000  0.7199690000000  0.4988980000000 1.0
C      1  0.7123210000000  0.5966760000000  0.5000380000000 1.0
C      1  0.7503560000000  0.4559770000000  0.4959480000000 1.0
C      1  0.6682990000000  0.3174590000000  0.5007440000000 1.0
C      1  0.5213170000000  0.2545520000000  0.4994010000000 1.0
C      1  0.3826560000000  0.2963720000000  0.5067280000000 1.0
C      1  0.2890290000000  0.4008420000000  0.4990950000000 1.0
C      1  0.2702570000000  0.5482320000000  0.5044730000000 1.0
C      1  0.3410300000000  0.6702900000000  0.4964610000000 1.0
C      1  0.5566820000000  0.5556800000000  0.7029640000000 1.0
C      1  0.5801810000000  0.5113520000000  0.2903760000000 1.0
C      1  0.5700860000000  0.4605970000000  0.7016190000000 1.0
C      1  0.5354090000000  0.4268350000000  0.2925290000000 1.0
C      1  0.4828030000000  0.4153100000000  0.7016500000000 1.0
C      1  0.4408080000000  0.4409580000000  0.2972450000000 1.0
C      1  0.4172340000000  0.4871220000000  0.7078900000000 1.0
C      1  0.4288130000000  0.5375050000000  0.2940780000000 1.0
C      1  0.4626210000000  0.5712320000000  0.7083970000000 1.0
C      1  0.5152200000000  0.5808560000000  0.2959330000000 1.0
C      1  0.3121880000000  0.3862680000000  0.5889800000000 1.0
C      1  0.2827450000000  0.5169380000000  0.4164580000000 1.0
C      1  0.3316820000000  0.6444610000000  0.5863630000000 1.0
C      1  0.4503030000000  0.7134630000000  0.4121830000000 1.0
C      1  0.5848280000000  0.7021810000000  0.5901010000000 1.0
C      1  0.6902810000000  0.6111610000000  0.4109920000000 1.0
C      1  0.7187490000000  0.4861220000000  0.5848920000000 1.0
C      1  0.6649670000000  0.3548910000000  0.4095540000000 1.0
C      1  0.5379780000000  0.2941110000000  0.5926990000000 1.0
C      1  0.4119070000000  0.2996980000000  0.4158410000000 1.0
END
