TITL C-1525613-7943-3675 0.0458549121473995 3375 -8596.23127500176 0 0 60 (C1) n - 1
REM
REM in /home/nfs/bkarasulu/CARBON/AIRSS/Generating-Clusters/ReaxFF-fromJPCA2015/Units_Real/Try2-Higher-symm/Only-C60
REM
REM
REM
REM
REM
REM ./C.cell (863b2abdce7293c0672fb3ba77bf323a)
REM AIRSS Version 0.9.1 bugfix July 2018 build 013d7b7c2542+ Fri, 06 Jul 2018 19:26:36 +0100
REM compiler GCC version 9.2.1 20190827 (Red Hat 9.2.1-1)
REM options -cpp -mtune=generic -march=x86-64 -g -O0 -fpre-include=/usr/include/finclude/math-vector-fortran.h
REM seed -1092513970 -919584882 -2053262264 972633969 373381356 -2071846099 -64393676 1888350149 54521490 -1464739467 661766852 -2005347021 677033797 1348477030 -453468269 -1527557198 -1831863138 71228726 1239440716 -125975940 473584144 -1019767012 -898387251 1870927954 828017743 2050426592 -994549516 1369533953 -1389170770 -558072119 915335503 -1525128806 -734158379
REM
CELL 1.54180   15.00000   15.00000   15.00000   90.00000   90.00000   90.00000
LATT -1
SFAC C  
C      1  0.5446810000000  0.4957180000000  0.2364910000000 1.0
C      1  0.7043740000000  0.5284650000000  0.3276980000000 1.0
C      1  0.7666030000000  0.4715530000000  0.5020760000000 1.0
C      1  0.7032650000000  0.5125500000000  0.6641720000000 1.0
C      1  0.6175180000000  0.5247020000000  0.8296590000000 1.0
C      1  0.4680030000000  0.4994860000000  0.7111140000000 1.0
C      1  0.3064870000000  0.4643750000000  0.7001200000000 1.0
C      1  0.2496100000000  0.5389440000000  0.5182750000000 1.0
C      1  0.2672780000000  0.4636940000000  0.3472110000000 1.0
C      1  0.3851630000000  0.4897150000000  0.2487050000000 1.0
C      1  0.3758220000000  0.3642960000000  0.4135450000000 1.0
C      1  0.4905770000000  0.6672840000000  0.3381380000000 1.0
C      1  0.5648640000000  0.3638740000000  0.3548190000000 1.0
C      1  0.5980130000000  0.6105400000000  0.4436840000000 1.0
C      1  0.6298010000000  0.3735180000000  0.5054920000000 1.0
C      1  0.6087710000000  0.6272620000000  0.6031740000000 1.0
C      1  0.5458740000000  0.3559920000000  0.6483450000000 1.0
C      1  0.4136530000000  0.6356590000000  0.6224700000000 1.0
C      1  0.3919310000000  0.3774300000000  0.5859260000000 1.0
C      1  0.3791890000000  0.6277940000000  0.4650950000000 1.0
C      1  0.2613530000000  0.4735610000000  0.5744920000000 1.0
C      1  0.2544090000000  0.5427960000000  0.3856910000000 1.0
C      1  0.3487710000000  0.4122140000000  0.2573370000000 1.0
C      1  0.4923940000000  0.5702120000000  0.2401100000000 1.0
C      1  0.6683340000000  0.4672050000000  0.2741810000000 1.0
C      1  0.7590180000000  0.5394250000000  0.4462010000000 1.0
C      1  0.7295110000000  0.4425210000000  0.6255490000000 1.0
C      1  0.6481580000000  0.5768570000000  0.7713590000000 1.0
C      1  0.5170990000000  0.4195550000000  0.7239930000000 1.0
C      1  0.3304130000000  0.5411790000000  0.7510230000000 1.0
C      1  0.5629010000000  0.4110690000000  0.5733710000000 1.0
C      1  0.4809040000000  0.5371920000000  0.5538820000000 1.0
C      1  0.4641570000000  0.4389430000000  0.5434720000000 1.0
C      1  0.4044770000000  0.5850310000000  0.5471330000000 1.0
C      1  0.4384330000000  0.4314430000000  0.4420890000000 1.0
C      1  0.4390750000000  0.5907220000000  0.3750910000000 1.0
C      1  0.5219350000000  0.4397830000000  0.3960270000000 1.0
C      1  0.5328700000000  0.5926300000000  0.3786640000000 1.0
C      1  0.6083200000000  0.4130340000000  0.4213760000000 1.0
C      1  0.5720280000000  0.5690530000000  0.5367400000000 1.0
C      1  0.4262950000000  0.2880260000000  0.4502240000000 1.0
C      1  0.4970440000000  0.7306090000000  0.4177960000000 1.0
C      1  0.5194540000000  0.2892650000000  0.4243590000000 1.0
C      1  0.5726470000000  0.7089290000000  0.4721450000000 1.0
C      1  0.5674870000000  0.2848970000000  0.5058760000000 1.0
C      1  0.5628440000000  0.7087360000000  0.5698130000000 1.0
C      1  0.5134710000000  0.2817590000000  0.5888650000000 1.0
C      1  0.4641690000000  0.7088630000000  0.5779990000000 1.0
C      1  0.4223400000000  0.2936360000000  0.5516460000000 1.0
C      1  0.4313010000000  0.7164090000000  0.4875720000000 1.0
C      1  0.2774410000000  0.6011470000000  0.4545910000000 1.0
C      1  0.3112690000000  0.3801010000000  0.3378520000000 1.0
C      1  0.4056420000000  0.5774820000000  0.2760640000000 1.0
C      1  0.5902110000000  0.4187430000000  0.2628060000000 1.0
C      1  0.6953470000000  0.5863270000000  0.3990020000000 1.0
C      1  0.7279220000000  0.3990960000000  0.5434370000000 1.0
C      1  0.6684680000000  0.5966990000000  0.6796250000000 1.0
C      1  0.5759760000000  0.4588250000000  0.7888820000000 1.0
C      1  0.4190160000000  0.5773020000000  0.7033670000000 1.0
C      1  0.3056170000000  0.4058720000000  0.6240900000000 1.0
END
