TITL C-1525613-7943-2824 0.117749787766896 3375 -8806.99515482057 0 0 60 (C2) n - 1
REM
REM in /home/nfs/bkarasulu/CARBON/AIRSS/Generating-Clusters/ReaxFF-fromJPCA2015/Units_Real/Try2-Higher-symm/Only-C60
REM
REM
REM
REM
REM
REM ./C.cell (863b2abdce7293c0672fb3ba77bf323a)
REM AIRSS Version 0.9.1 bugfix July 2018 build 013d7b7c2542+ Fri, 06 Jul 2018 19:26:36 +0100
REM compiler GCC version 9.2.1 20190827 (Red Hat 9.2.1-1)
REM options -cpp -mtune=generic -march=x86-64 -g -O0 -fpre-include=/usr/include/finclude/math-vector-fortran.h
REM seed 1284090976 -611236510 -834551206 -1976324783 -569305059 -874031193 1752900983 1367718613 373052978 1605094336 -593552292 -903223207 1896366187 -937929217 -1404583849 748841484 -1495795582 -676457024 -1240606613 -737512195 1006414186 -1606822368 1538019581 -551946782 940852802 469243356 2095260884 542700293 1139931762 -886319089 169092895 -1903793360 -387343459
REM
CELL 1.54180   15.00000   15.00000   15.00000   90.00000   90.00000   90.00000
LATT -1
SFAC C  
C      1  0.5122720000000  0.2789150000000  0.4550030000000 1.0
C      1  0.5363860000000  0.2699550000000  0.5925930000000 1.0
C      1  0.5224330000000  0.3732330000000  0.7103850000000 1.0
C      1  0.5224450000000  0.5192670000000  0.7464980000000 1.0
C      1  0.5293740000000  0.6593380000000  0.6818380000000 1.0
C      1  0.5122770000000  0.7211040000000  0.5450210000000 1.0
C      1  0.5363890000000  0.7300370000000  0.4073840000000 1.0
C      1  0.5224350000000  0.6267690000000  0.2896070000000 1.0
C      1  0.5224680000000  0.4807260000000  0.2534950000000 1.0
C      1  0.5293640000000  0.3406870000000  0.3181570000000 1.0
C      1  0.5783410000000  0.5135140000000  0.6660170000000 1.0
C      1  0.5920600000000  0.6073560000000  0.6231190000000 1.0
C      1  0.5681930000000  0.6472480000000  0.5350000000000 1.0
C      1  0.5919130000000  0.6470030000000  0.4336200000000 1.0
C      1  0.5712090000000  0.5800890000000  0.3582480000000 1.0
C      1  0.5783410000000  0.4864780000000  0.3339870000000 1.0
C      1  0.5920400000000  0.3926270000000  0.3768800000000 1.0
C      1  0.5681680000000  0.3527150000000  0.4650030000000 1.0
C      1  0.5919080000000  0.3530000000000  0.5663630000000 1.0
C      1  0.5712020000000  0.4199080000000  0.6417530000000 1.0
C      1  0.7230030000000  0.6262210000000  0.4985400000000 1.0
C      1  0.6957610000000  0.6224540000000  0.4090410000000 1.0
C      1  0.7090560000000  0.5360290000000  0.3770270000000 1.0
C      1  0.7070520000000  0.4515920000000  0.3517240000000 1.0
C      1  0.7246750000000  0.3924390000000  0.4203330000000 1.0
C      1  0.7230040000000  0.3737780000000  0.5014590000000 1.0
C      1  0.6957560000000  0.3775450000000  0.5909560000000 1.0
C      1  0.7090540000000  0.4639720000000  0.6229750000000 1.0
C      1  0.7070510000000  0.5484060000000  0.6482740000000 1.0
C      1  0.7246730000000  0.6075630000000  0.5796690000000 1.0
C      1  0.3941260000000  0.4263690000000  0.2827640000000 1.0
C      1  0.3767410000000  0.2905710000000  0.3864370000000 1.0
C      1  0.3690670000000  0.2662230000000  0.4793440000000 1.0
C      1  0.4028370000000  0.2928610000000  0.6152620000000 1.0
C      1  0.3809190000000  0.4364300000000  0.7251180000000 1.0
C      1  0.3941420000000  0.5736320000000  0.7172260000000 1.0
C      1  0.3767350000000  0.7094480000000  0.6134990000000 1.0
C      1  0.3691110000000  0.7337190000000  0.5207090000000 1.0
C      1  0.4028710000000  0.7071320000000  0.3847040000000 1.0
C      1  0.3809070000000  0.5635750000000  0.2748920000000 1.0
C      1  0.4512090000000  0.2438420000000  0.5376380000000 1.0
C      1  0.4838280000000  0.2928790000000  0.6698690000000 1.0
C      1  0.4682910000000  0.4369750000000  0.7625280000000 1.0
C      1  0.4772670000000  0.6070850000000  0.7484710000000 1.0
C      1  0.4739460000000  0.7216570000000  0.6343030000000 1.0
C      1  0.4511030000000  0.7561750000000  0.4623250000000 1.0
C      1  0.4838140000000  0.7071260000000  0.3301500000000 1.0
C      1  0.4682880000000  0.5630230000000  0.2374680000000 1.0
C      1  0.4772750000000  0.3928990000000  0.2515370000000 1.0
C      1  0.4739920000000  0.2783670000000  0.3657470000000 1.0
C      1  0.3152690000000  0.3453820000000  0.4990050000000 1.0
C      1  0.3446830000000  0.3669350000000  0.5906380000000 1.0
C      1  0.3226800000000  0.4392360000000  0.6534910000000 1.0
C      1  0.3271980000000  0.5461260000000  0.6574420000000 1.0
C      1  0.3277600000000  0.6237160000000  0.5954990000000 1.0
C      1  0.3152920000000  0.6546580000000  0.5009910000000 1.0
C      1  0.3446920000000  0.6330750000000  0.4093620000000 1.0
C      1  0.3226920000000  0.5607630000000  0.3465130000000 1.0
C      1  0.3272070000000  0.4538760000000  0.3425710000000 1.0
C      1  0.3277540000000  0.3762790000000  0.4045300000000 1.0
END
