TITL C-1525613-7943-6735 0.00519768415770506 3375 -8643.55720055129 0 0 60 (S10) n - 1
REM
REM in /home/nfs/bkarasulu/CARBON/AIRSS/Generating-Clusters/ReaxFF-fromJPCA2015/Units_Real/Try2-Higher-symm/Only-C60
REM
REM
REM
REM
REM
REM ./C.cell (863b2abdce7293c0672fb3ba77bf323a)
REM AIRSS Version 0.9.1 bugfix July 2018 build 013d7b7c2542+ Fri, 06 Jul 2018 19:26:36 +0100
REM compiler GCC version 9.2.1 20190827 (Red Hat 9.2.1-1)
REM options -cpp -mtune=generic -march=x86-64 -g -O0 -fpre-include=/usr/include/finclude/math-vector-fortran.h
REM seed -1804078031 973727329 127477630 1816240028 1944057079 -1471715028 -1776618111 2069016681 -899330600 -1326881986 -939846580 1066797174 -1310525020 -1777042939 295883412 1791845729 -335087731 1978269862 1501575650 1088007544 593196602 344645415 1296466338 -907957615 -1870991375 1627307060 -1053753100 1856319268 -1966786585 449271412 1574025698 338594372 1380579005
REM
CELL 1.54180   15.00000   15.00000   15.00000   90.00000   90.00000   90.00000
LATT -1
SFAC C  
C      1  0.3368110000000  0.3889710000000  0.6765380000000 1.0
C      1  0.4722050000000  0.6110040000000  0.7388130000000 1.0
C      1  0.6171140000000  0.3894630000000  0.7094870000000 1.0
C      1  0.7186970000000  0.6110740000000  0.6004770000000 1.0
C      1  0.7352560000000  0.3894720000000  0.4533510000000 1.0
C      1  0.6631890000000  0.6110290000000  0.3234620000000 1.0
C      1  0.5277950000000  0.3889960000000  0.2611880000000 1.0
C      1  0.3828860000000  0.6105360000000  0.2905130000000 1.0
C      1  0.2813030000000  0.3889260000000  0.3995230000000 1.0
C      1  0.2647440000000  0.6105280000000  0.5466490000000 1.0
C      1  0.3761650000000  0.4803350000000  0.5584370000000 1.0
C      1  0.4356360000000  0.5187680000000  0.6208950000000 1.0
C      1  0.5181030000000  0.4805980000000  0.6363390000000 1.0
C      1  0.5944960000000  0.5192000000000  0.5991190000000 1.0
C      1  0.6352920000000  0.4810150000000  0.5244390000000 1.0
C      1  0.6238370000000  0.5196650000000  0.4415630000000 1.0
C      1  0.5643640000000  0.4812320000000  0.3791050000000 1.0
C      1  0.4818970000000  0.5194030000000  0.3636610000000 1.0
C      1  0.4055040000000  0.4808010000000  0.4008800000000 1.0
C      1  0.3647070000000  0.5189850000000  0.4755620000000 1.0
C      1  0.5105950000000  0.6872660000000  0.3812120000000 1.0
C      1  0.4383470000000  0.3125790000000  0.3977220000000 1.0
C      1  0.3904850000000  0.6871690000000  0.4534230000000 1.0
C      1  0.3835710000000  0.3125840000000  0.5268380000000 1.0
C      1  0.4219030000000  0.6872280000000  0.5901000000000 1.0
C      1  0.4894050000000  0.3127340000000  0.6187880000000 1.0
C      1  0.5616530000000  0.6874200000000  0.6022780000000 1.0
C      1  0.6095150000000  0.3128310000000  0.5465770000000 1.0
C      1  0.6164290000000  0.6874160000000  0.4731620000000 1.0
C      1  0.5780970000000  0.3127720000000  0.4099000000000 1.0
C      1  0.2616460000000  0.5378380000000  0.6044470000000 1.0
C      1  0.3684510000000  0.4618460000000  0.7247530000000 1.0
C      1  0.5261800000000  0.5381570000000  0.7586980000000 1.0
C      1  0.6731680000000  0.4621160000000  0.6947720000000 1.0
C      1  0.7541840000000  0.5380990000000  0.5553480000000 1.0
C      1  0.7383510000000  0.4621630000000  0.3955540000000 1.0
C      1  0.6315490000000  0.5381540000000  0.2752480000000 1.0
C      1  0.4738190000000  0.4618440000000  0.2413020000000 1.0
C      1  0.3268340000000  0.5378850000000  0.3052280000000 1.0
C      1  0.2458170000000  0.4619020000000  0.4446530000000 1.0
C      1  0.7284500000000  0.4486290000000  0.5329160000000 1.0
C      1  0.7051500000000  0.5520080000000  0.3918320000000 1.0
C      1  0.6020440000000  0.4485290000000  0.2917660000000 1.0
C      1  0.4606030000000  0.5514480000000  0.2724500000000 1.0
C      1  0.3331420000000  0.4482180000000  0.3381620000000 1.0
C      1  0.2715500000000  0.5513710000000  0.4670840000000 1.0
C      1  0.2948500000000  0.4479920000000  0.6081670000000 1.0
C      1  0.3979560000000  0.5514710000000  0.7082340000000 1.0
C      1  0.5393960000000  0.4485510000000  0.7275510000000 1.0
C      1  0.6668580000000  0.5517820000000  0.6618380000000 1.0
C      1  0.6045160000000  0.6807580000000  0.3799730000000 1.0
C      1  0.5136920000000  0.3190880000000  0.3417180000000 1.0
C      1  0.4183370000000  0.6805070000000  0.3637200000000 1.0
C      1  0.3535830000000  0.3190490000000  0.4379310000000 1.0
C      1  0.3453320000000  0.6805820000000  0.5357020000000 1.0
C      1  0.3954840000000  0.3192420000000  0.6200270000000 1.0
C      1  0.4863080000000  0.6809120000000  0.6582820000000 1.0
C      1  0.5816630000000  0.3194930000000  0.6362800000000 1.0
C      1  0.6464170000000  0.6809510000000  0.5620690000000 1.0
C      1  0.6546680000000  0.3194180000000  0.4642980000000 1.0
END
