TITL C-1525613-7943-5755 -0.00489838362899906 3375 -9701.14540201891 0 0 60 (Ci) n - 1
REM
REM in /home/nfs/bkarasulu/CARBON/AIRSS/Generating-Clusters/ReaxFF-fromJPCA2015/Units_Real/Try2-Higher-symm/Only-C60
REM
REM
REM
REM
REM
REM ./C.cell (863b2abdce7293c0672fb3ba77bf323a)
REM AIRSS Version 0.9.1 bugfix July 2018 build 013d7b7c2542+ Fri, 06 Jul 2018 19:26:36 +0100
REM compiler GCC version 9.2.1 20190827 (Red Hat 9.2.1-1)
REM options -cpp -mtune=generic -march=x86-64 -g -O0 -fpre-include=/usr/include/finclude/math-vector-fortran.h
REM seed -552536319 -1716821973 1069674545 -482470426 348155267 436640402 2035494702 -1102564309 -1910378620 91662635 104117194 619453337 -179967015 103056015 -1716440765 -1726593264 -1665193728 686417763 198130758 1461029646 -2117071473 -1747822366 179704643 292628288 -823624915 550796672 -1229259466 188118929 -1746037217 -2118976159 1225446539 1144004916 50185737
REM
CELL 1.54180   15.00000   15.00000   15.00000   90.00000   90.00000   90.00000
LATT -1
SFAC C  
C      1  0.3483310000000  0.6693150000000  0.4074270000000 1.0
C      1  0.4510410000000  0.3628090000000  0.3516670000000 1.0
C      1  0.5308360000000  0.6650830000000  0.3320290000000 1.0
C      1  0.6382710000000  0.3330670000000  0.3998780000000 1.0
C      1  0.6548260000000  0.6384070000000  0.4795170000000 1.0
C      1  0.6494010000000  0.3291380000000  0.5964450000000 1.0
C      1  0.5493670000000  0.6373250000000  0.6479750000000 1.0
C      1  0.4689030000000  0.3345170000000  0.6679500000000 1.0
C      1  0.3626370000000  0.6676710000000  0.6017370000000 1.0
C      1  0.3455590000000  0.3628190000000  0.5192830000000 1.0
C      1  0.5684260000000  0.2980090000000  0.4525140000000 1.0
C      1  0.5737170000000  0.6873940000000  0.4898600000000 1.0
C      1  0.5750950000000  0.2932130000000  0.5479930000000 1.0
C      1  0.5236190000000  0.6874940000000  0.5711350000000 1.0
C      1  0.4858350000000  0.2983380000000  0.5822790000000 1.0
C      1  0.4327630000000  0.7021290000000  0.5486060000000 1.0
C      1  0.4258000000000  0.3123310000000  0.5101260000000 1.0
C      1  0.4238170000000  0.7056660000000  0.4529370000000 1.0
C      1  0.4770020000000  0.3120540000000  0.4286460000000 1.0
C      1  0.5133540000000  0.7005350000000  0.4180420000000 1.0
C      1  0.5557380000000  0.4498310000000  0.7542820000000 1.0
C      1  0.3405640000000  0.5318020000000  0.6877990000000 1.0
C      1  0.2911390000000  0.4927670000000  0.6183940000000 1.0
C      1  0.2412110000000  0.5493460000000  0.4625500000000 1.0
C      1  0.3192230000000  0.4724500000000  0.3264400000000 1.0
C      1  0.4428880000000  0.5497110000000  0.2465630000000 1.0
C      1  0.6605650000000  0.4689080000000  0.3105240000000 1.0
C      1  0.7112480000000  0.5097080000000  0.3807320000000 1.0
C      1  0.7568190000000  0.4521880000000  0.5367020000000 1.0
C      1  0.6819220000000  0.5249010000000  0.6689630000000 1.0
C      1  0.3907800000000  0.3892610000000  0.6761380000000 1.0
C      1  0.2803760000000  0.6440310000000  0.5551210000000 1.0
C      1  0.3092390000000  0.3907090000000  0.4348410000000 1.0
C      1  0.3636490000000  0.6366750000000  0.3180200000000 1.0
C      1  0.5206660000000  0.4032730000000  0.3006110000000 1.0
C      1  0.6081130000000  0.6101290000000  0.3234710000000 1.0
C      1  0.7200960000000  0.3576530000000  0.4457730000000 1.0
C      1  0.6938940000000  0.6097220000000  0.5637510000000 1.0
C      1  0.6321140000000  0.3627150000000  0.6826660000000 1.0
C      1  0.4795470000000  0.5970790000000  0.6997120000000 1.0
C      1  0.6124810000000  0.3875850000000  0.3258500000000 1.0
C      1  0.6704510000000  0.5960550000000  0.3952220000000 1.0
C      1  0.7242530000000  0.3609460000000  0.5437560000000 1.0
C      1  0.6407220000000  0.6072960000000  0.6461440000000 1.0
C      1  0.5457850000000  0.3581970000000  0.7206400000000 1.0
C      1  0.3878940000000  0.6117490000000  0.6744190000000 1.0
C      1  0.3295170000000  0.4058000000000  0.6032900000000 1.0
C      1  0.2766410000000  0.6401420000000  0.4583560000000 1.0
C      1  0.3615700000000  0.3928960000000  0.3545280000000 1.0
C      1  0.4532410000000  0.6411140000000  0.2784950000000 1.0
C      1  0.6453630000000  0.4519340000000  0.7142820000000 1.0
C      1  0.4817120000000  0.5113560000000  0.7432690000000 1.0
C      1  0.3969760000000  0.4703430000000  0.7268910000000 1.0
C      1  0.2485340000000  0.5519780000000  0.5592120000000 1.0
C      1  0.2640810000000  0.4728980000000  0.4065720000000 1.0
C      1  0.3563560000000  0.5456570000000  0.2844880000000 1.0
C      1  0.5174940000000  0.4895320000000  0.2577470000000 1.0
C      1  0.6018650000000  0.5303200000000  0.2742540000000 1.0
C      1  0.7523000000000  0.4493450000000  0.4426950000000 1.0
C      1  0.7343760000000  0.5246810000000  0.5907900000000 1.0
END
