TITL C-1525613-7943-6618 0.0468769413815377 3375 -8743.76207270767 0 0 60 (C1) n - 1
REM
REM in /home/nfs/bkarasulu/CARBON/AIRSS/Generating-Clusters/ReaxFF-fromJPCA2015/Units_Real/Try2-Higher-symm/Only-C60
REM
REM
REM
REM
REM
REM ./C.cell (863b2abdce7293c0672fb3ba77bf323a)
REM AIRSS Version 0.9.1 bugfix July 2018 build 013d7b7c2542+ Fri, 06 Jul 2018 19:26:36 +0100
REM compiler GCC version 9.2.1 20190827 (Red Hat 9.2.1-1)
REM options -cpp -mtune=generic -march=x86-64 -g -O0 -fpre-include=/usr/include/finclude/math-vector-fortran.h
REM seed -1068167725 -604173403 1158448307 -1855437838 1039303616 -725486051 1412912837 -369843813 1358961469 -530483107 -496462550 -1788816818 611547257 -1528735534 -1811884106 -471165401 -1767282431 -1134681149 -1413453225 660221228 -1600637454 -2125757208 -1037137760 -1433233302 -2135355192 1461967283 351384344 1143386015 1914165884 -1577164563 -1590153494 -1432673762 -1012578400
REM
CELL 1.54180   15.00000   15.00000   15.00000   90.00000   90.00000   90.00000
LATT -1
SFAC C  
C      1  0.4479130000000  0.7323000000000  0.6446380000000 1.0
C      1  0.4585200000000  0.7660970000000  0.4603250000000 1.0
C      1  0.4124970000000  0.7084850000000  0.3221440000000 1.0
C      1  0.4314680000000  0.5775040000000  0.2342760000000 1.0
C      1  0.4421800000000  0.3958030000000  0.2481900000000 1.0
C      1  0.4496470000000  0.2719160000000  0.3524990000000 1.0
C      1  0.4563390000000  0.2355660000000  0.5328990000000 1.0
C      1  0.4117350000000  0.2866020000000  0.6749710000000 1.0
C      1  0.4371630000000  0.4241450000000  0.7556440000000 1.0
C      1  0.4506150000000  0.6005130000000  0.7486670000000 1.0
C      1  0.7199790000000  0.4489480000000  0.3818370000000 1.0
C      1  0.6992950000000  0.3638140000000  0.4165390000000 1.0
C      1  0.6881050000000  0.3470780000000  0.5196630000000 1.0
C      1  0.6886810000000  0.4154850000000  0.5788230000000 1.0
C      1  0.6698990000000  0.4703030000000  0.6492480000000 1.0
C      1  0.6835020000000  0.5702660000000  0.6574770000000 1.0
C      1  0.6877000000000  0.6385140000000  0.5894240000000 1.0
C      1  0.6858780000000  0.6411120000000  0.4837960000000 1.0
C      1  0.7029660000000  0.5777120000000  0.4204670000000 1.0
C      1  0.6856420000000  0.5286220000000  0.3393180000000 1.0
C      1  0.3212920000000  0.6548920000000  0.4433650000000 1.0
C      1  0.3192580000000  0.5877180000000  0.3633190000000 1.0
C      1  0.3167240000000  0.4972910000000  0.3761710000000 1.0
C      1  0.3170960000000  0.4063650000000  0.3860490000000 1.0
C      1  0.3178130000000  0.3758290000000  0.4723560000000 1.0
C      1  0.3199000000000  0.3446590000000  0.5563100000000 1.0
C      1  0.3205270000000  0.4120030000000  0.6361400000000 1.0
C      1  0.3198790000000  0.5029130000000  0.6242270000000 1.0
C      1  0.3215690000000  0.5942900000000  0.6143340000000 1.0
C      1  0.3207710000000  0.6243230000000  0.5276990000000 1.0
C      1  0.5191060000000  0.5435880000000  0.2471550000000 1.0
C      1  0.5326950000000  0.3927320000000  0.2660620000000 1.0
C      1  0.5376220000000  0.2866410000000  0.3998830000000 1.0
C      1  0.5458030000000  0.2563670000000  0.4997470000000 1.0
C      1  0.5091730000000  0.2704460000000  0.6895440000000 1.0
C      1  0.5287680000000  0.4430690000000  0.7461900000000 1.0
C      1  0.5398910000000  0.6157290000000  0.7439470000000 1.0
C      1  0.5397040000000  0.7298000000000  0.5964830000000 1.0
C      1  0.5472080000000  0.7393580000000  0.4917080000000 1.0
C      1  0.5113120000000  0.7095280000000  0.3081900000000 1.0
C      1  0.3785550000000  0.2682050000000  0.5835800000000 1.0
C      1  0.3785220000000  0.3723530000000  0.7041630000000 1.0
C      1  0.4613580000000  0.5061940000000  0.7220960000000 1.0
C      1  0.3969870000000  0.6533200000000  0.6740810000000 1.0
C      1  0.4685630000000  0.6594040000000  0.6079810000000 1.0
C      1  0.3796900000000  0.7301040000000  0.4129760000000 1.0
C      1  0.3744490000000  0.6255240000000  0.2917530000000 1.0
C      1  0.4394780000000  0.4904940000000  0.2566440000000 1.0
C      1  0.3919880000000  0.3480780000000  0.3235500000000 1.0
C      1  0.4606790000000  0.3464250000000  0.3936340000000 1.0
C      1  0.6079250000000  0.4223620000000  0.3069840000000 1.0
C      1  0.6228060000000  0.3455480000000  0.3606400000000 1.0
C      1  0.6128420000000  0.2968700000000  0.5573840000000 1.0
C      1  0.5858160000000  0.3193910000000  0.6522040000000 1.0
C      1  0.5984830000000  0.4106810000000  0.6879110000000 1.0
C      1  0.6283570000000  0.6335610000000  0.7173160000000 1.0
C      1  0.6287850000000  0.6955050000000  0.6395440000000 1.0
C      1  0.6068880000000  0.6811670000000  0.4422670000000 1.0
C      1  0.5762370000000  0.6484520000000  0.3505610000000 1.0
C      1  0.5857630000000  0.5580370000000  0.3150060000000 1.0
END
