TITL C-1525613-7943-1553 -0.0035911625183795 3375 -9116.96678778685 0 0 60 (D5h) n - 1
REM
REM in /home/nfs/bkarasulu/CARBON/AIRSS/Generating-Clusters/ReaxFF-fromJPCA2015/Units_Real/Try2-Higher-symm/Only-C60
REM
REM
REM
REM
REM
REM ./C.cell (863b2abdce7293c0672fb3ba77bf323a)
REM AIRSS Version 0.9.1 bugfix July 2018 build 013d7b7c2542+ Fri, 06 Jul 2018 19:26:36 +0100
REM compiler GCC version 9.2.1 20190827 (Red Hat 9.2.1-1)
REM options -cpp -mtune=generic -march=x86-64 -g -O0 -fpre-include=/usr/include/finclude/math-vector-fortran.h
REM seed 1283835889 -450249418 -1855087629 -1613920582 -1755771899 -1603822166 966057180 2004402789 105068360 -1865231365 1844587936 -1822257747 657236643 1446103479 1406334619 -229978994 -1427040676 -137121771 2038228184 1317645978 992562413 -927163607 -673648385 779330280 -862424591 1749437251 -1937221908 -59403644 -1634517175 1911812936 -596010972 1357701981 -533136202
REM
CELL 1.54180   15.00000   15.00000   15.00000   90.00000   90.00000   90.00000
LATT -1
SFAC C  
C      1  0.3539640000000  0.6512660000000  0.5502230000000 1.0
C      1  0.3110100000000  0.4078550000000  0.5502230000000 1.0
C      1  0.5292340000000  0.2917860000000  0.5502240000000 1.0
C      1  0.7070570000000  0.4634610000000  0.5502240000000 1.0
C      1  0.5987350000000  0.6856320000000  0.5502240000000 1.0
C      1  0.3539650000000  0.6512660000000  0.4497760000000 1.0
C      1  0.3110110000000  0.4078550000000  0.4497760000000 1.0
C      1  0.5292340000000  0.2917860000000  0.4497770000000 1.0
C      1  0.7070570000000  0.4634610000000  0.4497770000000 1.0
C      1  0.5987350000000  0.6856310000000  0.4497760000000 1.0
C      1  0.4110450000000  0.3996570000000  0.2392650000000 1.0
C      1  0.5679460000000  0.3843890000000  0.2392660000000 1.0
C      1  0.6309480000000  0.5288920000000  0.2392660000000 1.0
C      1  0.5129850000000  0.6334670000000  0.2392660000000 1.0
C      1  0.3770770000000  0.5535950000000  0.2392670000000 1.0
C      1  0.4110440000000  0.3996570000000  0.7607350000000 1.0
C      1  0.5679450000000  0.3843900000000  0.7607340000000 1.0
C      1  0.6309480000000  0.5288920000000  0.7607340000000 1.0
C      1  0.5129840000000  0.6334670000000  0.7607340000000 1.0
C      1  0.3770760000000  0.5535960000000  0.7607320000000 1.0
C      1  0.3462000000000  0.5670570000000  0.5979970000000 1.0
C      1  0.3886980000000  0.3744490000000  0.5979980000000 1.0
C      1  0.5850120000000  0.3553480000000  0.5979980000000 1.0
C      1  0.6638420000000  0.5361510000000  0.5979980000000 1.0
C      1  0.5162480000000  0.6669940000000  0.5979980000000 1.0
C      1  0.3462000000000  0.5670570000000  0.4020030000000 1.0
C      1  0.3886990000000  0.3744490000000  0.4020020000000 1.0
C      1  0.5850120000000  0.3553480000000  0.4020030000000 1.0
C      1  0.6638430000000  0.5361510000000  0.4020020000000 1.0
C      1  0.5162490000000  0.6669940000000  0.4020020000000 1.0
C      1  0.2897830000000  0.5040600000000  0.5502230000000 1.0
C      1  0.4311780000000  0.3013260000000  0.5502240000000 1.0
C      1  0.6676830000000  0.3731520000000  0.5502240000000 1.0
C      1  0.6724560000000  0.6202770000000  0.5502240000000 1.0
C      1  0.4389010000000  0.7011830000000  0.5502230000000 1.0
C      1  0.2897830000000  0.5040600000000  0.4497760000000 1.0
C      1  0.4311780000000  0.3013260000000  0.4497760000000 1.0
C      1  0.6676830000000  0.3731520000000  0.4497770000000 1.0
C      1  0.6724560000000  0.6202770000000  0.4497770000000 1.0
C      1  0.4389020000000  0.7011830000000  0.4497760000000 1.0
C      1  0.4372350000000  0.4292000000000  0.3334060000000 1.0
C      1  0.5479400000000  0.4184280000000  0.3334060000000 1.0
C      1  0.5923940000000  0.5203860000000  0.3334060000000 1.0
C      1  0.5091630000000  0.5941710000000  0.3334060000000 1.0
C      1  0.4132700000000  0.5378140000000  0.3334070000000 1.0
C      1  0.4372350000000  0.4292000000000  0.6665940000000 1.0
C      1  0.5479400000000  0.4184280000000  0.6665940000000 1.0
C      1  0.5923930000000  0.5203860000000  0.6665940000000 1.0
C      1  0.5091620000000  0.5941710000000  0.6665940000000 1.0
C      1  0.4132690000000  0.5378150000000  0.6665930000000 1.0
C      1  0.3540100000000  0.4677890000000  0.1924470000000 1.0
C      1  0.4855240000000  0.3512040000000  0.1924460000000 1.0
C      1  0.6370460000000  0.4402480000000  0.1924490000000 1.0
C      1  0.5991720000000  0.6118670000000  0.1924450000000 1.0
C      1  0.4242490000000  0.6288930000000  0.1924490000000 1.0
C      1  0.3540090000000  0.4677900000000  0.8075520000000 1.0
C      1  0.4855230000000  0.3512050000000  0.8075540000000 1.0
C      1  0.6370450000000  0.4402480000000  0.8075510000000 1.0
C      1  0.5991700000000  0.6118680000000  0.8075550000000 1.0
C      1  0.4242480000000  0.6288930000000  0.8075500000000 1.0
END
