TITL C-1525613-7943-1986 0.00108609914635404 3375 -9532.37911170085 0 0 60 (D5d) n - 1
REM
REM in /home/nfs/bkarasulu/CARBON/AIRSS/Generating-Clusters/ReaxFF-fromJPCA2015/Units_Real/Try2-Higher-symm/Only-C60
REM
REM
REM
REM
REM
REM ./C.cell (863b2abdce7293c0672fb3ba77bf323a)
REM AIRSS Version 0.9.1 bugfix July 2018 build 013d7b7c2542+ Fri, 06 Jul 2018 19:26:36 +0100
REM compiler GCC version 9.2.1 20190827 (Red Hat 9.2.1-1)
REM options -cpp -mtune=generic -march=x86-64 -g -O0 -fpre-include=/usr/include/finclude/math-vector-fortran.h
REM seed -292281042 -963552808 -2129774137 1163847005 -288158836 -1053312318 659258710 -2015113453 394390620 -1695893737 1588318241 -1076186872 825870742 207606433 -172025316 -1687315559 -1013647532 387083461 -1278114666 -1913840355 1563369984 -177311452 -1901115463 287771195 1123464500 2115233297 179719631 -2093865857 1591288016 1070785385 1631100470 658388554 605523719
REM
CELL 1.54180   15.00000   15.00000   15.00000   90.00000   90.00000   90.00000
LATT -1
SFAC C  
C      1  0.6216700000000  0.5235050000000  0.7225010000000 1.0
C      1  0.6216540000000  0.2956380000000  0.5911120000000 1.0
C      1  0.6216640000000  0.3501840000000  0.3338060000000 1.0
C      1  0.6216730000000  0.6117500000000  0.3061710000000 1.0
C      1  0.6216740000000  0.7188710000000  0.5464050000000 1.0
C      1  0.6216720000000  0.5235100000000  0.2774980000000 1.0
C      1  0.6216540000000  0.2956370000000  0.4088820000000 1.0
C      1  0.6216670000000  0.3501810000000  0.6661910000000 1.0
C      1  0.6216760000000  0.6117490000000  0.6938350000000 1.0
C      1  0.6216760000000  0.7188730000000  0.4536010000000 1.0
C      1  0.5409400000000  0.3837040000000  0.7026930000000 1.0
C      1  0.5409350000000  0.2712870000000  0.4520400000000 1.0
C      1  0.5409520000000  0.4749390000000  0.2676580000000 1.0
C      1  0.5409560000000  0.7132340000000  0.4043730000000 1.0
C      1  0.5409580000000  0.6568490000000  0.6732370000000 1.0
C      1  0.5409450000000  0.3836920000000  0.2973110000000 1.0
C      1  0.5409410000000  0.2712920000000  0.5479680000000 1.0
C      1  0.5409580000000  0.4749520000000  0.7323380000000 1.0
C      1  0.5409630000000  0.7132370000000  0.5956180000000 1.0
C      1  0.5409640000000  0.6568380000000  0.3267580000000 1.0
C      1  0.3099410000000  0.5006760000000  0.6580300000000 1.0
C      1  0.3099210000000  0.3498950000000  0.5494600000000 1.0
C      1  0.3099330000000  0.4065680000000  0.3725410000000 1.0
C      1  0.3099530000000  0.5923710000000  0.3717650000000 1.0
C      1  0.3099450000000  0.6505360000000  0.5482090000000 1.0
C      1  0.3099430000000  0.5006820000000  0.3419700000000 1.0
C      1  0.3099190000000  0.3498940000000  0.4505290000000 1.0
C      1  0.3099340000000  0.4065650000000  0.6274510000000 1.0
C      1  0.3099520000000  0.5923690000000  0.6282440000000 1.0
C      1  0.3099460000000  0.6505360000000  0.4518040000000 1.0
C      1  0.4590620000000  0.7287220000000  0.4520280000000 1.0
C      1  0.4590530000000  0.6163140000000  0.7026840000000 1.0
C      1  0.4590370000000  0.3431760000000  0.6732310000000 1.0
C      1  0.4590400000000  0.2867770000000  0.4043850000000 1.0
C      1  0.4590480000000  0.5250530000000  0.2676630000000 1.0
C      1  0.4590690000000  0.7287280000000  0.5479640000000 1.0
C      1  0.4590580000000  0.6163040000000  0.2973090000000 1.0
C      1  0.4590410000000  0.3431640000000  0.3267710000000 1.0
C      1  0.4590460000000  0.2867820000000  0.5956230000000 1.0
C      1  0.4590550000000  0.5250670000000  0.7323360000000 1.0
C      1  0.3783260000000  0.3882500000000  0.3061770000000 1.0
C      1  0.3783420000000  0.6498120000000  0.3338200000000 1.0
C      1  0.3783470000000  0.7043680000000  0.5911200000000 1.0
C      1  0.3783250000000  0.4764890000000  0.7224890000000 1.0
C      1  0.3783210000000  0.2811200000000  0.5464030000000 1.0
C      1  0.3783280000000  0.3882500000000  0.6938160000000 1.0
C      1  0.3783460000000  0.6498100000000  0.6661860000000 1.0
C      1  0.3783490000000  0.7043640000000  0.4088870000000 1.0
C      1  0.3783270000000  0.4764920000000  0.2775130000000 1.0
C      1  0.3783230000000  0.2811210000000  0.4535910000000 1.0
C      1  0.6900610000000  0.4076200000000  0.6282480000000 1.0
C      1  0.6900530000000  0.3494740000000  0.4517940000000 1.0
C      1  0.6900540000000  0.4993160000000  0.3419550000000 1.0
C      1  0.6900570000000  0.6500830000000  0.4505390000000 1.0
C      1  0.6900630000000  0.5934180000000  0.6274690000000 1.0
C      1  0.6900590000000  0.4076250000000  0.3717460000000 1.0
C      1  0.6900550000000  0.3494710000000  0.5481970000000 1.0
C      1  0.6900550000000  0.4993090000000  0.6580460000000 1.0
C      1  0.6900580000000  0.6500810000000  0.5494720000000 1.0
C      1  0.6900600000000  0.5934240000000  0.3725380000000 1.0
END
