TITL C-1525613-7943-2804 0.0237990996939685 3375 -9445.24431077101 0 0 60 (C1) n - 1
REM
REM in /home/nfs/bkarasulu/CARBON/AIRSS/Generating-Clusters/ReaxFF-fromJPCA2015/Units_Real/Try2-Higher-symm/Only-C60
REM
REM
REM
REM
REM
REM ./C.cell (863b2abdce7293c0672fb3ba77bf323a)
REM AIRSS Version 0.9.1 bugfix July 2018 build 013d7b7c2542+ Fri, 06 Jul 2018 19:26:36 +0100
REM compiler GCC version 9.2.1 20190827 (Red Hat 9.2.1-1)
REM options -cpp -mtune=generic -march=x86-64 -g -O0 -fpre-include=/usr/include/finclude/math-vector-fortran.h
REM seed -1166010616 1183494075 -172793853 -848658797 88906763 24398773 -290903623 -730021756 -1020602458 -1322969006 -955638449 386634102 -989112542 -77849197 -584147141 2025323114 1188485665 -770804072 -559379809 -970494657 104781160 -853259835 2124384604 80255296 -1595781858 618919737 1269519194 608489829 2002951766 -1403936291 -1770259016 -1018955042 721356471
REM
CELL 1.54180   15.00000   15.00000   15.00000   90.00000   90.00000   90.00000
LATT -1
SFAC C  
C      1  0.2796270000000  0.6287220000000  0.4579140000000 1.0
C      1  0.4061240000000  0.7278890000000  0.4649470000000 1.0
C      1  0.5616750000000  0.7601660000000  0.4454590000000 1.0
C      1  0.7073590000000  0.6808450000000  0.4321910000000 1.0
C      1  0.7600390000000  0.5304700000000  0.4485920000000 1.0
C      1  0.7230910000000  0.3724570000000  0.4571070000000 1.0
C      1  0.6026850000000  0.2639140000000  0.4553320000000 1.0
C      1  0.4422220000000  0.2395340000000  0.4435370000000 1.0
C      1  0.3038790000000  0.3232670000000  0.4438980000000 1.0
C      1  0.2363240000000  0.4717970000000  0.4474320000000 1.0
C      1  0.2746100000000  0.3955960000000  0.5893360000000 1.0
C      1  0.2607200000000  0.5422610000000  0.5960020000000 1.0
C      1  0.3555120000000  0.6610860000000  0.6038940000000 1.0
C      1  0.5133390000000  0.7163520000000  0.5934980000000 1.0
C      1  0.6447190000000  0.7301570000000  0.5677060000000 1.0
C      1  0.7136660000000  0.6142190000000  0.5856870000000 1.0
C      1  0.7293970000000  0.4646170000000  0.5962880000000 1.0
C      1  0.6505320000000  0.3359300000000  0.6025420000000 1.0
C      1  0.5106810000000  0.2699860000000  0.5903110000000 1.0
C      1  0.3765810000000  0.2864990000000  0.5909720000000 1.0
C      1  0.2316450000000  0.4678750000000  0.5453630000000 1.0
C      1  0.2809940000000  0.6252030000000  0.5550040000000 1.0
C      1  0.4219920000000  0.7128460000000  0.5599540000000 1.0
C      1  0.5718800000000  0.7617220000000  0.5414520000000 1.0
C      1  0.7167020000000  0.6920940000000  0.5295970000000 1.0
C      1  0.7582160000000  0.5399120000000  0.5446260000000 1.0
C      1  0.7225860000000  0.3767260000000  0.5550750000000 1.0
C      1  0.5973950000000  0.2692920000000  0.5555450000000 1.0
C      1  0.4381980000000  0.2368240000000  0.5426590000000 1.0
C      1  0.3014570000000  0.3186130000000  0.5414310000000 1.0
C      1  0.6240110000000  0.7069150000000  0.3929350000000 1.0
C      1  0.7193740000000  0.5956200000000  0.3961830000000 1.0
C      1  0.7277800000000  0.4526560000000  0.4096490000000 1.0
C      1  0.6546820000000  0.3279210000000  0.4117540000000 1.0
C      1  0.5236130000000  0.2668840000000  0.4050610000000 1.0
C      1  0.3807980000000  0.2957950000000  0.3992930000000 1.0
C      1  0.2842750000000  0.4041230000000  0.4017240000000 1.0
C      1  0.2716180000000  0.5502440000000  0.4080130000000 1.0
C      1  0.3505320000000  0.6709360000000  0.4170580000000 1.0
C      1  0.4798200000000  0.7304410000000  0.4092360000000 1.0
C      1  0.3565310000000  0.4371060000000  0.3491620000000 1.0
C      1  0.3470210000000  0.5332780000000  0.3519320000000 1.0
C      1  0.3978850000000  0.6154750000000  0.3556340000000 1.0
C      1  0.4863800000000  0.6545940000000  0.3520050000000 1.0
C      1  0.5807480000000  0.6354380000000  0.3443220000000 1.0
C      1  0.6449300000000  0.5633850000000  0.3458310000000 1.0
C      1  0.6531970000000  0.4671800000000  0.3519230000000 1.0
C      1  0.6040030000000  0.3839890000000  0.3534370000000 1.0
C      1  0.5157360000000  0.3449160000000  0.3507970000000 1.0
C      1  0.4211980000000  0.3650990000000  0.3480050000000 1.0
C      1  0.4159390000000  0.3594200000000  0.6497980000000 1.0
C      1  0.3386750000000  0.4235760000000  0.6523680000000 1.0
C      1  0.3247630000000  0.5166750000000  0.6608320000000 1.0
C      1  0.3829140000000  0.5960230000000  0.6746420000000 1.0
C      1  0.4749190000000  0.5972310000000  0.6744880000000 1.0
C      1  0.5519450000000  0.6317410000000  0.6489780000000 1.0
C      1  0.6367570000000  0.5808350000000  0.6369060000000 1.0
C      1  0.6516250000000  0.4879680000000  0.6492240000000 1.0
C      1  0.5984030000000  0.4020220000000  0.6566230000000 1.0
C      1  0.5060830000000  0.3856450000000  0.6588350000000 1.0
END
