TITL C-1525613-7943-1322 -0.0770473761704607 3375 -8434.10633633853 0 0 60 (Ci) n - 1
REM
REM in /home/nfs/bkarasulu/CARBON/AIRSS/Generating-Clusters/ReaxFF-fromJPCA2015/Units_Real/Try2-Higher-symm/Only-C60
REM
REM
REM
REM
REM
REM ./C.cell (863b2abdce7293c0672fb3ba77bf323a)
REM AIRSS Version 0.9.1 bugfix July 2018 build 013d7b7c2542+ Fri, 06 Jul 2018 19:26:36 +0100
REM compiler GCC version 9.2.1 20190827 (Red Hat 9.2.1-1)
REM options -cpp -mtune=generic -march=x86-64 -g -O0 -fpre-include=/usr/include/finclude/math-vector-fortran.h
REM seed 914659647 1252854235 833224826 -1792789599 -698475288 -673019460 -703028863 843449768 1013788031 -1273996193 845110963 1254808122 -868035637 -246569619 769965976 -670270839 250481794 1827606119 -1818168649 -1158851415 1050549694 -1711933860 157322793 -644735474 -2063889538 252958990 -1536187286 436715724 1212903286 926280582 -1963328989 -699119886 -1330510408
REM
CELL 1.54180   15.00000   15.00000   15.00000   90.00000   90.00000   90.00000
LATT -1
SFAC C  
C      1  0.7309040000000  0.4796540000000  0.5536850000000 1.0
C      1  0.6998170000000  0.6199250000000  0.4438340000000 1.0
C      1  0.5898630000000  0.7127860000000  0.5547060000000 1.0
C      1  0.4475200000000  0.7266360000000  0.4434840000000 1.0
C      1  0.3241270000000  0.6531510000000  0.5552510000000 1.0
C      1  0.2693850000000  0.5201340000000  0.4462450000000 1.0
C      1  0.3006160000000  0.3798420000000  0.5562150000000 1.0
C      1  0.4103490000000  0.2870740000000  0.4451800000000 1.0
C      1  0.5525590000000  0.2730790000000  0.5562370000000 1.0
C      1  0.6760010000000  0.3469840000000  0.4448090000000 1.0
C      1  0.3705140000000  0.6212950000000  0.3979890000000 1.0
C      1  0.3231050000000  0.5238600000000  0.6062670000000 1.0
C      1  0.3525840000000  0.4198910000000  0.3999010000000 1.0
C      1  0.4242770000000  0.3397610000000  0.6043570000000 1.0
C      1  0.5348350000000  0.3251750000000  0.3978590000000 1.0
C      1  0.6291830000000  0.3786600000000  0.6019940000000 1.0
C      1  0.6765260000000  0.4761470000000  0.3937070000000 1.0
C      1  0.6475700000000  0.5797690000000  0.6002680000000 1.0
C      1  0.5761530000000  0.6608340000000  0.3957170000000 1.0
C      1  0.4653940000000  0.6749730000000  0.6022810000000 1.0
C      1  0.5696160000000  0.4443950000000  0.3009990000000 1.0
C      1  0.5872160000000  0.4900060000000  0.6910050000000 1.0
C      1  0.5755370000000  0.5508780000000  0.3015270000000 1.0
C      1  0.5331870000000  0.5804980000000  0.6949420000000 1.0
C      1  0.4751950000000  0.5852130000000  0.3074760000000 1.0
C      1  0.4302670000000  0.5557980000000  0.6989910000000 1.0
C      1  0.4125200000000  0.5099540000000  0.3088710000000 1.0
C      1  0.4240610000000  0.4493140000000  0.6984830000000 1.0
C      1  0.4667580000000  0.4197140000000  0.3050560000000 1.0
C      1  0.5244670000000  0.4149160000000  0.6923290000000 1.0
C      1  0.7191280000000  0.5717630000000  0.5289540000000 1.0
C      1  0.6368170000000  0.6894160000000  0.4709520000000 1.0
C      1  0.4975880000000  0.7339710000000  0.5283020000000 1.0
C      1  0.3617180000000  0.6900670000000  0.4690370000000 1.0
C      1  0.2765360000000  0.5713180000000  0.5299480000000 1.0
C      1  0.2811030000000  0.4280700000000  0.4711080000000 1.0
C      1  0.3638560000000  0.3104860000000  0.5291440000000 1.0
C      1  0.5027000000000  0.2657840000000  0.4714480000000 1.0
C      1  0.6383780000000  0.3099860000000  0.5310620000000 1.0
C      1  0.7234410000000  0.4288500000000  0.4698300000000 1.0
C      1  0.5354090000000  0.5758110000000  0.4259450000000 1.0
C      1  0.4754130000000  0.5771690000000  0.5574630000000 1.0
C      1  0.4429700000000  0.5549410000000  0.4435930000000 1.0
C      1  0.4147680000000  0.5002620000000  0.5731910000000 1.0
C      1  0.4356880000000  0.4597700000000  0.4344080000000 1.0
C      1  0.4642960000000  0.4245150000000  0.5743500000000 1.0
C      1  0.5249340000000  0.4230690000000  0.4437620000000 1.0
C      1  0.5564130000000  0.4448600000000  0.5557980000000 1.0
C      1  0.5851690000000  0.4999840000000  0.4266260000000 1.0
C      1  0.5643210000000  0.5402960000000  0.5655060000000 1.0
C      1  0.6481820000000  0.6072390000000  0.3558670000000 1.0
C      1  0.5544290000000  0.6703450000000  0.6424260000000 1.0
C      1  0.4449470000000  0.6678230000000  0.3545350000000 1.0
C      1  0.3556940000000  0.6105390000000  0.6416430000000 1.0
C      1  0.3241720000000  0.5051840000000  0.3565110000000 1.0
C      1  0.3516150000000  0.3927740000000  0.6441710000000 1.0
C      1  0.4458640000000  0.3298280000000  0.3574890000000 1.0
C      1  0.5546700000000  0.3320780000000  0.6452900000000 1.0
C      1  0.6440690000000  0.3892920000000  0.3584370000000 1.0
C      1  0.6756050000000  0.4941930000000  0.6435350000000 1.0
END
