TITL C-1525613-7943-6895 0.0311569983455614 3375 -8504.10811701539 0 0 60 (Ci) n - 1
REM
REM in /home/nfs/bkarasulu/CARBON/AIRSS/Generating-Clusters/ReaxFF-fromJPCA2015/Units_Real/Try2-Higher-symm/Only-C60
REM
REM
REM
REM
REM
REM ./C.cell (863b2abdce7293c0672fb3ba77bf323a)
REM AIRSS Version 0.9.1 bugfix July 2018 build 013d7b7c2542+ Fri, 06 Jul 2018 19:26:36 +0100
REM compiler GCC version 9.2.1 20190827 (Red Hat 9.2.1-1)
REM options -cpp -mtune=generic -march=x86-64 -g -O0 -fpre-include=/usr/include/finclude/math-vector-fortran.h
REM seed 487749380 394420350 -850650952 429158297 1381181428 -1589888479 -1311252112 1183423269 -284571097 1131591899 -309494432 386066785 -1781655916 -834772635 548798308 1441399699 -1212117356 1770321755 -1456280735 1153399263 -695771153 -2002356518 -1324563804 -1319019285 -908956234 -411820270 -1175399489 1198678509 725537194 1103374650 691711337 1918063614 -1523206618
REM
CELL 1.54180   15.00000   15.00000   15.00000   90.00000   90.00000   90.00000
LATT -1
SFAC C  
C      1  0.5903290000000  0.4797920000000  0.5821840000000 1.0
C      1  0.4132030000000  0.4315780000000  0.5487440000000 1.0
C      1  0.5872710000000  0.4206920000000  0.5041260000000 1.0
C      1  0.4127900000000  0.4282210000000  0.4520610000000 1.0
C      1  0.5850070000000  0.4750150000000  0.4243830000000 1.0
C      1  0.4101220000000  0.5200520000000  0.4181690000000 1.0
C      1  0.5858970000000  0.5683480000000  0.4518590000000 1.0
C      1  0.4132710000000  0.5792060000000  0.4962100000000 1.0
C      1  0.5866250000000  0.5716670000000  0.5485090000000 1.0
C      1  0.4146800000000  0.5249130000000  0.5759940000000 1.0
C      1  0.5096710000000  0.4797150000000  0.2652840000000 1.0
C      1  0.4899550000000  0.6237210000000  0.3020400000000 1.0
C      1  0.5141830000000  0.7170050000000  0.4120060000000 1.0
C      1  0.4888410000000  0.7304670000000  0.5528100000000 1.0
C      1  0.5089150000000  0.6566140000000  0.6765420000000 1.0
C      1  0.4906320000000  0.5189250000000  0.7355930000000 1.0
C      1  0.5108040000000  0.3743860000000  0.6969210000000 1.0
C      1  0.4853270000000  0.2828430000000  0.5875060000000 1.0
C      1  0.5111470000000  0.2693910000000  0.4469360000000 1.0
C      1  0.4908590000000  0.3429710000000  0.3233930000000 1.0
C      1  0.5375410000000  0.5633490000000  0.2585830000000 1.0
C      1  0.4605980000000  0.6933620000000  0.3456210000000 1.0
C      1  0.5439220000000  0.7502460000000  0.4866040000000 1.0
C      1  0.4595260000000  0.7158470000000  0.6345070000000 1.0
C      1  0.5374270000000  0.5934600000000  0.7320100000000 1.0
C      1  0.4627380000000  0.4351750000000  0.7398950000000 1.0
C      1  0.5406520000000  0.3057240000000  0.6528310000000 1.0
C      1  0.4554680000000  0.2499650000000  0.5128850000000 1.0
C      1  0.5406640000000  0.2840070000000  0.3654610000000 1.0
C      1  0.4621150000000  0.4057630000000  0.2679220000000 1.0
C      1  0.6182910000000  0.5787000000000  0.7095880000000 1.0
C      1  0.3801390000000  0.4400680000000  0.7162940000000 1.0
C      1  0.6243870000000  0.3234650000000  0.6344600000000 1.0
C      1  0.3720150000000  0.2758370000000  0.5075110000000 1.0
C      1  0.6214600000000  0.3113870000000  0.3753710000000 1.0
C      1  0.3813000000000  0.4210410000000  0.2906520000000 1.0
C      1  0.6196740000000  0.5604130000000  0.2832900000000 1.0
C      1  0.3774350000000  0.6769840000000  0.3655910000000 1.0
C      1  0.6271810000000  0.7248980000000  0.4931920000000 1.0
C      1  0.3786800000000  0.6887800000000  0.6249650000000 1.0
C      1  0.3393860000000  0.6434410000000  0.4978400000000 1.0
C      1  0.6627550000000  0.6217760000000  0.5830540000000 1.0
C      1  0.3384870000000  0.5447630000000  0.6340920000000 1.0
C      1  0.6682670000000  0.4565710000000  0.6367700000000 1.0
C      1  0.3344140000000  0.3865090000000  0.5848710000000 1.0
C      1  0.6616910000000  0.3570830000000  0.5020600000000 1.0
C      1  0.3364120000000  0.3787160000000  0.4172960000000 1.0
C      1  0.6611050000000  0.4558180000000  0.3659230000000 1.0
C      1  0.3326530000000  0.5439530000000  0.3631610000000 1.0
C      1  0.6642770000000  0.6141590000000  0.4156640000000 1.0
C      1  0.6941040000000  0.3705490000000  0.5956570000000 1.0
C      1  0.3045350000000  0.3395140000000  0.5031190000000 1.0
C      1  0.6876230000000  0.3690740000000  0.4061620000000 1.0
C      1  0.3119180000000  0.4479180000000  0.3476180000000 1.0
C      1  0.6884310000000  0.5487680000000  0.3447740000000 1.0
C      1  0.3073150000000  0.6301160000000  0.4041230000000 1.0
C      1  0.6946370000000  0.6610550000000  0.4973200000000 1.0
C      1  0.3124690000000  0.6314230000000  0.5934700000000 1.0
C      1  0.6880340000000  0.5527800000000  0.6526320000000 1.0
C      1  0.3107490000000  0.4520200000000  0.6558920000000 1.0
END
