TITL C-1525613-7943-1650 -0.00186737476579543 3375 -8702.35188767183 0 0 60 (C2v) n - 1
REM
REM in /home/nfs/bkarasulu/CARBON/AIRSS/Generating-Clusters/ReaxFF-fromJPCA2015/Units_Real/Try2-Higher-symm/Only-C60
REM
REM
REM
REM
REM
REM ./C.cell (863b2abdce7293c0672fb3ba77bf323a)
REM AIRSS Version 0.9.1 bugfix July 2018 build 013d7b7c2542+ Fri, 06 Jul 2018 19:26:36 +0100
REM compiler GCC version 9.2.1 20190827 (Red Hat 9.2.1-1)
REM options -cpp -mtune=generic -march=x86-64 -g -O0 -fpre-include=/usr/include/finclude/math-vector-fortran.h
REM seed 816360458 1759485165 1114311855 71013949 1063159657 -1297528182 1764368750 -1962591137 -82762475 1512347261 -1434113174 -1480138843 -650807879 -964860716 -1172660045 1104807142 -1009891686 848690300 -1455143231 1580796520 1283155160 230398407 -118796714 1916259321 1160793638 415898067 -359327971 1488616758 1062331510 303185009 -1178001430 -1652592439 -2038196671
REM
CELL 1.54180   15.00000   15.00000   15.00000   90.00000   90.00000   90.00000
LATT -1
SFAC C  
C      1  0.5907520000000  0.4772420000000  0.2419150000000 1.0
C      1  0.5760530000000  0.6106260000000  0.2282300000000 1.0
C      1  0.4461990000000  0.5767780000000  0.2417830000000 1.0
C      1  0.3880160000000  0.4545890000000  0.2261400000000 1.0
C      1  0.4975630000000  0.3791350000000  0.2261580000000 1.0
C      1  0.5907520000000  0.4772420000000  0.7580850000000 1.0
C      1  0.5760530000000  0.6106260000000  0.7717700000000 1.0
C      1  0.4461990000000  0.5767780000000  0.7582170000000 1.0
C      1  0.3880160000000  0.4545890000000  0.7738600000000 1.0
C      1  0.4975630000000  0.3791350000000  0.7738420000000 1.0
C      1  0.5789700000000  0.3919320000000  0.7476180000000 1.0
C      1  0.6341180000000  0.5521110000000  0.7501870000000 1.0
C      1  0.5006560000000  0.6440110000000  0.7502710000000 1.0
C      1  0.3707880000000  0.5352010000000  0.7477050000000 1.0
C      1  0.4151810000000  0.3767640000000  0.7539720000000 1.0
C      1  0.5789700000000  0.3919320000000  0.2523820000000 1.0
C      1  0.6341180000000  0.5521110000000  0.2498130000000 1.0
C      1  0.5006560000000  0.6440110000000  0.2497290000000 1.0
C      1  0.3707880000000  0.5352010000000  0.2522950000000 1.0
C      1  0.4151810000000  0.3767640000000  0.2460280000000 1.0
C      1  0.6859240000000  0.4450810000000  0.5483320000000 1.0
C      1  0.6106750000000  0.6608740000000  0.5483350000000 1.0
C      1  0.3823400000000  0.6540110000000  0.5483320000000 1.0
C      1  0.3166020000000  0.4346510000000  0.5483200000000 1.0
C      1  0.5045760000000  0.3052110000000  0.5483230000000 1.0
C      1  0.6859240000000  0.4450810000000  0.4516680000000 1.0
C      1  0.6106750000000  0.6608740000000  0.4516650000000 1.0
C      1  0.3823400000000  0.6540110000000  0.4516680000000 1.0
C      1  0.3166020000000  0.4346510000000  0.4516800000000 1.0
C      1  0.5045760000000  0.3052110000000  0.4516770000000 1.0
C      1  0.3036870000000  0.5576810000000  0.6783780000000 1.0
C      1  0.3793970000000  0.3246900000000  0.6771370000000 1.0
C      1  0.6240390000000  0.3372360000000  0.6783700000000 1.0
C      1  0.6987100000000  0.5705010000000  0.6773420000000 1.0
C      1  0.4948150000000  0.7108480000000  0.6773760000000 1.0
C      1  0.3036870000000  0.5576810000000  0.3216220000000 1.0
C      1  0.3793970000000  0.3246900000000  0.3228630000000 1.0
C      1  0.6240390000000  0.3372360000000  0.3216300000000 1.0
C      1  0.6987100000000  0.5705010000000  0.3226580000000 1.0
C      1  0.4948150000000  0.7108480000000  0.3226240000000 1.0
C      1  0.5438330000000  0.7162090000000  0.5945450000000 1.0
C      1  0.3102640000000  0.6074650000000  0.5961570000000 1.0
C      1  0.3374230000000  0.3504370000000  0.5945090000000 1.0
C      1  0.5905290000000  0.3008260000000  0.5956900000000 1.0
C      1  0.7186200000000  0.5253280000000  0.5946560000000 1.0
C      1  0.5438330000000  0.7162090000000  0.4054550000000 1.0
C      1  0.3102640000000  0.6074650000000  0.4038430000000 1.0
C      1  0.3374230000000  0.3504370000000  0.4054910000000 1.0
C      1  0.5905290000000  0.3008260000000  0.4043100000000 1.0
C      1  0.7186200000000  0.5253280000000  0.4053440000000 1.0
C      1  0.4184900000000  0.2946380000000  0.5945410000000 1.0
C      1  0.6682300000000  0.3611280000000  0.5961690000000 1.0
C      1  0.6862460000000  0.6181780000000  0.5945000000000 1.0
C      1  0.4455520000000  0.7132760000000  0.5946630000000 1.0
C      1  0.2817530000000  0.5133430000000  0.5956830000000 1.0
C      1  0.4184900000000  0.2946380000000  0.4054590000000 1.0
C      1  0.6682300000000  0.3611280000000  0.4038310000000 1.0
C      1  0.6862460000000  0.6181780000000  0.4055000000000 1.0
C      1  0.4455520000000  0.7132760000000  0.4053370000000 1.0
C      1  0.2817530000000  0.5133430000000  0.4043170000000 1.0
END
