TITL C-1525613-7943-3353 -0.00733739260783138 3375 -9334.84357930066 0 0 60 (C5) n - 1
REM
REM in /home/nfs/bkarasulu/CARBON/AIRSS/Generating-Clusters/ReaxFF-fromJPCA2015/Units_Real/Try2-Higher-symm/Only-C60
REM
REM
REM
REM
REM
REM ./C.cell (863b2abdce7293c0672fb3ba77bf323a)
REM AIRSS Version 0.9.1 bugfix July 2018 build 013d7b7c2542+ Fri, 06 Jul 2018 19:26:36 +0100
REM compiler GCC version 9.2.1 20190827 (Red Hat 9.2.1-1)
REM options -cpp -mtune=generic -march=x86-64 -g -O0 -fpre-include=/usr/include/finclude/math-vector-fortran.h
REM seed 1683672581 -480569878 -2015642777 576938998 -1655481978 -1038402401 -1728884974 -295093889 -1668263537 1677371133 -1127152470 -999803707 1378604589 145547138 -1112146046 567668446 779838907 1501300322 -1198672943 -1377603468 -236104449 469381487 -1655806399 335645933 -2087894579 -627485426 -684339290 -82784963 -509561434 831119866 -1077991490 1773431421 802908349
REM
CELL 1.54180   15.00000   15.00000   15.00000   90.00000   90.00000   90.00000
LATT -1
SFAC C  
C      1  0.5242650000000  0.3848220000000  0.2648740000000 1.0
C      1  0.7310790000000  0.3849860000000  0.4504600000000 1.0
C      1  0.6184720000000  0.3849270000000  0.7044670000000 1.0
C      1  0.3421310000000  0.3847110000000  0.6758920000000 1.0
C      1  0.2838930000000  0.3846640000000  0.4042430000000 1.0
C      1  0.5250680000000  0.3850350000000  0.7349000000000 1.0
C      1  0.7310920000000  0.3852420000000  0.5486950000000 1.0
C      1  0.6176670000000  0.3852560000000  0.2952900000000 1.0
C      1  0.3416640000000  0.3850540000000  0.3247980000000 1.0
C      1  0.2843710000000  0.3849300000000  0.5964330000000 1.0
C      1  0.4082370000000  0.6735160000000  0.3715490000000 1.0
C      1  0.5938690000000  0.6738190000000  0.3729590000000 1.0
C      1  0.6499590000000  0.6740610000000  0.5499930000000 1.0
C      1  0.4988250000000  0.6739600000000  0.6580510000000 1.0
C      1  0.3493720000000  0.6736830000000  0.5476580000000 1.0
C      1  0.4069030000000  0.6740630000000  0.6277850000000 1.0
C      1  0.5928570000000  0.6744210000000  0.6280980000000 1.0
C      1  0.6506220000000  0.6746210000000  0.4513070000000 1.0
C      1  0.5002890000000  0.6744290000000  0.3417530000000 1.0
C      1  0.3496320000000  0.6741520000000  0.4508630000000 1.0
C      1  0.3699720000000  0.4526960000000  0.2603320000000 1.0
C      1  0.6877110000000  0.4529270000000  0.3023450000000 1.0
C      1  0.7460080000000  0.4528820000000  0.6175560000000 1.0
C      1  0.4641680000000  0.4526280000000  0.7704230000000 1.0
C      1  0.2317560000000  0.4525230000000  0.5495540000000 1.0
C      1  0.3707620000000  0.4522520000000  0.7404530000000 1.0
C      1  0.6886910000000  0.4525010000000  0.6971410000000 1.0
C      1  0.7457880000000  0.4525120000000  0.3813830000000 1.0
C      1  0.4630970000000  0.4522900000000  0.2294910000000 1.0
C      1  0.2312990000000  0.4521360000000  0.4514450000000 1.0
C      1  0.6142730000000  0.6115980000000  0.3019650000000 1.0
C      1  0.7238100000000  0.6118610000000  0.5474250000000 1.0
C      1  0.5240830000000  0.6117380000000  0.7275060000000 1.0
C      1  0.2911350000000  0.6114020000000  0.5930910000000 1.0
C      1  0.3470630000000  0.6112750000000  0.3302020000000 1.0
C      1  0.6134920000000  0.6123030000000  0.6993290000000 1.0
C      1  0.7247930000000  0.6124900000000  0.4536370000000 1.0
C      1  0.5253680000000  0.6122890000000  0.2719130000000 1.0
C      1  0.2910080000000  0.6119880000000  0.4054430000000 1.0
C      1  0.3455880000000  0.6119410000000  0.6694190000000 1.0
C      1  0.2390340000000  0.5492790000000  0.5471800000000 1.0
C      1  0.3745300000000  0.5493240000000  0.2665020000000 1.0
C      1  0.6832730000000  0.5495630000000  0.3085460000000 1.0
C      1  0.7387990000000  0.5496550000000  0.6151760000000 1.0
C      1  0.4642340000000  0.5494760000000  0.7627930000000 1.0
C      1  0.2381100000000  0.5495000000000  0.4525700000000 1.0
C      1  0.3739820000000  0.5495620000000  0.7342600000000 1.0
C      1  0.6838510000000  0.5498280000000  0.6922200000000 1.0
C      1  0.7397080000000  0.5499030000000  0.3844530000000 1.0
C      1  0.4641460000000  0.5497010000000  0.2362400000000 1.0
C      1  0.4074800000000  0.3267340000000  0.6289360000000 1.0
C      1  0.3487710000000  0.3266470000000  0.4518170000000 1.0
C      1  0.4991010000000  0.3267280000000  0.3412350000000 1.0
C      1  0.6506970000000  0.3268810000000  0.4500680000000 1.0
C      1  0.5940430000000  0.3268960000000  0.6278410000000 1.0
C      1  0.4072430000000  0.3271420000000  0.3714100000000 1.0
C      1  0.3490310000000  0.3270250000000  0.5485090000000 1.0
C      1  0.4995060000000  0.3270660000000  0.6586230000000 1.0
C      1  0.6507000000000  0.3272290000000  0.5494860000000 1.0
C      1  0.5936320000000  0.3272790000000  0.3720160000000 1.0
END
