TITL C-1525613-7943-3333 0.0162289552634621 3375 -9187.43171662536 0 0 60 (C1) n - 1
REM
REM in /home/nfs/bkarasulu/CARBON/AIRSS/Generating-Clusters/ReaxFF-fromJPCA2015/Units_Real/Try2-Higher-symm/Only-C60
REM
REM
REM
REM
REM
REM ./C.cell (863b2abdce7293c0672fb3ba77bf323a)
REM AIRSS Version 0.9.1 bugfix July 2018 build 013d7b7c2542+ Fri, 06 Jul 2018 19:26:36 +0100
REM compiler GCC version 9.2.1 20190827 (Red Hat 9.2.1-1)
REM options -cpp -mtune=generic -march=x86-64 -g -O0 -fpre-include=/usr/include/finclude/math-vector-fortran.h
REM seed 237508963 -1575464715 -90747270 1980436567 -616964423 -1006998069 1441374080 -599540116 493576309 1380902836 -1836023493 -1773909643 -1798839459 -1919294693 126592428 438181640 1482358453 1518988147 1358017178 1151909348 2033733497 -1142131449 2145012197 2040544663 1827012008 -1211638016 1065512228 -1800625213 -330583680 1423482701 -2057437696 2117622230 858472247
REM
CELL 1.54180   15.00000   15.00000   15.00000   90.00000   90.00000   90.00000
LATT -1
SFAC C  
C      1  0.2768690000000  0.3795440000000  0.4708370000000 1.0
C      1  0.2530530000000  0.5440740000000  0.5216570000000 1.0
C      1  0.3069070000000  0.6972080000000  0.4670510000000 1.0
C      1  0.4601290000000  0.7575700000000  0.4649720000000 1.0
C      1  0.6187890000000  0.7408340000000  0.4919510000000 1.0
C      1  0.7226510000000  0.6151280000000  0.4672270000000 1.0
C      1  0.7480360000000  0.4553900000000  0.5295860000000 1.0
C      1  0.6958620000000  0.3055820000000  0.4694520000000 1.0
C      1  0.5401790000000  0.2389120000000  0.4660490000000 1.0
C      1  0.3802820000000  0.2531910000000  0.4953150000000 1.0
C      1  0.6063350000000  0.2840150000000  0.6006620000000 1.0
C      1  0.5096280000000  0.2855240000000  0.6131860000000 1.0
C      1  0.3023490000000  0.3428710000000  0.6249140000000 1.0
C      1  0.2549570000000  0.4293740000000  0.6246620000000 1.0
C      1  0.3340540000000  0.6417790000000  0.6175510000000 1.0
C      1  0.3954320000000  0.7117310000000  0.5947100000000 1.0
C      1  0.4910190000000  0.7103460000000  0.6096690000000 1.0
C      1  0.6986140000000  0.6540610000000  0.6217140000000 1.0
C      1  0.7465890000000  0.5673070000000  0.6233710000000 1.0
C      1  0.6674570000000  0.3551890000000  0.6235780000000 1.0
C      1  0.5652550000000  0.7326350000000  0.3339060000000 1.0
C      1  0.6520250000000  0.6909970000000  0.3382410000000 1.0
C      1  0.7733580000000  0.5775670000000  0.3039340000000 1.0
C      1  0.7222570000000  0.4109880000000  0.3468990000000 1.0
C      1  0.6064890000000  0.2943390000000  0.3263400000000 1.0
C      1  0.4323580000000  0.2624080000000  0.3366130000000 1.0
C      1  0.3438220000000  0.3004830000000  0.3409160000000 1.0
C      1  0.2419840000000  0.4372090000000  0.3134580000000 1.0
C      1  0.2680530000000  0.6085020000000  0.3370120000000 1.0
C      1  0.3895930000000  0.7191840000000  0.3232360000000 1.0
C      1  0.2372290000000  0.4551830000000  0.5279240000000 1.0
C      1  0.2761700000000  0.6322860000000  0.5347480000000 1.0
C      1  0.3776810000000  0.7431690000000  0.5067180000000 1.0
C      1  0.5306800000000  0.7454260000000  0.5273990000000 1.0
C      1  0.6853990000000  0.6799230000000  0.5271290000000 1.0
C      1  0.7659000000000  0.5434440000000  0.5265840000000 1.0
C      1  0.7264520000000  0.3670830000000  0.5416410000000 1.0
C      1  0.6258180000000  0.2532230000000  0.5089240000000 1.0
C      1  0.4696870000000  0.2492290000000  0.5307020000000 1.0
C      1  0.3145470000000  0.3149560000000  0.5306160000000 1.0
C      1  0.3729060000000  0.3838520000000  0.6812340000000 1.0
C      1  0.3272300000000  0.4691240000000  0.6782580000000 1.0
C      1  0.3655690000000  0.5659330000000  0.6715980000000 1.0
C      1  0.4522810000000  0.5932930000000  0.6777570000000 1.0
C      1  0.5291130000000  0.6405530000000  0.6690510000000 1.0
C      1  0.6281630000000  0.6146380000000  0.6790910000000 1.0
C      1  0.6728410000000  0.5290860000000  0.6775890000000 1.0
C      1  0.6349800000000  0.4322830000000  0.6758030000000 1.0
C      1  0.5481890000000  0.4050900000000  0.6801290000000 1.0
C      1  0.4718320000000  0.3579480000000  0.6704110000000 1.0
C      1  0.2910160000000  0.3724830000000  0.3774790000000 1.0
C      1  0.2462830000000  0.5319710000000  0.3174580000000 1.0
C      1  0.3054510000000  0.6886230000000  0.3704330000000 1.0
C      1  0.4736740000000  0.7372540000000  0.3693120000000 1.0
C      1  0.6267430000000  0.7571980000000  0.3981800000000 1.0
C      1  0.7051720000000  0.6175490000000  0.3730140000000 1.0
C      1  0.7474860000000  0.4874330000000  0.3260620000000 1.0
C      1  0.6898840000000  0.3266180000000  0.3737810000000 1.0
C      1  0.5249380000000  0.2650760000000  0.3710220000000 1.0
C      1  0.3722970000000  0.2361310000000  0.4012830000000 1.0
END
