TITL C-1525613-7943-7610 -0.0310857070685238 3375 -8857.20020828807 0 0 60 (Cs) n - 1
REM
REM in /home/nfs/bkarasulu/CARBON/AIRSS/Generating-Clusters/ReaxFF-fromJPCA2015/Units_Real/Try2-Higher-symm/Only-C60
REM
REM
REM
REM
REM
REM ./C.cell (863b2abdce7293c0672fb3ba77bf323a)
REM AIRSS Version 0.9.1 bugfix July 2018 build 013d7b7c2542+ Fri, 06 Jul 2018 19:26:36 +0100
REM compiler GCC version 9.2.1 20190827 (Red Hat 9.2.1-1)
REM options -cpp -mtune=generic -march=x86-64 -g -O0 -fpre-include=/usr/include/finclude/math-vector-fortran.h
REM seed 562978048 891222460 -1346041953 2061527870 -47204944 1881916052 -135458012 -1788295855 492814468 538671477 2105387577 -1475279790 -1328482625 -27967299 1254757731 1298945350 -1934137264 -1994040429 -1714365643 -784198773 -1589837278 138095023 1472461183 1795822130 -1362293598 -1338432665 -653779423 -566181704 674307295 -59798931 1212959188 1820869006 1068795197
REM
CELL 1.54180   15.00000   15.00000   15.00000   90.00000   90.00000   90.00000
LATT -1
SFAC C  
C      1  0.4384170000000  0.6491100000000  0.3178900000000 1.0
C      1  0.3377660000000  0.4933520000000  0.3185440000000 1.0
C      1  0.4587400000000  0.3453100000000  0.3179560000000 1.0
C      1  0.6335500000000  0.4118230000000  0.3219390000000 1.0
C      1  0.6233910000000  0.5994900000000  0.3191220000000 1.0
C      1  0.4383650000000  0.6491090000000  0.6820480000000 1.0
C      1  0.3377160000000  0.4932870000000  0.6814940000000 1.0
C      1  0.4587600000000  0.3453160000000  0.6820500000000 1.0
C      1  0.6335660000000  0.4118010000000  0.6780520000000 1.0
C      1  0.6233290000000  0.5994530000000  0.6808640000000 1.0
C      1  0.3978480000000  0.4187720000000  0.3375190000000 1.0
C      1  0.5474610000000  0.3733010000000  0.3471380000000 1.0
C      1  0.6334400000000  0.5066380000000  0.3462270000000 1.0
C      1  0.5324790000000  0.6310260000000  0.3396700000000 1.0
C      1  0.3833860000000  0.5744530000000  0.3470960000000 1.0
C      1  0.3978810000000  0.4188000000000  0.6625110000000 1.0
C      1  0.5474720000000  0.3732920000000  0.6528410000000 1.0
C      1  0.6333940000000  0.5066140000000  0.6537470000000 1.0
C      1  0.5324260000000  0.6310140000000  0.6603040000000 1.0
C      1  0.3833790000000  0.5744410000000  0.6528570000000 1.0
C      1  0.6285800000000  0.3114740000000  0.4521500000000 1.0
C      1  0.7162060000000  0.5593730000000  0.4524210000000 1.0
C      1  0.5089020000000  0.7224900000000  0.4522370000000 1.0
C      1  0.2870050000000  0.5794720000000  0.4525890000000 1.0
C      1  0.3644010000000  0.3252520000000  0.4523920000000 1.0
C      1  0.6285900000000  0.3114620000000  0.5478500000000 1.0
C      1  0.7161930000000  0.5593620000000  0.5475980000000 1.0
C      1  0.5089130000000  0.7225400000000  0.5477440000000 1.0
C      1  0.2870280000000  0.5794640000000  0.5474680000000 1.0
C      1  0.3643960000000  0.3252460000000  0.5476360000000 1.0
C      1  0.3448480000000  0.6660100000000  0.4524770000000 1.0
C      1  0.2986280000000  0.4060250000000  0.4524140000000 1.0
C      1  0.5306410000000  0.2769740000000  0.4524640000000 1.0
C      1  0.7232190000000  0.4558880000000  0.4520630000000 1.0
C      1  0.6089590000000  0.6950610000000  0.4522900000000 1.0
C      1  0.3448710000000  0.6660220000000  0.5475540000000 1.0
C      1  0.2986130000000  0.4060150000000  0.5476110000000 1.0
C      1  0.5306450000000  0.2769760000000  0.5475440000000 1.0
C      1  0.7232230000000  0.4558810000000  0.5479400000000 1.0
C      1  0.6089550000000  0.6950650000000  0.5477140000000 1.0
C      1  0.5194370000000  0.5768270000000  0.4195280000000 1.0
C      1  0.4283540000000  0.5464200000000  0.4339070000000 1.0
C      1  0.4389630000000  0.4511310000000  0.4182220000000 1.0
C      1  0.5295440000000  0.4216510000000  0.4327600000000 1.0
C      1  0.5823080000000  0.5049830000000  0.4318400000000 1.0
C      1  0.5194010000000  0.5768180000000  0.5804420000000 1.0
C      1  0.4283470000000  0.5463940000000  0.5660660000000 1.0
C      1  0.4389710000000  0.4511460000000  0.5817990000000 1.0
C      1  0.5295240000000  0.4216430000000  0.5672220000000 1.0
C      1  0.5822770000000  0.5049870000000  0.5681210000000 1.0
C      1  0.6650990000000  0.6292950000000  0.4019870000000 1.0
C      1  0.4263740000000  0.6961310000000  0.4023890000000 1.0
C      1  0.2882500000000  0.4921010000000  0.4027390000000 1.0
C      1  0.4463380000000  0.2976120000000  0.4022460000000 1.0
C      1  0.6776190000000  0.3826270000000  0.4035500000000 1.0
C      1  0.6650700000000  0.6292850000000  0.5980250000000 1.0
C      1  0.4263500000000  0.6962180000000  0.5976330000000 1.0
C      1  0.2882110000000  0.4920720000000  0.5972890000000 1.0
C      1  0.4463380000000  0.2976050000000  0.5977690000000 1.0
C      1  0.6776470000000  0.3826020000000  0.5964450000000 1.0
END
