TITL C-1525613-7943-6528 -0.0401650261060997 3375 -8982.86904546943 0 0 60 (C1) n - 1
REM
REM in /home/nfs/bkarasulu/CARBON/AIRSS/Generating-Clusters/ReaxFF-fromJPCA2015/Units_Real/Try2-Higher-symm/Only-C60
REM
REM
REM
REM
REM
REM ./C.cell (863b2abdce7293c0672fb3ba77bf323a)
REM AIRSS Version 0.9.1 bugfix July 2018 build 013d7b7c2542+ Fri, 06 Jul 2018 19:26:36 +0100
REM compiler GCC version 9.2.1 20190827 (Red Hat 9.2.1-1)
REM options -cpp -mtune=generic -march=x86-64 -g -O0 -fpre-include=/usr/include/finclude/math-vector-fortran.h
REM seed -1828921332 -786026836 774858166 -1389366864 -1123836027 1697887591 -426108276 1083862710 546540449 -1523567503 481695926 356599016 -490623660 1066419633 -1148004800 499538874 1469380235 -202955784 1017161156 546974271 463948200 -1636975825 819384027 1590967224 2127564949 282905944 -424274415 -922958361 -585351061 1235191539 18002824 137626248 -1059349539
REM
CELL 1.54180   15.00000   15.00000   15.00000   90.00000   90.00000   90.00000
LATT -1
SFAC C  
C      1  0.4234800000000  0.7309820000000  0.6064850000000 1.0
C      1  0.4176480000000  0.6528280000000  0.3303070000000 1.0
C      1  0.4150260000000  0.3781880000000  0.2949800000000 1.0
C      1  0.4260370000000  0.2736690000000  0.5492370000000 1.0
C      1  0.4137960000000  0.4686260000000  0.7360470000000 1.0
C      1  0.5921080000000  0.7162350000000  0.4101860000000 1.0
C      1  0.5804490000000  0.6535460000000  0.6807130000000 1.0
C      1  0.5873750000000  0.3841360000000  0.7010230000000 1.0
C      1  0.5766200000000  0.2761590000000  0.4527240000000 1.0
C      1  0.5835930000000  0.4683760000000  0.2634450000000 1.0
C      1  0.6444030000000  0.6446890000000  0.5526450000000 1.0
C      1  0.6503670000000  0.5888430000000  0.3466270000000 1.0
C      1  0.6477550000000  0.3494010000000  0.3650190000000 1.0
C      1  0.6444850000000  0.3649940000000  0.5463880000000 1.0
C      1  0.6554340000000  0.5051300000000  0.6728400000000 1.0
C      1  0.3592960000000  0.6657220000000  0.4603470000000 1.0
C      1  0.3449660000000  0.5925160000000  0.6483740000000 1.0
C      1  0.3532910000000  0.3479320000000  0.6350840000000 1.0
C      1  0.3553950000000  0.3545280000000  0.4570010000000 1.0
C      1  0.3375270000000  0.4942230000000  0.3061570000000 1.0
C      1  0.4941040000000  0.6169340000000  0.7120870000000 1.0
C      1  0.5046190000000  0.7392380000000  0.4553760000000 1.0
C      1  0.5027070000000  0.5238210000000  0.2621410000000 1.0
C      1  0.4989410000000  0.2735970000000  0.3998360000000 1.0
C      1  0.5042880000000  0.3350820000000  0.6802190000000 1.0
C      1  0.5021540000000  0.6164320000000  0.2944520000000 1.0
C      1  0.5070350000000  0.7448050000000  0.5522440000000 1.0
C      1  0.4957790000000  0.5240450000000  0.7388010000000 1.0
C      1  0.5048630000000  0.2755540000000  0.6023170000000 1.0
C      1  0.4970910000000  0.3326150000000  0.3208320000000 1.0
C      1  0.5820060000000  0.4771010000000  0.7342070000000 1.0
C      1  0.5828150000000  0.7107650000000  0.6017250000000 1.0
C      1  0.5831290000000  0.6561830000000  0.3284870000000 1.0
C      1  0.5819500000000  0.3745640000000  0.3018540000000 1.0
C      1  0.5871960000000  0.2791230000000  0.5449210000000 1.0
C      1  0.4213320000000  0.4698110000000  0.2613800000000 1.0
C      1  0.4253980000000  0.7146070000000  0.4056060000000 1.0
C      1  0.4140630000000  0.6595510000000  0.6752520000000 1.0
C      1  0.4182460000000  0.3742070000000  0.6989920000000 1.0
C      1  0.4159580000000  0.2723850000000  0.4565820000000 1.0
C      1  0.5883760000000  0.5707630000000  0.5139690000000 1.0
C      1  0.6140670000000  0.5421550000000  0.4276990000000 1.0
C      1  0.5457990000000  0.4714140000000  0.4259810000000 1.0
C      1  0.5767950000000  0.4294210000000  0.5096570000000 1.0
C      1  0.5412480000000  0.5004720000000  0.5648130000000 1.0
C      1  0.3973240000000  0.5727170000000  0.4804060000000 1.0
C      1  0.3790250000000  0.5412270000000  0.5684960000000 1.0
C      1  0.4457230000000  0.4693200000000  0.5694770000000 1.0
C      1  0.4219480000000  0.4248820000000  0.4847970000000 1.0
C      1  0.4485070000000  0.5014830000000  0.4316730000000 1.0
C      1  0.6676650000000  0.5205570000000  0.2749050000000 1.0
C      1  0.6957370000000  0.3326270000000  0.4427400000000 1.0
C      1  0.6564330000000  0.4105350000000  0.6373460000000 1.0
C      1  0.6545460000000  0.5998120000000  0.6497330000000 1.0
C      1  0.6684850000000  0.7066150000000  0.4665410000000 1.0
C      1  0.3322060000000  0.5218010000000  0.7190870000000 1.0
C      1  0.3043710000000  0.3315070000000  0.5567330000000 1.0
C      1  0.3308380000000  0.3933740000000  0.3552350000000 1.0
C      1  0.3387820000000  0.5884780000000  0.3257430000000 1.0
C      1  0.3593990000000  0.6896990000000  0.5520280000000 1.0
END
