TITL C-1525613-7943-7172 -0.0710740440082891 3375 -8813.61800535493 0 0 60 (C1) n - 1
REM
REM in /home/nfs/bkarasulu/CARBON/AIRSS/Generating-Clusters/ReaxFF-fromJPCA2015/Units_Real/Try2-Higher-symm/Only-C60
REM
REM
REM
REM
REM
REM ./C.cell (863b2abdce7293c0672fb3ba77bf323a)
REM AIRSS Version 0.9.1 bugfix July 2018 build 013d7b7c2542+ Fri, 06 Jul 2018 19:26:36 +0100
REM compiler GCC version 9.2.1 20190827 (Red Hat 9.2.1-1)
REM options -cpp -mtune=generic -march=x86-64 -g -O0 -fpre-include=/usr/include/finclude/math-vector-fortran.h
REM seed -1999876793 435688319 1993562206 1957660592 -1204374340 1201160586 -1914597588 2001479309 -1036551640 -771220962 330155583 -66814428 1213156972 368497316 361063471 -1963851278 456697389 681295644 -1908408372 -1928798082 1107416639 1027157543 967420089 -1139169943 1872858218 377665700 -683893121 2067107846 705754943 1470776658 820577941 341557749 56253606
REM
CELL 1.54180   15.00000   15.00000   15.00000   90.00000   90.00000   90.00000
LATT -1
SFAC C  
C      1  0.7089080000000  0.6690830000000  0.4954310000000 1.0
C      1  0.3877090000000  0.5758000000000  0.5434290000000 1.0
C      1  0.6932120000000  0.5487300000000  0.6334790000000 1.0
C      1  0.3012150000000  0.3885900000000  0.6223710000000 1.0
C      1  0.7015980000000  0.3584050000000  0.5986660000000 1.0
C      1  0.3041170000000  0.3290940000000  0.4744320000000 1.0
C      1  0.6273910000000  0.4149000000000  0.4385510000000 1.0
C      1  0.3198170000000  0.4781600000000  0.3263210000000 1.0
C      1  0.6829280000000  0.6080990000000  0.3590330000000 1.0
C      1  0.3204780000000  0.6233580000000  0.4810210000000 1.0
C      1  0.6374160000000  0.5280780000000  0.2951620000000 1.0
C      1  0.3512910000000  0.6410060000000  0.3879030000000 1.0
C      1  0.6273300000000  0.7149840000000  0.4603130000000 1.0
C      1  0.3699930000000  0.7244240000000  0.6011660000000 1.0
C      1  0.6022440000000  0.5898650000000  0.6586280000000 1.0
C      1  0.3470980000000  0.4702080000000  0.6824090000000 1.0
C      1  0.6163230000000  0.3617090000000  0.6540720000000 1.0
C      1  0.3679470000000  0.2799850000000  0.5321440000000 1.0
C      1  0.6494910000000  0.3211130000000  0.4207100000000 1.0
C      1  0.3592230000000  0.3934880000000  0.3075520000000 1.0
C      1  0.5148590000000  0.4724760000000  0.6876490000000 1.0
C      1  0.4468180000000  0.3326080000000  0.6752010000000 1.0
C      1  0.5309100000000  0.3056140000000  0.5482830000000 1.0
C      1  0.4761020000000  0.3173970000000  0.4195620000000 1.0
C      1  0.5430420000000  0.3738620000000  0.3041540000000 1.0
C      1  0.4665000000000  0.5064350000000  0.2972050000000 1.0
C      1  0.5249990000000  0.6483050000000  0.3304530000000 1.0
C      1  0.4747400000000  0.6912020000000  0.4684240000000 1.0
C      1  0.5326300000000  0.7290890000000  0.5997470000000 1.0
C      1  0.4417080000000  0.6217910000000  0.6867090000000 1.0
C      1  0.3268200000000  0.3581730000000  0.3890540000000 1.0
C      1  0.6954890000000  0.4986490000000  0.2251470000000 1.0
C      1  0.3231280000000  0.5598680000000  0.3564610000000 1.0
C      1  0.7581750000000  0.6161080000000  0.4180550000000 1.0
C      1  0.3210170000000  0.6943720000000  0.5416230000000 1.0
C      1  0.7046560000000  0.6097640000000  0.5646910000000 1.0
C      1  0.2961440000000  0.5251620000000  0.7425630000000 1.0
C      1  0.7156660000000  0.4531790000000  0.6159850000000 1.0
C      1  0.2511300000000  0.3924040000000  0.5415220000000 1.0
C      1  0.6925880000000  0.3131990000000  0.5081380000000 1.0
C      1  0.4555250000000  0.4116870000000  0.2776060000000 1.0
C      1  0.5388310000000  0.5678690000000  0.2822730000000 1.0
C      1  0.4437300000000  0.6757980000000  0.3776530000000 1.0
C      1  0.5467600000000  0.7498820000000  0.5050770000000 1.0
C      1  0.4490210000000  0.7155190000000  0.6514400000000 1.0
C      1  0.5222970000000  0.5684920000000  0.7079100000000 1.0
C      1  0.4373190000000  0.4206750000000  0.7083400000000 1.0
C      1  0.5372830000000  0.3029210000000  0.6438250000000 1.0
C      1  0.4581200000000  0.2639130000000  0.4990510000000 1.0
C      1  0.5590130000000  0.3042450000000  0.3703060000000 1.0
C      1  0.3648640000000  0.3151820000000  0.6220950000000 1.0
C      1  0.5524080000000  0.4053430000000  0.5181570000000 1.0
C      1  0.4704850000000  0.4129410000000  0.4566390000000 1.0
C      1  0.6051780000000  0.4361840000000  0.3469630000000 1.0
C      1  0.4540710000000  0.4875470000000  0.3986220000000 1.0
C      1  0.6118820000000  0.6706850000000  0.3765630000000 1.0
C      1  0.4781180000000  0.6108570000000  0.5249860000000 1.0
C      1  0.5543930000000  0.6345860000000  0.5843320000000 1.0
C      1  0.3749820000000  0.5676760000000  0.6407050000000 1.0
C      1  0.5728710000000  0.4392600000000  0.6140390000000 1.0
END
