TITL C-1525613-7943-7411 0.0919762218570454 3375 -8470.40760262986 0 0 60 (C5) n - 1
REM
REM in /home/nfs/bkarasulu/CARBON/AIRSS/Generating-Clusters/ReaxFF-fromJPCA2015/Units_Real/Try2-Higher-symm/Only-C60
REM
REM
REM
REM
REM
REM ./C.cell (863b2abdce7293c0672fb3ba77bf323a)
REM AIRSS Version 0.9.1 bugfix July 2018 build 013d7b7c2542+ Fri, 06 Jul 2018 19:26:36 +0100
REM compiler GCC version 9.2.1 20190827 (Red Hat 9.2.1-1)
REM options -cpp -mtune=generic -march=x86-64 -g -O0 -fpre-include=/usr/include/finclude/math-vector-fortran.h
REM seed 921969487 1570922482 -1827149691 1444434248 1969771199 -2073365366 1508098937 -133887864 697335210 -1881588526 1853650765 1078508498 -2072579453 1197541021 233424271 1120541751 -49892813 -1278089556 1848503858 -1545340153 -741714780 -526968900 141809733 24619087 -532821825 739178626 906820204 -1100157840 -950657993 1135275482 -91564994 1961666335 -660771214
REM
CELL 1.54180   15.00000   15.00000   15.00000   90.00000   90.00000   90.00000
LATT -1
SFAC C  
C      1  0.5490240000000  0.5065890000000  0.7577620000000 1.0
C      1  0.7597570000000  0.5070650000000  0.5329700000000 1.0
C      1  0.6121040000000  0.5070240000000  0.2642210000000 1.0
C      1  0.3101040000000  0.5070350000000  0.3217770000000 1.0
C      1  0.2700730000000  0.5078210000000  0.6250610000000 1.0
C      1  0.4510420000000  0.5066690000000  0.7576790000000 1.0
C      1  0.2404430000000  0.5070100000000  0.5329070000000 1.0
C      1  0.3878450000000  0.5067990000000  0.2639080000000 1.0
C      1  0.6898570000000  0.5070420000000  0.3217780000000 1.0
C      1  0.7300060000000  0.5078660000000  0.6250680000000 1.0
C      1  0.5501510000000  0.5838910000000  0.2708840000000 1.0
C      1  0.2965200000000  0.5845610000000  0.3810330000000 1.0
C      1  0.3243750000000  0.5835490000000  0.6557770000000 1.0
C      1  0.5944050000000  0.5837140000000  0.7148060000000 1.0
C      1  0.7338520000000  0.5843970000000  0.4765390000000 1.0
C      1  0.4500060000000  0.5838280000000  0.2709450000000 1.0
C      1  0.7034830000000  0.5844510000000  0.3810870000000 1.0
C      1  0.6756250000000  0.5835300000000  0.6557010000000 1.0
C      1  0.4056010000000  0.5837340000000  0.7148860000000 1.0
C      1  0.2661820000000  0.5845390000000  0.4765960000000 1.0
C      1  0.5403670000000  0.4881480000000  0.3733750000000 1.0
C      1  0.3949350000000  0.4876810000000  0.4233210000000 1.0
C      1  0.3918970000000  0.4861490000000  0.5789710000000 1.0
C      1  0.5419820000000  0.4901550000000  0.6266750000000 1.0
C      1  0.6324080000000  0.4889730000000  0.4999100000000 1.0
C      1  0.4591410000000  0.4887300000000  0.3735230000000 1.0
C      1  0.6047550000000  0.4876260000000  0.4232610000000 1.0
C      1  0.6081240000000  0.4861180000000  0.5794680000000 1.0
C      1  0.4579500000000  0.4899950000000  0.6265760000000 1.0
C      1  0.3677490000000  0.4890920000000  0.4996700000000 1.0
C      1  0.6249920000000  0.3462610000000  0.5901290000000 1.0
C      1  0.6257820000000  0.3472960000000  0.4078960000000 1.0
C      1  0.4515370000000  0.3474980000000  0.3522100000000 1.0
C      1  0.3445590000000  0.3465720000000  0.5003560000000 1.0
C      1  0.4521690000000  0.3470270000000  0.6478570000000 1.0
C      1  0.3750200000000  0.3462990000000  0.5902410000000 1.0
C      1  0.3742560000000  0.3472190000000  0.4079640000000 1.0
C      1  0.5485420000000  0.3473610000000  0.3523300000000 1.0
C      1  0.6554330000000  0.3466300000000  0.5003480000000 1.0
C      1  0.5478860000000  0.3471120000000  0.6479000000000 1.0
C      1  0.5495660000000  0.6461630000000  0.6532480000000 1.0
C      1  0.6610310000000  0.6466530000000  0.5002250000000 1.0
C      1  0.5503310000000  0.6467140000000  0.3470410000000 1.0
C      1  0.3699040000000  0.6469090000000  0.4048350000000 1.0
C      1  0.3697190000000  0.6462610000000  0.5941520000000 1.0
C      1  0.4504790000000  0.6461690000000  0.6532780000000 1.0
C      1  0.3390310000000  0.6467810000000  0.5002440000000 1.0
C      1  0.4497480000000  0.6466170000000  0.3470200000000 1.0
C      1  0.6301260000000  0.6467940000000  0.4047690000000 1.0
C      1  0.6303090000000  0.6462400000000  0.5940920000000 1.0
C      1  0.5515850000000  0.4269330000000  0.2833320000000 1.0
C      1  0.3090420000000  0.4264330000000  0.3832650000000 1.0
C      1  0.3313050000000  0.4290760000000  0.6437580000000 1.0
C      1  0.5853960000000  0.4269560000000  0.7061630000000 1.0
C      1  0.7225800000000  0.4265560000000  0.4823870000000 1.0
C      1  0.4484010000000  0.4266650000000  0.2831990000000 1.0
C      1  0.6909400000000  0.4265900000000  0.3832000000000 1.0
C      1  0.6686110000000  0.4291480000000  0.6438380000000 1.0
C      1  0.4146170000000  0.4270230000000  0.7061980000000 1.0
C      1  0.2773360000000  0.4262670000000  0.4823900000000 1.0
END
