TITL C-1525613-7943-2485 0.0600931121634952 3375 -8834.52007167223 0 0 60 (C5) n - 1
REM
REM in /home/nfs/bkarasulu/CARBON/AIRSS/Generating-Clusters/ReaxFF-fromJPCA2015/Units_Real/Try2-Higher-symm/Only-C60
REM
REM
REM
REM
REM
REM ./C.cell (863b2abdce7293c0672fb3ba77bf323a)
REM AIRSS Version 0.9.1 bugfix July 2018 build 013d7b7c2542+ Fri, 06 Jul 2018 19:26:36 +0100
REM compiler GCC version 9.2.1 20190827 (Red Hat 9.2.1-1)
REM options -cpp -mtune=generic -march=x86-64 -g -O0 -fpre-include=/usr/include/finclude/math-vector-fortran.h
REM seed -749620442 1727768716 241460917 1463587160 906541942 -1235172236 -108306608 -2097778810 1868671048 892458750 1636422933 10832710 -553241526 -2533147 2017933077 1521080922 -1286918915 -2042807342 1345970054 540015960 -1281623431 19981560 368493297 -2112528081 -214593524 1501986296 -1003943228 437773811 1273880207 968573843 427578878 -1040256326 -549519420
REM
CELL 1.54180   15.00000   15.00000   15.00000   90.00000   90.00000   90.00000
LATT -1
SFAC C  
C      1  0.4034010000000  0.6979390000000  0.3750540000000 1.0
C      1  0.3514580000000  0.6981050000000  0.5532920000000 1.0
C      1  0.5047260000000  0.6979900000000  0.6579230000000 1.0
C      1  0.6516090000000  0.6980800000000  0.5443720000000 1.0
C      1  0.5890820000000  0.6975200000000  0.3696220000000 1.0
C      1  0.4034010000000  0.3020610000000  0.3750540000000 1.0
C      1  0.3514580000000  0.3018950000000  0.5532920000000 1.0
C      1  0.5047260000000  0.3020100000000  0.6579230000000 1.0
C      1  0.6516090000000  0.3019200000000  0.5443720000000 1.0
C      1  0.5890820000000  0.3024800000000  0.3696220000000 1.0
C      1  0.7200420000000  0.4504140000000  0.4926370000000 1.0
C      1  0.5614880000000  0.4504900000000  0.2881900000000 1.0
C      1  0.3174440000000  0.4503170000000  0.3763200000000 1.0
C      1  0.3258330000000  0.4503350000000  0.6353430000000 1.0
C      1  0.5748630000000  0.4505030000000  0.7074640000000 1.0
C      1  0.7200420000000  0.5495860000000  0.4926370000000 1.0
C      1  0.5614880000000  0.5495100000000  0.2881900000000 1.0
C      1  0.3174440000000  0.5496830000000  0.3763200000000 1.0
C      1  0.3258330000000  0.5496650000000  0.6353430000000 1.0
C      1  0.5748630000000  0.5494970000000  0.7074640000000 1.0
C      1  0.6243530000000  0.3938480000000  0.3342840000000 1.0
C      1  0.3808370000000  0.3935120000000  0.3303330000000 1.0
C      1  0.3020670000000  0.3935210000000  0.5604730000000 1.0
C      1  0.4966940000000  0.3935780000000  0.7071720000000 1.0
C      1  0.6961340000000  0.3936010000000  0.5667880000000 1.0
C      1  0.6243530000000  0.6061520000000  0.3342840000000 1.0
C      1  0.3808370000000  0.6064880000000  0.3303330000000 1.0
C      1  0.3020670000000  0.6064790000000  0.5604730000000 1.0
C      1  0.4966940000000  0.6064220000000  0.7071720000000 1.0
C      1  0.6961340000000  0.6063990000000  0.5667880000000 1.0
C      1  0.5554460000000  0.4280480000000  0.5562610000000 1.0
C      1  0.5704680000000  0.4281440000000  0.4648050000000 1.0
C      1  0.4883260000000  0.4279580000000  0.4218950000000 1.0
C      1  0.4218040000000  0.4280780000000  0.4870160000000 1.0
C      1  0.4636640000000  0.4281750000000  0.5701210000000 1.0
C      1  0.5554460000000  0.5719520000000  0.5562610000000 1.0
C      1  0.5704680000000  0.5718560000000  0.4648050000000 1.0
C      1  0.4883260000000  0.5720420000000  0.4218950000000 1.0
C      1  0.4218040000000  0.5719220000000  0.4870160000000 1.0
C      1  0.4636640000000  0.5718250000000  0.5701210000000 1.0
C      1  0.4966230000000  0.7179980000000  0.3835940000000 1.0
C      1  0.3883480000000  0.7180720000000  0.4674810000000 1.0
C      1  0.4345120000000  0.7180880000000  0.5961920000000 1.0
C      1  0.5713380000000  0.7181850000000  0.5921750000000 1.0
C      1  0.6095180000000  0.7180920000000  0.4608210000000 1.0
C      1  0.4966230000000  0.2820020000000  0.3835940000000 1.0
C      1  0.3883480000000  0.2819280000000  0.4674810000000 1.0
C      1  0.4345120000000  0.2819120000000  0.5961920000000 1.0
C      1  0.5713380000000  0.2818150000000  0.5921750000000 1.0
C      1  0.6095180000000  0.2819080000000  0.4608210000000 1.0
C      1  0.6243980000000  0.4270320000000  0.6235740000000 1.0
C      1  0.6558710000000  0.4271550000000  0.4201520000000 1.0
C      1  0.4719680000000  0.4269590000000  0.3268940000000 1.0
C      1  0.3267120000000  0.4272900000000  0.4731360000000 1.0
C      1  0.4209740000000  0.4270810000000  0.6566180000000 1.0
C      1  0.6243980000000  0.5729680000000  0.6235740000000 1.0
C      1  0.6558710000000  0.5728450000000  0.4201520000000 1.0
C      1  0.4719680000000  0.5730410000000  0.3268940000000 1.0
C      1  0.3267120000000  0.5727100000000  0.4731360000000 1.0
C      1  0.4209740000000  0.5729190000000  0.6566180000000 1.0
END
