TITL C-1525613-7943-1821 0.130483700257509 3375 -9010.76775900551 0 0 60 (Cs) n - 1
REM
REM in /home/nfs/bkarasulu/CARBON/AIRSS/Generating-Clusters/ReaxFF-fromJPCA2015/Units_Real/Try2-Higher-symm/Only-C60
REM
REM
REM
REM
REM
REM ./C.cell (863b2abdce7293c0672fb3ba77bf323a)
REM AIRSS Version 0.9.1 bugfix July 2018 build 013d7b7c2542+ Fri, 06 Jul 2018 19:26:36 +0100
REM compiler GCC version 9.2.1 20190827 (Red Hat 9.2.1-1)
REM options -cpp -mtune=generic -march=x86-64 -g -O0 -fpre-include=/usr/include/finclude/math-vector-fortran.h
REM seed -1973138741 506544220 -1279805069 13665902 1311267747 1709113366 1121603419 534214315 1114806945 -123028233 -1778476746 -1418177425 1147841216 -590358912 -195551129 -1209049339 -741915714 -577413771 143286083 -693083582 -1783020225 1876835320 75268508 1928452291 -1230517322 -80732091 262940016 -2079044371 -1839542828 -1398073221 -216754710 -1703690103 303272101
REM
CELL 1.54180   15.00000   15.00000   15.00000   90.00000   90.00000   90.00000
LATT -1
SFAC C  
C      1  0.6733470000000  0.4548110000000  0.6032370000000 1.0
C      1  0.5944350000000  0.6477940000000  0.5986370000000 1.0
C      1  0.3891760000000  0.6363200000000  0.5981010000000 1.0
C      1  0.3355340000000  0.4365720000000  0.5989990000000 1.0
C      1  0.5096040000000  0.3208990000000  0.6035620000000 1.0
C      1  0.6733590000000  0.4548050000000  0.3967740000000 1.0
C      1  0.5944350000000  0.6477930000000  0.4013630000000 1.0
C      1  0.3891760000000  0.6363190000000  0.4018990000000 1.0
C      1  0.3355340000000  0.4365720000000  0.4010010000000 1.0
C      1  0.5096040000000  0.3209000000000  0.3964380000000 1.0
C      1  0.4512020000000  0.4348330000000  0.1831530000000 1.0
C      1  0.5494680000000  0.4379290000000  0.1824030000000 1.0
C      1  0.5758880000000  0.5327230000000  0.1821870000000 1.0
C      1  0.4943750000000  0.5872720000000  0.1837570000000 1.0
C      1  0.4171920000000  0.5267810000000  0.1842700000000 1.0
C      1  0.4512020000000  0.4348330000000  0.8168470000000 1.0
C      1  0.5494680000000  0.4379290000000  0.8175970000000 1.0
C      1  0.5758880000000  0.5327230000000  0.8178130000000 1.0
C      1  0.4943750000000  0.5872720000000  0.8162430000000 1.0
C      1  0.4171920000000  0.5267820000000  0.8157300000000 1.0
C      1  0.4049620000000  0.6207620000000  0.6934950000000 1.0
C      1  0.3558950000000  0.4483570000000  0.6945850000000 1.0
C      1  0.5052360000000  0.3499980000000  0.6969210000000 1.0
C      1  0.6459400000000  0.4612130000000  0.6969300000000 1.0
C      1  0.5838600000000  0.6287380000000  0.6945000000000 1.0
C      1  0.4049620000000  0.6207620000000  0.3065050000000 1.0
C      1  0.3558950000000  0.4483570000000  0.3054150000000 1.0
C      1  0.5052360000000  0.3499980000000  0.3030790000000 1.0
C      1  0.6459400000000  0.4612130000000  0.3030700000000 1.0
C      1  0.5838600000000  0.6287380000000  0.3055000000000 1.0
C      1  0.4456580000000  0.5649540000000  0.5493970000000 1.0
C      1  0.4203300000000  0.4649620000000  0.5501750000000 1.0
C      1  0.5099500000000  0.4056390000000  0.5517930000000 1.0
C      1  0.5911500000000  0.4764240000000  0.5515940000000 1.0
C      1  0.5459690000000  0.5718890000000  0.5499030000000 1.0
C      1  0.4456580000000  0.5649540000000  0.4506030000000 1.0
C      1  0.4203300000000  0.4649620000000  0.4498250000000 1.0
C      1  0.5099500000000  0.4056390000000  0.4482060000000 1.0
C      1  0.5911500000000  0.4764250000000  0.4484060000000 1.0
C      1  0.5459690000000  0.5718890000000  0.4500960000000 1.0
C      1  0.7478720000000  0.4172650000000  0.4499880000000 1.0
C      1  0.6464800000000  0.6995310000000  0.4567260000000 1.0
C      1  0.3538260000000  0.6993020000000  0.4578440000000 1.0
C      1  0.2643550000000  0.4237990000000  0.4579400000000 1.0
C      1  0.4958730000000  0.2387130000000  0.4502000000000 1.0
C      1  0.7478810000000  0.4172600000000  0.5500020000000 1.0
C      1  0.6464800000000  0.6995310000000  0.5432740000000 1.0
C      1  0.3538260000000  0.6993020000000  0.5421560000000 1.0
C      1  0.2643540000000  0.4237990000000  0.5420600000000 1.0
C      1  0.4958730000000  0.2387130000000  0.5498000000000 1.0
C      1  0.4935950000000  0.6376710000000  0.7328910000000 1.0
C      1  0.3676930000000  0.5385710000000  0.7325740000000 1.0
C      1  0.4231710000000  0.3899440000000  0.7352270000000 1.0
C      1  0.5827120000000  0.3965900000000  0.7360280000000 1.0
C      1  0.6252430000000  0.5497490000000  0.7355580000000 1.0
C      1  0.4935950000000  0.6376710000000  0.2671090000000 1.0
C      1  0.3676930000000  0.5385710000000  0.2674260000000 1.0
C      1  0.4231710000000  0.3899440000000  0.2647720000000 1.0
C      1  0.5827120000000  0.3965900000000  0.2639710000000 1.0
C      1  0.6252430000000  0.5497500000000  0.2644410000000 1.0
END
