TITL C-1525613-7943-1124 0.00194584554253678 3375 -9571.56121375943 0 0 60 (D10) n - 1
REM
REM in /home/nfs/bkarasulu/CARBON/AIRSS/Generating-Clusters/ReaxFF-fromJPCA2015/Units_Real/Try2-Higher-symm/Only-C60
REM
REM
REM
REM
REM
REM ./C.cell (863b2abdce7293c0672fb3ba77bf323a)
REM AIRSS Version 0.9.1 bugfix July 2018 build 013d7b7c2542+ Fri, 06 Jul 2018 19:26:36 +0100
REM compiler GCC version 9.2.1 20190827 (Red Hat 9.2.1-1)
REM options -cpp -mtune=generic -march=x86-64 -g -O0 -fpre-include=/usr/include/finclude/math-vector-fortran.h
REM seed -1048183826 -1932265601 1656364193 351141816 -1971285634 -1999114184 295210454 -1615382866 -77745369 361397271 1679653933 2023049402 2109994853 2121536850 -2039134718 115824676 -304625067 -118738678 -115715872 -1098715966 -2012224918 1783271381 -953895764 1013514752 194194170 1456908715 -1470199010 -1925877015 -992995257 929558367 -876446253 565858359 -1557405420
REM
CELL 1.54180   15.00000   15.00000   15.00000   90.00000   90.00000   90.00000
LATT -1
SFAC C  
C      1  0.2742750000000  0.4295180000000  0.5924670000000 1.0
C      1  0.2756520000000  0.5748430000000  0.5922500000000 1.0
C      1  0.3633360000000  0.6931100000000  0.5922860000000 1.0
C      1  0.5018880000000  0.7365680000000  0.5922940000000 1.0
C      1  0.6414270000000  0.6896600000000  0.5922970000000 1.0
C      1  0.7256080000000  0.5713620000000  0.5923050000000 1.0
C      1  0.7241530000000  0.4241520000000  0.5923110000000 1.0
C      1  0.6375870000000  0.3075630000000  0.5923210000000 1.0
C      1  0.4970820000000  0.2636110000000  0.5922690000000 1.0
C      1  0.3593580000000  0.3099700000000  0.5924700000000 1.0
C      1  0.7165450000000  0.6540040000000  0.4517930000000 1.0
C      1  0.7645760000000  0.4973580000000  0.4503500000000 1.0
C      1  0.7133670000000  0.3417330000000  0.4518050000000 1.0
C      1  0.5792100000000  0.2476540000000  0.4503530000000 1.0
C      1  0.4153980000000  0.2480600000000  0.4516640000000 1.0
C      1  0.2830090000000  0.3456690000000  0.4506310000000 1.0
C      1  0.2342240000000  0.5027480000000  0.4516350000000 1.0
C      1  0.2875990000000  0.6576190000000  0.4503170000000 1.0
C      1  0.4205050000000  0.7534610000000  0.4517720000000 1.0
C      1  0.5843160000000  0.7507550000000  0.4503450000000 1.0
C      1  0.5908040000000  0.3725100000000  0.6439930000000 1.0
C      1  0.4985050000000  0.3436020000000  0.6439570000000 1.0
C      1  0.4068470000000  0.3744660000000  0.6440820000000 1.0
C      1  0.3507690000000  0.4532350000000  0.6440950000000 1.0
C      1  0.3516650000000  0.5499420000000  0.6439680000000 1.0
C      1  0.4093180000000  0.6276000000000  0.6439740000000 1.0
C      1  0.5016140000000  0.6565080000000  0.6439410000000 1.0
C      1  0.5932850000000  0.6256780000000  0.6439320000000 1.0
C      1  0.6493780000000  0.5468840000000  0.6439520000000 1.0
C      1  0.6484430000000  0.4501740000000  0.6439800000000 1.0
C      1  0.4155300000000  0.2493170000000  0.5496300000000 1.0
C      1  0.2834450000000  0.3459940000000  0.5492010000000 1.0
C      1  0.2354120000000  0.5024780000000  0.5496040000000 1.0
C      1  0.2866980000000  0.6582830000000  0.5481530000000 1.0
C      1  0.4208350000000  0.7524000000000  0.5495950000000 1.0
C      1  0.5846710000000  0.7518220000000  0.5481660000000 1.0
C      1  0.7156010000000  0.6533390000000  0.5496130000000 1.0
C      1  0.7657040000000  0.4973510000000  0.5481700000000 1.0
C      1  0.7124780000000  0.3423920000000  0.5496250000000 1.0
C      1  0.5795310000000  0.2466120000000  0.5481880000000 1.0
C      1  0.3587810000000  0.3098250000000  0.4071570000000 1.0
C      1  0.2740040000000  0.4289970000000  0.4071430000000 1.0
C      1  0.2760100000000  0.5758530000000  0.4076320000000 1.0
C      1  0.3625290000000  0.6924260000000  0.4076550000000 1.0
C      1  0.5029630000000  0.7365450000000  0.4076460000000 1.0
C      1  0.6406120000000  0.6903250000000  0.4076590000000 1.0
C      1  0.7259570000000  0.5703590000000  0.4076560000000 1.0
C      1  0.7244620000000  0.4251640000000  0.4076600000000 1.0
C      1  0.6366830000000  0.3069940000000  0.4076880000000 1.0
C      1  0.4981700000000  0.2635350000000  0.4076570000000 1.0
C      1  0.5933410000000  0.6257020000000  0.3560090000000 1.0
C      1  0.6494060000000  0.5469000000000  0.3560060000000 1.0
C      1  0.6483920000000  0.4501850000000  0.3560270000000 1.0
C      1  0.5906920000000  0.3725720000000  0.3560910000000 1.0
C      1  0.4983870000000  0.3436480000000  0.3561200000000 1.0
C      1  0.4066180000000  0.3742310000000  0.3561240000000 1.0
C      1  0.3505480000000  0.4530420000000  0.3561120000000 1.0
C      1  0.3517610000000  0.5497660000000  0.3561000000000 1.0
C      1  0.4093900000000  0.6274540000000  0.3560750000000 1.0
C      1  0.5016450000000  0.6564720000000  0.3560280000000 1.0
END
