TITL C-1525613-7943-6429 1.69304292836038 3375 -8259.29093188557 0 0 60 (C5) n - 1
REM
REM in /home/nfs/bkarasulu/CARBON/AIRSS/Generating-Clusters/ReaxFF-fromJPCA2015/Units_Real/Try2-Higher-symm/Only-C60
REM
REM
REM
REM
REM
REM ./C.cell (863b2abdce7293c0672fb3ba77bf323a)
REM AIRSS Version 0.9.1 bugfix July 2018 build 013d7b7c2542+ Fri, 06 Jul 2018 19:26:36 +0100
REM compiler GCC version 9.2.1 20190827 (Red Hat 9.2.1-1)
REM options -cpp -mtune=generic -march=x86-64 -g -O0 -fpre-include=/usr/include/finclude/math-vector-fortran.h
REM seed 1855056443 -830166001 -593039953 -1128751545 -708031198 -1636860476 -1122297310 420479414 -1086343401 314362562 -2070719723 151357029 1341245981 229540075 -1982492950 1931289631 -1600470491 201828589 -170067942 162715701 635184014 -2120968329 -437428709 481084465 -565451691 2029175285 495751443 -2143996672 737297643 -1275953296 1534902609 -787736304 7736016
REM
CELL 1.54180   15.00000   15.00000   15.00000   90.00000   90.00000   90.00000
LATT -1
SFAC C  
C      1  0.6136940000000  0.4532490000000  0.2580080000000 1.0
C      1  0.3052610000000  0.4534270000000  0.3163720000000 1.0
C      1  0.2653650000000  0.4534730000000  0.6286740000000 1.0
C      1  0.5497530000000  0.4535510000000  0.7630200000000 1.0
C      1  0.7655760000000  0.4535600000000  0.5339800000000 1.0
C      1  0.3856520000000  0.4536350000000  0.2580050000000 1.0
C      1  0.6947490000000  0.4536600000000  0.3160340000000 1.0
C      1  0.7345390000000  0.4533940000000  0.6287150000000 1.0
C      1  0.4502340000000  0.4534270000000  0.7629510000000 1.0
C      1  0.2345320000000  0.4534730000000  0.5337960000000 1.0
C      1  0.3164610000000  0.5254860000000  0.6688820000000 1.0
C      1  0.6039240000000  0.5255330000000  0.7268230000000 1.0
C      1  0.7476650000000  0.5255530000000  0.4709000000000 1.0
C      1  0.5496880000000  0.5252720000000  0.2552510000000 1.0
C      1  0.2825580000000  0.5255880000000  0.3777330000000 1.0
C      1  0.6836820000000  0.5254800000000  0.6689310000000 1.0
C      1  0.3960340000000  0.5255240000000  0.7267390000000 1.0
C      1  0.2522890000000  0.5255260000000  0.4712410000000 1.0
C      1  0.4503590000000  0.5254720000000  0.2554300000000 1.0
C      1  0.7175660000000  0.5260790000000  0.3781210000000 1.0
C      1  0.6173380000000  0.3752070000000  0.4152110000000 1.0
C      1  0.4558320000000  0.3751230000000  0.3620830000000 1.0
C      1  0.3552770000000  0.3751650000000  0.4995790000000 1.0
C      1  0.4548000000000  0.3752030000000  0.6375360000000 1.0
C      1  0.6168520000000  0.3751830000000  0.5855230000000 1.0
C      1  0.3826630000000  0.3751780000000  0.4152730000000 1.0
C      1  0.5442040000000  0.3751620000000  0.3620860000000 1.0
C      1  0.6447090000000  0.3752160000000  0.4996880000000 1.0
C      1  0.5452130000000  0.3751720000000  0.6376120000000 1.0
C      1  0.3831850000000  0.3751930000000  0.5854790000000 1.0
C      1  0.7070450000000  0.3805510000000  0.3817770000000 1.0
C      1  0.4512230000000  0.3816610000000  0.2668040000000 1.0
C      1  0.2631320000000  0.3816280000000  0.4742900000000 1.0
C      1  0.4022810000000  0.3815500000000  0.7173050000000 1.0
C      1  0.6765040000000  0.3814690000000  0.6600840000000 1.0
C      1  0.2931340000000  0.3814290000000  0.3815970000000 1.0
C      1  0.5490070000000  0.3817940000000  0.2668830000000 1.0
C      1  0.7369990000000  0.3816720000000  0.4741360000000 1.0
C      1  0.5976420000000  0.3815340000000  0.7173030000000 1.0
C      1  0.3234810000000  0.3815820000000  0.6600630000000 1.0
C      1  0.6861630000000  0.5870040000000  0.5124570000000 1.0
C      1  0.5693330000000  0.5872190000000  0.3269850000000 1.0
C      1  0.3567950000000  0.5870270000000  0.3804430000000 1.0
C      1  0.3420390000000  0.5870220000000  0.5993350000000 1.0
C      1  0.5456820000000  0.5870110000000  0.6808290000000 1.0
C      1  0.3137830000000  0.5870060000000  0.5124880000000 1.0
C      1  0.4305690000000  0.5870290000000  0.3268270000000 1.0
C      1  0.6432480000000  0.5869080000000  0.3804980000000 1.0
C      1  0.6578190000000  0.5870150000000  0.5992720000000 1.0
C      1  0.4544170000000  0.5870140000000  0.6809010000000 1.0
C      1  0.4529190000000  0.6772830000000  0.3533180000000 1.0
C      1  0.3459910000000  0.6772590000000  0.4995090000000 1.0
C      1  0.4519000000000  0.6772120000000  0.6463150000000 1.0
C      1  0.6243030000000  0.6772350000000  0.5909020000000 1.0
C      1  0.6249340000000  0.6774540000000  0.4100390000000 1.0
C      1  0.5471720000000  0.6772010000000  0.3533330000000 1.0
C      1  0.6540020000000  0.6773040000000  0.4994710000000 1.0
C      1  0.5481040000000  0.6773140000000  0.6463230000000 1.0
C      1  0.3756840000000  0.6772270000000  0.5909100000000 1.0
C      1  0.3750420000000  0.6772220000000  0.4099230000000 1.0
END
