TITL C-1525613-7943-7061 0.0184826212284178 3375 -9044.38830873323 0 0 60 (D5h) n - 1
REM
REM in /home/nfs/bkarasulu/CARBON/AIRSS/Generating-Clusters/ReaxFF-fromJPCA2015/Units_Real/Try2-Higher-symm/Only-C60
REM
REM
REM
REM
REM
REM ./C.cell (863b2abdce7293c0672fb3ba77bf323a)
REM AIRSS Version 0.9.1 bugfix July 2018 build 013d7b7c2542+ Fri, 06 Jul 2018 19:26:36 +0100
REM compiler GCC version 9.2.1 20190827 (Red Hat 9.2.1-1)
REM options -cpp -mtune=generic -march=x86-64 -g -O0 -fpre-include=/usr/include/finclude/math-vector-fortran.h
REM seed 305671018 -1744255858 109274071 1163229257 911035671 417788997 -1487779131 -36915113 181855294 608382932 -483896773 -275501922 515242034 761530145 83838790 -1523760075 1752542898 -1027876594 200921028 1592448033 748213905 -1217343131 -1509092599 -1257600118 -451195418 -185104870 -809068540 916069721 -195250162 1922950797 -939766160 1358097989 -1807206907
REM
CELL 1.54180   15.00000   15.00000   15.00000   90.00000   90.00000   90.00000
LATT -1
SFAC C  
C      1  0.6700670000000  0.5486540000000  0.6509480000000 1.0
C      1  0.4089860000000  0.5486450000000  0.7083300000000 1.0
C      1  0.2738770000000  0.5486510000000  0.4778900000000 1.0
C      1  0.4513310000000  0.5485370000000  0.2781000000000 1.0
C      1  0.6959590000000  0.5484650000000  0.3851430000000 1.0
C      1  0.3299330000000  0.4513460000000  0.6509480000000 1.0
C      1  0.5910140000000  0.4513550000000  0.7083300000000 1.0
C      1  0.7261230000000  0.4513490000000  0.4778900000000 1.0
C      1  0.5486690000000  0.4514630000000  0.2781000000000 1.0
C      1  0.3040410000000  0.4515350000000  0.3851430000000 1.0
C      1  0.4983940000000  0.7479840000000  0.5879950000000 1.0
C      1  0.4157640000000  0.7479940000000  0.5255080000000 1.0
C      1  0.4496720000000  0.7479750000000  0.4275730000000 1.0
C      1  0.5532840000000  0.7479400000000  0.4295080000000 1.0
C      1  0.5833330000000  0.7479480000000  0.5286770000000 1.0
C      1  0.5016060000000  0.2520160000000  0.5879950000000 1.0
C      1  0.5842360000000  0.2520060000000  0.5255080000000 1.0
C      1  0.5503280000000  0.2520250000000  0.4275730000000 1.0
C      1  0.4467160000000  0.2520600000000  0.4295080000000 1.0
C      1  0.4166670000000  0.2520520000000  0.5286770000000 1.0
C      1  0.6626300000000  0.7040550000000  0.5555680000000 1.0
C      1  0.4973350000000  0.7039770000000  0.6715900000000 1.0
C      1  0.3358840000000  0.7041500000000  0.5505100000000 1.0
C      1  0.4013470000000  0.7042680000000  0.3591500000000 1.0
C      1  0.6033170000000  0.7042200000000  0.3624060000000 1.0
C      1  0.3373700000000  0.2959450000000  0.5555680000000 1.0
C      1  0.5026650000000  0.2960230000000  0.6715900000000 1.0
C      1  0.6641160000000  0.2958500000000  0.5505100000000 1.0
C      1  0.5986530000000  0.2957320000000  0.3591500000000 1.0
C      1  0.3966830000000  0.2957800000000  0.3624060000000 1.0
C      1  0.4997720000000  0.5800000000000  0.5806890000000 1.0
C      1  0.4232070000000  0.5800950000000  0.5248180000000 1.0
C      1  0.4527750000000  0.5802050000000  0.4347560000000 1.0
C      1  0.5475290000000  0.5802040000000  0.4349760000000 1.0
C      1  0.5765910000000  0.5800530000000  0.5251470000000 1.0
C      1  0.5002280000000  0.4200000000000  0.5806890000000 1.0
C      1  0.5767930000000  0.4199050000000  0.5248180000000 1.0
C      1  0.5472250000000  0.4197950000000  0.4347560000000 1.0
C      1  0.4524710000000  0.4197960000000  0.4349760000000 1.0
C      1  0.4234090000000  0.4199470000000  0.5251470000000 1.0
C      1  0.3933500000000  0.5994590000000  0.3525290000000 1.0
C      1  0.6072990000000  0.5993940000000  0.3529140000000 1.0
C      1  0.6730530000000  0.5992850000000  0.5566150000000 1.0
C      1  0.4996630000000  0.5993540000000  0.6821110000000 1.0
C      1  0.3266880000000  0.5994300000000  0.5560970000000 1.0
C      1  0.6066500000000  0.4005410000000  0.3525290000000 1.0
C      1  0.3927010000000  0.4006060000000  0.3529140000000 1.0
C      1  0.3269470000000  0.4007150000000  0.5566150000000 1.0
C      1  0.5003370000000  0.4006460000000  0.6821110000000 1.0
C      1  0.6733120000000  0.4005700000000  0.5560970000000 1.0
C      1  0.3301300000000  0.5486380000000  0.6506700000000 1.0
C      1  0.3044780000000  0.5486600000000  0.3852620000000 1.0
C      1  0.5487380000000  0.5484730000000  0.2785080000000 1.0
C      1  0.7257760000000  0.5485070000000  0.4780050000000 1.0
C      1  0.5907480000000  0.5486650000000  0.7080070000000 1.0
C      1  0.6698700000000  0.4513620000000  0.6506700000000 1.0
C      1  0.6955220000000  0.4513400000000  0.3852620000000 1.0
C      1  0.4512620000000  0.4515270000000  0.2785080000000 1.0
C      1  0.2742240000000  0.4514930000000  0.4780050000000 1.0
C      1  0.4092520000000  0.4513350000000  0.7080070000000 1.0
END
