TITL C-1525613-7943-50 -0.00108200650662309 3375 -9347.45139555897 0 0 60 (C5) n - 1
REM
REM in /home/nfs/bkarasulu/CARBON/AIRSS/Generating-Clusters/ReaxFF-fromJPCA2015/Units_Real/Try2-Higher-symm/Only-C60
REM
REM
REM
REM
REM
REM ./C.cell (863b2abdce7293c0672fb3ba77bf323a)
REM AIRSS Version 0.9.1 bugfix July 2018 build 013d7b7c2542+ Fri, 06 Jul 2018 19:26:36 +0100
REM compiler GCC version 9.2.1 20190827 (Red Hat 9.2.1-1)
REM options -cpp -mtune=generic -march=x86-64 -g -O0 -fpre-include=/usr/include/finclude/math-vector-fortran.h
REM seed -1672977089 403326934 -936877836 -1205861535 774866283 1503220634 159604969 1624717058 297007521 -2053827485 589123015 101363304 1914630590 -2122816508 -2000603781 886651188 1572509913 1714440062 1756866080 2129231989 -47594155 65991295 1744386411 1311687065 -775845335 238368130 1069002956 860755402 1405645336 -1424829536 1132762916 -1757288578 2064208972
REM
CELL 1.54180   15.00000   15.00000   15.00000   90.00000   90.00000   90.00000
LATT -1
SFAC C  
C      1  0.4524400000000  0.6844360000000  0.6918950000000 1.0
C      1  0.4525300000000  0.3744980000000  0.7346830000000 1.0
C      1  0.4525480000000  0.2379900000000  0.4531630000000 1.0
C      1  0.4524930000000  0.4635690000000  0.2363540000000 1.0
C      1  0.4524440000000  0.7394750000000  0.3839020000000 1.0
C      1  0.4517580000000  0.6853720000000  0.3063550000000 1.0
C      1  0.4518270000000  0.3731040000000  0.2638410000000 1.0
C      1  0.4518540000000  0.2361790000000  0.5476870000000 1.0
C      1  0.4518260000000  0.4638370000000  0.7656270000000 1.0
C      1  0.4517340000000  0.7414630000000  0.6164860000000 1.0
C      1  0.6658200000000  0.3552120000000  0.5458850000000 1.0
C      1  0.6658170000000  0.4116450000000  0.3764290000000 1.0
C      1  0.6657760000000  0.5902380000000  0.3777400000000 1.0
C      1  0.6657490000000  0.6441640000000  0.5480090000000 1.0
C      1  0.6658180000000  0.4989070000000  0.6519400000000 1.0
C      1  0.6633960000000  0.3562480000000  0.4530660000000 1.0
C      1  0.6634120000000  0.4109650000000  0.6222760000000 1.0
C      1  0.6633290000000  0.5887770000000  0.6224900000000 1.0
C      1  0.6633380000000  0.6439550000000  0.4534410000000 1.0
C      1  0.6633720000000  0.5002380000000  0.3487210000000 1.0
C      1  0.3287150000000  0.5012890000000  0.6580620000000 1.0
C      1  0.3286980000000  0.3500130000000  0.5500980000000 1.0
C      1  0.3286900000000  0.4059580000000  0.3728700000000 1.0
C      1  0.3286680000000  0.5917980000000  0.3713450000000 1.0
C      1  0.3286280000000  0.6507440000000  0.5476120000000 1.0
C      1  0.3300140000000  0.4976300000000  0.3425760000000 1.0
C      1  0.3300410000000  0.3495070000000  0.4535520000000 1.0
C      1  0.3300610000000  0.4093320000000  0.6286990000000 1.0
C      1  0.3299510000000  0.5944100000000  0.6260270000000 1.0
C      1  0.3300220000000  0.6489390000000  0.4491650000000 1.0
C      1  0.6147950000000  0.7269920000000  0.5500400000000 1.0
C      1  0.6148720000000  0.5225740000000  0.7313530000000 1.0
C      1  0.6149040000000  0.2869950000000  0.5929320000000 1.0
C      1  0.6148920000000  0.3458120000000  0.3260980000000 1.0
C      1  0.6148290000000  0.6177590000000  0.2995850000000 1.0
C      1  0.6129360000000  0.7261640000000  0.4524000000000 1.0
C      1  0.6129770000000  0.5246350000000  0.2702080000000 1.0
C      1  0.6130250000000  0.2891010000000  0.4055900000000 1.0
C      1  0.6130330000000  0.3450430000000  0.6714440000000 1.0
C      1  0.6129410000000  0.6151600000000  0.7003570000000 1.0
C      1  0.5495970000000  0.3712520000000  0.2582170000000 1.0
C      1  0.5495280000000  0.6901690000000  0.3028270000000 1.0
C      1  0.5495110000000  0.7462900000000  0.6199200000000 1.0
C      1  0.5495940000000  0.4620620000000  0.7713020000000 1.0
C      1  0.5496220000000  0.2302770000000  0.5477460000000 1.0
C      1  0.5481250000000  0.3692570000000  0.7397340000000 1.0
C      1  0.5480210000000  0.6875970000000  0.6984350000000 1.0
C      1  0.5480350000000  0.7466980000000  0.3828990000000 1.0
C      1  0.5480880000000  0.4648780000000  0.2291950000000 1.0
C      1  0.5481400000000  0.2316120000000  0.4497240000000 1.0
C      1  0.3903590000000  0.7252120000000  0.5457880000000 1.0
C      1  0.3904440000000  0.5260510000000  0.7283020000000 1.0
C      1  0.3904550000000  0.2908670000000  0.5953420000000 1.0
C      1  0.3904520000000  0.3446700000000  0.3305860000000 1.0
C      1  0.3904000000000  0.6130950000000  0.2999730000000 1.0
C      1  0.3919070000000  0.7231620000000  0.4513930000000 1.0
C      1  0.3919200000000  0.5227060000000  0.2726900000000 1.0
C      1  0.3919710000000  0.2908070000000  0.4081240000000 1.0
C      1  0.3919820000000  0.3479930000000  0.6705050000000 1.0
C      1  0.3918730000000  0.6152180000000  0.6972940000000 1.0
END
