TITL C-1525613-7943-706 0.0617256021997959 3375 -8786.26637205257 0 0 60 (C2) n - 1
REM
REM in /home/nfs/bkarasulu/CARBON/AIRSS/Generating-Clusters/ReaxFF-fromJPCA2015/Units_Real/Try2-Higher-symm/Only-C60
REM
REM
REM
REM
REM
REM ./C.cell (863b2abdce7293c0672fb3ba77bf323a)
REM AIRSS Version 0.9.1 bugfix July 2018 build 013d7b7c2542+ Fri, 06 Jul 2018 19:26:36 +0100
REM compiler GCC version 9.2.1 20190827 (Red Hat 9.2.1-1)
REM options -cpp -mtune=generic -march=x86-64 -g -O0 -fpre-include=/usr/include/finclude/math-vector-fortran.h
REM seed 523996207 -1799148752 280346935 409492180 1248715290 479367644 -331791235 -753826675 1517383716 -46322475 571472436 -1396751538 -1500529452 1279545038 1039623227 679400806 -1251849699 -2006104379 -1937568813 -148490604 -185182129 629646007 1614784222 230687190 2057048993 -2009900935 -1762400013 225100341 -1527899019 1661639432 104303955 596087692 -1089177303
REM
CELL 1.54180   15.00000   15.00000   15.00000   90.00000   90.00000   90.00000
LATT -1
SFAC C  
C      1  0.3579990000000  0.6763840000000  0.3725640000000 1.0
C      1  0.4877020000000  0.7244810000000  0.3753630000000 1.0
C      1  0.6233120000000  0.6876310000000  0.3766570000000 1.0
C      1  0.7110080000000  0.5811760000000  0.3743470000000 1.0
C      1  0.7183030000000  0.4411200000000  0.3783310000000 1.0
C      1  0.6405300000000  0.3255650000000  0.3753930000000 1.0
C      1  0.5122170000000  0.2766590000000  0.3777360000000 1.0
C      1  0.3772140000000  0.3121060000000  0.3774990000000 1.0
C      1  0.2901220000000  0.4189380000000  0.3739160000000 1.0
C      1  0.2827810000000  0.5578210000000  0.3777690000000 1.0
C      1  0.5551950000000  0.7041890000000  0.3273690000000 1.0
C      1  0.6665100000000  0.6334860000000  0.3250280000000 1.0
C      1  0.7141400000000  0.5109240000000  0.3275430000000 1.0
C      1  0.6777140000000  0.3841920000000  0.3272580000000 1.0
C      1  0.5765140000000  0.2998430000000  0.3256660000000 1.0
C      1  0.4449350000000  0.2948450000000  0.3280840000000 1.0
C      1  0.3337010000000  0.3656350000000  0.3252930000000 1.0
C      1  0.2864390000000  0.4885980000000  0.3264790000000 1.0
C      1  0.3220220000000  0.6156960000000  0.3268440000000 1.0
C      1  0.4234680000000  0.6998840000000  0.3240830000000 1.0
C      1  0.5847940000000  0.2874350000000  0.6101240000000 1.0
C      1  0.4439450000000  0.2796440000000  0.6039040000000 1.0
C      1  0.3243320000000  0.3534000000000  0.6100410000000 1.0
C      1  0.2705560000000  0.4829520000000  0.6077920000000 1.0
C      1  0.3053130000000  0.6241420000000  0.6091720000000 1.0
C      1  0.4112490000000  0.7151250000000  0.6122890000000 1.0
C      1  0.5562640000000  0.7208310000000  0.6054620000000 1.0
C      1  0.6753190000000  0.6465610000000  0.6099170000000 1.0
C      1  0.7303110000000  0.5171040000000  0.6070780000000 1.0
C      1  0.6940430000000  0.3761770000000  0.6062890000000 1.0
C      1  0.5585400000000  0.3544220000000  0.6722460000000 1.0
C      1  0.4619470000000  0.3483410000000  0.6696600000000 1.0
C      1  0.3794020000000  0.3987060000000  0.6731200000000 1.0
C      1  0.3433700000000  0.4887350000000  0.6735580000000 1.0
C      1  0.3679880000000  0.5821880000000  0.6752450000000 1.0
C      1  0.4414580000000  0.6444790000000  0.6767690000000 1.0
C      1  0.5378540000000  0.6508670000000  0.6716680000000 1.0
C      1  0.6204210000000  0.6001130000000  0.6724110000000 1.0
C      1  0.6568940000000  0.5104030000000  0.6715160000000 1.0
C      1  0.6327720000000  0.4168440000000  0.6707330000000 1.0
C      1  0.2792770000000  0.4057340000000  0.5511740000000 1.0
C      1  0.2700720000000  0.5575640000000  0.5470390000000 1.0
C      1  0.3467530000000  0.6854090000000  0.5470360000000 1.0
C      1  0.4814010000000  0.7376310000000  0.5482810000000 1.0
C      1  0.6311320000000  0.6976050000000  0.5487470000000 1.0
C      1  0.7213330000000  0.5947250000000  0.5512240000000 1.0
C      1  0.7320540000000  0.4417320000000  0.5466350000000 1.0
C      1  0.6483750000000  0.3122350000000  0.5503620000000 1.0
C      1  0.5208200000000  0.2628010000000  0.5491120000000 1.0
C      1  0.3686890000000  0.3019370000000  0.5484420000000 1.0
C      1  0.4826260000000  0.6800300000000  0.4678820000000 1.0
C      1  0.6027370000000  0.6463590000000  0.4673500000000 1.0
C      1  0.6679370000000  0.5694950000000  0.4682360000000 1.0
C      1  0.6742200000000  0.4540770000000  0.4683630000000 1.0
C      1  0.6109560000000  0.3603630000000  0.4686970000000 1.0
C      1  0.5152520000000  0.3239790000000  0.4685680000000 1.0
C      1  0.4005660000000  0.3535400000000  0.4676980000000 1.0
C      1  0.3333430000000  0.4323730000000  0.4681730000000 1.0
C      1  0.3259150000000  0.5415460000000  0.4682300000000 1.0
C      1  0.3879440000000  0.6432240000000  0.4665340000000 1.0
END
