TITL C-1525613-7943-406 0.0610436454663899 3375 -8840.6723868883 0 0 60 (C1) n - 1
REM
REM in /home/nfs/bkarasulu/CARBON/AIRSS/Generating-Clusters/ReaxFF-fromJPCA2015/Units_Real/Try2-Higher-symm/Only-C60
REM
REM
REM
REM
REM
REM ./C.cell (863b2abdce7293c0672fb3ba77bf323a)
REM AIRSS Version 0.9.1 bugfix July 2018 build 013d7b7c2542+ Fri, 06 Jul 2018 19:26:36 +0100
REM compiler GCC version 9.2.1 20190827 (Red Hat 9.2.1-1)
REM options -cpp -mtune=generic -march=x86-64 -g -O0 -fpre-include=/usr/include/finclude/math-vector-fortran.h
REM seed -2054195962 1153531661 1033995767 1986007802 -910777077 832234510 -644502630 306447209 944425545 347939531 -289800838 -1390673721 1198497221 -1169282763 -67833345 -1243278880 635764771 1532698573 -285665004 1639814507 -2129963692 -865091408 -144436679 1925921908 -1423195737 826075266 -835666530 -244138972 492040782 1154668218 460609024 -1548813636 483146869
REM
CELL 1.54180   15.00000   15.00000   15.00000   90.00000   90.00000   90.00000
LATT -1
SFAC C  
C      1  0.4502300000000  0.6499000000000  0.6792970000000 1.0
C      1  0.6286880000000  0.5929660000000  0.6786620000000 1.0
C      1  0.6277790000000  0.4074490000000  0.6761450000000 1.0
C      1  0.4517630000000  0.3482530000000  0.6795750000000 1.0
C      1  0.3409180000000  0.4991960000000  0.6783870000000 1.0
C      1  0.5497690000000  0.6496010000000  0.6795920000000 1.0
C      1  0.3710410000000  0.5933970000000  0.6785290000000 1.0
C      1  0.3718080000000  0.4070420000000  0.6789220000000 1.0
C      1  0.5484660000000  0.3490790000000  0.6768410000000 1.0
C      1  0.6593570000000  0.4988900000000  0.6788010000000 1.0
C      1  0.2741340000000  0.4757730000000  0.5198210000000 1.0
C      1  0.4065530000000  0.7067870000000  0.5193700000000 1.0
C      1  0.6688810000000  0.6506050000000  0.5202760000000 1.0
C      1  0.6906880000000  0.3893360000000  0.5202370000000 1.0
C      1  0.4559810000000  0.2798700000000  0.5210040000000 1.0
C      1  0.7236820000000  0.4757510000000  0.5201550000000 1.0
C      1  0.5912190000000  0.7016520000000  0.5197100000000 1.0
C      1  0.3293210000000  0.6531680000000  0.5203810000000 1.0
C      1  0.3051570000000  0.3869570000000  0.5189600000000 1.0
C      1  0.5470980000000  0.2823220000000  0.5213700000000 1.0
C      1  0.5488190000000  0.7184780000000  0.6072690000000 1.0
C      1  0.7250110000000  0.5205170000000  0.6072000000000 1.0
C      1  0.5892760000000  0.2992160000000  0.6037590000000 1.0
C      1  0.3325390000000  0.3504680000000  0.6069480000000 1.0
C      1  0.3044940000000  0.6142980000000  0.6065430000000 1.0
C      1  0.4516100000000  0.7185410000000  0.6070290000000 1.0
C      1  0.2747890000000  0.5211180000000  0.6063000000000 1.0
C      1  0.4113520000000  0.2934020000000  0.6069470000000 1.0
C      1  0.6626590000000  0.3532770000000  0.6030720000000 1.0
C      1  0.6955780000000  0.6135930000000  0.6070290000000 1.0
C      1  0.5837190000000  0.2731260000000  0.4277630000000 1.0
C      1  0.3126070000000  0.3491880000000  0.4240900000000 1.0
C      1  0.2949080000000  0.6383780000000  0.4252960000000 1.0
C      1  0.5682010000000  0.7304990000000  0.4249340000000 1.0
C      1  0.7450820000000  0.5089660000000  0.4275110000000 1.0
C      1  0.4228280000000  0.2685850000000  0.4254740000000 1.0
C      1  0.6885630000000  0.3518200000000  0.4276210000000 1.0
C      1  0.7048000000000  0.6384750000000  0.4245710000000 1.0
C      1  0.4353610000000  0.7314360000000  0.4243090000000 1.0
C      1  0.2535190000000  0.5082570000000  0.4250970000000 1.0
C      1  0.2234550000000  0.3765690000000  0.4039850000000 1.0
C      1  0.2727260000000  0.7272310000000  0.3938770000000 1.0
C      1  0.6550840000000  0.7616270000000  0.3962490000000 1.0
C      1  0.8128780000000  0.4436940000000  0.3953980000000 1.0
C      1  0.5358310000000  0.1950960000000  0.3978290000000 1.0
C      1  0.7809550000000  0.3749600000000  0.3981320000000 1.0
C      1  0.7248270000000  0.7291370000000  0.3927430000000 1.0
C      1  0.3479160000000  0.7621010000000  0.4026370000000 1.0
C      1  0.1825500000000  0.4492460000000  0.3953000000000 1.0
C      1  0.4597020000000  0.1841080000000  0.3940670000000 1.0
C      1  0.3433620000000  0.5009620000000  0.3721620000000 1.0
C      1  0.4520370000000  0.6453300000000  0.3726140000000 1.0
C      1  0.6285500000000  0.5914700000000  0.3720030000000 1.0
C      1  0.6262060000000  0.4088050000000  0.3731270000000 1.0
C      1  0.4520170000000  0.3517690000000  0.3719030000000 1.0
C      1  0.6588000000000  0.5014060000000  0.3736460000000 1.0
C      1  0.5482060000000  0.6456910000000  0.3727300000000 1.0
C      1  0.3725870000000  0.5903440000000  0.3730430000000 1.0
C      1  0.3751970000000  0.4090080000000  0.3709730000000 1.0
C      1  0.5488670000000  0.3518170000000  0.3727880000000 1.0
END
