TITL C-1525613-7943-759 0.0303734028040964 3375 -8863.91579553392 0 0 60 (Cs) n - 1
REM
REM in /home/nfs/bkarasulu/CARBON/AIRSS/Generating-Clusters/ReaxFF-fromJPCA2015/Units_Real/Try2-Higher-symm/Only-C60
REM
REM
REM
REM
REM
REM ./C.cell (863b2abdce7293c0672fb3ba77bf323a)
REM AIRSS Version 0.9.1 bugfix July 2018 build 013d7b7c2542+ Fri, 06 Jul 2018 19:26:36 +0100
REM compiler GCC version 9.2.1 20190827 (Red Hat 9.2.1-1)
REM options -cpp -mtune=generic -march=x86-64 -g -O0 -fpre-include=/usr/include/finclude/math-vector-fortran.h
REM seed 1540731936 -153951060 2133034224 745123526 -422860412 1739938962 -444593720 -1930548232 -1921326961 -466107065 -1573416872 -1285473946 1586984995 523029209 -278682377 1184719977 1750947005 443806074 -2100999083 -752407428 -895423823 -2085155207 -1077461527 805820988 -1293329504 -1725402676 -1400484742 -275153434 -1417981571 154432596 43285689 372159344 -1111974168
REM
CELL 1.54180   15.00000   15.00000   15.00000   90.00000   90.00000   90.00000
LATT -1
SFAC C  
C      1  0.5510340000000  0.7413610000000  0.3654540000000 1.0
C      1  0.7448940000000  0.5264030000000  0.3635990000000 1.0
C      1  0.6005260000000  0.2761120000000  0.3665530000000 1.0
C      1  0.3171730000000  0.3368970000000  0.3667480000000 1.0
C      1  0.2871910000000  0.6235400000000  0.3642030000000 1.0
C      1  0.4489660000000  0.7413610000000  0.3654540000000 1.0
C      1  0.2551060000000  0.5264030000000  0.3635990000000 1.0
C      1  0.3994740000000  0.2761110000000  0.3665530000000 1.0
C      1  0.6828270000000  0.3368970000000  0.3667490000000 1.0
C      1  0.7128090000000  0.6235400000000  0.3642030000000 1.0
C      1  0.5480710000000  0.6501650000000  0.3193270000000 1.0
C      1  0.6565140000000  0.5009750000000  0.3193470000000 1.0
C      1  0.5491090000000  0.3511040000000  0.3204390000000 1.0
C      1  0.3738700000000  0.4080610000000  0.3206490000000 1.0
C      1  0.3728820000000  0.5923570000000  0.3186080000000 1.0
C      1  0.4519290000000  0.6501650000000  0.3193270000000 1.0
C      1  0.3434870000000  0.5009750000000  0.3193470000000 1.0
C      1  0.4508920000000  0.3511040000000  0.3204390000000 1.0
C      1  0.6261300000000  0.4080610000000  0.3206490000000 1.0
C      1  0.6271180000000  0.5923570000000  0.3186080000000 1.0
C      1  0.3871680000000  0.7437320000000  0.5361700000000 1.0
C      1  0.6963980000000  0.6815640000000  0.5350440000000 1.0
C      1  0.7346000000000  0.3701110000000  0.5373310000000 1.0
C      1  0.4480260000000  0.2354500000000  0.5366000000000 1.0
C      1  0.2310160000000  0.4680710000000  0.5353380000000 1.0
C      1  0.6128320000000  0.7437320000000  0.5361700000000 1.0
C      1  0.3036030000000  0.6815630000000  0.5350450000000 1.0
C      1  0.2653990000000  0.3701110000000  0.5373310000000 1.0
C      1  0.5519740000000  0.2354500000000  0.5366000000000 1.0
C      1  0.7689850000000  0.4680710000000  0.5353380000000 1.0
C      1  0.4236280000000  0.2552470000000  0.4524990000000 1.0
C      1  0.2395700000000  0.4976730000000  0.4497070000000 1.0
C      1  0.4178800000000  0.7433080000000  0.4517770000000 1.0
C      1  0.7045880000000  0.6529830000000  0.4506000000000 1.0
C      1  0.7090580000000  0.3536800000000  0.4530600000000 1.0
C      1  0.5763720000000  0.2552460000000  0.4524990000000 1.0
C      1  0.7604320000000  0.4976730000000  0.4497060000000 1.0
C      1  0.5821200000000  0.7433080000000  0.4517770000000 1.0
C      1  0.2954110000000  0.6529850000000  0.4506000000000 1.0
C      1  0.2909410000000  0.3536790000000  0.4530600000000 1.0
C      1  0.5459250000000  0.7402260000000  0.6114610000000 1.0
C      1  0.7445470000000  0.5302310000000  0.6108610000000 1.0
C      1  0.6045260000000  0.2769260000000  0.6119790000000 1.0
C      1  0.3220110000000  0.3327260000000  0.6124610000000 1.0
C      1  0.2853710000000  0.6170630000000  0.6104170000000 1.0
C      1  0.4540750000000  0.7402260000000  0.6114620000000 1.0
C      1  0.2554530000000  0.5302310000000  0.6108620000000 1.0
C      1  0.3954740000000  0.2769260000000  0.6119790000000 1.0
C      1  0.6779890000000  0.3327260000000  0.6124610000000 1.0
C      1  0.7146290000000  0.6170620000000  0.6104160000000 1.0
C      1  0.2810630000000  0.6234400000000  0.7149100000000 1.0
C      1  0.5497940000000  0.7409560000000  0.7161170000000 1.0
C      1  0.7511590000000  0.5292040000000  0.7155850000000 1.0
C      1  0.6044340000000  0.2702790000000  0.7163820000000 1.0
C      1  0.3156940000000  0.3301560000000  0.7167750000000 1.0
C      1  0.7189370000000  0.6234400000000  0.7149100000000 1.0
C      1  0.4502060000000  0.7409560000000  0.7161170000000 1.0
C      1  0.2488410000000  0.5292040000000  0.7155850000000 1.0
C      1  0.3955670000000  0.2702790000000  0.7163820000000 1.0
C      1  0.6843050000000  0.3301560000000  0.7167750000000 1.0
END
