TITL C-1525613-7943-1882 0.103560246303392 3375 -8756.65251781815 0 0 60 (C1) n - 1
REM
REM in /home/nfs/bkarasulu/CARBON/AIRSS/Generating-Clusters/ReaxFF-fromJPCA2015/Units_Real/Try2-Higher-symm/Only-C60
REM
REM
REM
REM
REM
REM ./C.cell (863b2abdce7293c0672fb3ba77bf323a)
REM AIRSS Version 0.9.1 bugfix July 2018 build 013d7b7c2542+ Fri, 06 Jul 2018 19:26:36 +0100
REM compiler GCC version 9.2.1 20190827 (Red Hat 9.2.1-1)
REM options -cpp -mtune=generic -march=x86-64 -g -O0 -fpre-include=/usr/include/finclude/math-vector-fortran.h
REM seed 1405133634 1057137151 733113929 786343293 -1011090610 -1166780446 1099263530 1530963446 1911533621 -1437979620 1824550802 499891812 447065690 1990138091 955380505 -1523828921 1973831554 33745943 -1050592869 -565244298 1717482451 -1522166220 1696328790 1210493120 -537887634 -1442961116 1150043746 -1980317412 1769710276 1586923106 226084274 -1470247701 295808656
REM
CELL 1.54180   15.00000   15.00000   15.00000   90.00000   90.00000   90.00000
LATT -1
SFAC C  
C      1  0.2591980000000  0.5362740000000  0.5589750000000 1.0
C      1  0.3503840000000  0.5220850000000  0.6856940000000 1.0
C      1  0.4829510000000  0.5177700000000  0.7341510000000 1.0
C      1  0.6367170000000  0.5366510000000  0.7038370000000 1.0
C      1  0.7240310000000  0.5288640000000  0.5920450000000 1.0
C      1  0.7388990000000  0.5374670000000  0.4415330000000 1.0
C      1  0.6506190000000  0.5216210000000  0.3155430000000 1.0
C      1  0.5194150000000  0.5175760000000  0.2648580000000 1.0
C      1  0.3677480000000  0.5362710000000  0.2917130000000 1.0
C      1  0.2740570000000  0.5272070000000  0.4133850000000 1.0
C      1  0.6512350000000  0.5984090000000  0.5604580000000 1.0
C      1  0.6631420000000  0.6032170000000  0.4591350000000 1.0
C      1  0.6043640000000  0.5968970000000  0.3688290000000 1.0
C      1  0.5110690000000  0.5885150000000  0.3383340000000 1.0
C      1  0.4115790000000  0.6041850000000  0.3527470000000 1.0
C      1  0.3440670000000  0.5975210000000  0.4409220000000 1.0
C      1  0.3346390000000  0.6044820000000  0.5396350000000 1.0
C      1  0.3957520000000  0.5974740000000  0.6323110000000 1.0
C      1  0.4893120000000  0.5908400000000  0.6610230000000 1.0
C      1  0.5918660000000  0.6044200000000  0.6406130000000 1.0
C      1  0.4096650000000  0.3858680000000  0.2750920000000 1.0
C      1  0.3272820000000  0.3804690000000  0.3271750000000 1.0
C      1  0.2612130000000  0.3832570000000  0.5089000000000 1.0
C      1  0.3090500000000  0.3852400000000  0.5939750000000 1.0
C      1  0.3997830000000  0.3620380000000  0.7192380000000 1.0
C      1  0.5900960000000  0.3846980000000  0.7226250000000 1.0
C      1  0.6725260000000  0.3766170000000  0.6714630000000 1.0
C      1  0.7358900000000  0.3856940000000  0.4945690000000 1.0
C      1  0.6930610000000  0.3853370000000  0.4070380000000 1.0
C      1  0.6007360000000  0.3626410000000  0.2828470000000 1.0
C      1  0.6501340000000  0.7047920000000  0.4603970000000 1.0
C      1  0.5996870000000  0.7000390000000  0.3784350000000 1.0
C      1  0.5102700000000  0.6972480000000  0.3457950000000 1.0
C      1  0.4180280000000  0.7057210000000  0.3689890000000 1.0
C      1  0.3569800000000  0.6974780000000  0.4434410000000 1.0
C      1  0.3503090000000  0.7051030000000  0.5394210000000 1.0
C      1  0.4002750000000  0.6995610000000  0.6214290000000 1.0
C      1  0.4898980000000  0.6945460000000  0.6547040000000 1.0
C      1  0.5816610000000  0.7073240000000  0.6301910000000 1.0
C      1  0.6420230000000  0.7008100000000  0.5559540000000 1.0
C      1  0.4509710000000  0.2994370000000  0.6734100000000 1.0
C      1  0.5431290000000  0.3225020000000  0.6654470000000 1.0
C      1  0.6291250000000  0.3052770000000  0.6133350000000 1.0
C      1  0.6706540000000  0.3372910000000  0.5367630000000 1.0
C      1  0.6371370000000  0.3228970000000  0.3576610000000 1.0
C      1  0.5486300000000  0.3002330000000  0.3282290000000 1.0
C      1  0.4561280000000  0.3243720000000  0.3337280000000 1.0
C      1  0.3692200000000  0.3088620000000  0.3861530000000 1.0
C      1  0.3268390000000  0.3397430000000  0.4623110000000 1.0
C      1  0.3636270000000  0.3218800000000  0.6435500000000 1.0
C      1  0.6990560000000  0.4734280000000  0.6662130000000 1.0
C      1  0.7613500000000  0.4835290000000  0.5168340000000 1.0
C      1  0.7142950000000  0.4761470000000  0.3715630000000 1.0
C      1  0.5951620000000  0.4589990000000  0.2694020000000 1.0
C      1  0.4323010000000  0.4795340000000  0.2495610000000 1.0
C      1  0.3052300000000  0.4778110000000  0.3360600000000 1.0
C      1  0.2334100000000  0.4802500000000  0.4861380000000 1.0
C      1  0.2871830000000  0.4760130000000  0.6291560000000 1.0
C      1  0.4066190000000  0.4595480000000  0.7317920000000 1.0
C      1  0.5703210000000  0.4800180000000  0.7452740000000 1.0
END
