TITL C-1525613-7943-1250 -0.076395399238901 3375 -9002.28783872779 0 0 60 (C2) n - 1
REM
REM in /home/nfs/bkarasulu/CARBON/AIRSS/Generating-Clusters/ReaxFF-fromJPCA2015/Units_Real/Try2-Higher-symm/Only-C60
REM
REM
REM
REM
REM
REM ./C.cell (863b2abdce7293c0672fb3ba77bf323a)
REM AIRSS Version 0.9.1 bugfix July 2018 build 013d7b7c2542+ Fri, 06 Jul 2018 19:26:36 +0100
REM compiler GCC version 9.2.1 20190827 (Red Hat 9.2.1-1)
REM options -cpp -mtune=generic -march=x86-64 -g -O0 -fpre-include=/usr/include/finclude/math-vector-fortran.h
REM seed -320074478 -1513533028 -1552374153 630315065 1693396237 -75774397 621638773 2025715397 933715824 832483248 -1869345578 1262991432 -1015539157 -1808927927 182114105 379396940 753549538 447482417 435853706 -129424592 -1893630435 -1077059546 -1982698590 8972562 -1068552238 226099109 -418915353 -754492634 142099650 414161523 -486403694 -55060013 -1890449066
REM
CELL 1.54180   15.00000   15.00000   15.00000   90.00000   90.00000   90.00000
LATT -1
SFAC C  
C      1  0.3971840000000  0.6912790000000  0.6436130000000 1.0
C      1  0.3966960000000  0.7398640000000  0.5016240000000 1.0
C      1  0.3969410000000  0.6956610000000  0.3611920000000 1.0
C      1  0.4057480000000  0.5741300000000  0.2795440000000 1.0
C      1  0.3944950000000  0.4263310000000  0.2713440000000 1.0
C      1  0.3974170000000  0.3089170000000  0.3566710000000 1.0
C      1  0.3971020000000  0.2600720000000  0.4990630000000 1.0
C      1  0.3964850000000  0.3040000000000  0.6387010000000 1.0
C      1  0.4055570000000  0.4262930000000  0.7204410000000 1.0
C      1  0.3944110000000  0.5731110000000  0.7289310000000 1.0
C      1  0.3508640000000  0.4506240000000  0.6470420000000 1.0
C      1  0.3453090000000  0.5476620000000  0.6506310000000 1.0
C      1  0.3460650000000  0.6268120000000  0.5941340000000 1.0
C      1  0.3460860000000  0.6583590000000  0.5015420000000 1.0
C      1  0.3473080000000  0.6290710000000  0.4087340000000 1.0
C      1  0.3508070000000  0.5495810000000  0.3527040000000 1.0
C      1  0.3451980000000  0.4523350000000  0.3495090000000 1.0
C      1  0.3457880000000  0.3732190000000  0.4060840000000 1.0
C      1  0.3462940000000  0.3417170000000  0.4986820000000 1.0
C      1  0.3470420000000  0.3709860000000  0.5913870000000 1.0
C      1  0.5440940000000  0.7148460000000  0.5722070000000 1.0
C      1  0.5206440000000  0.7907920000000  0.4162510000000 1.0
C      1  0.5405670000000  0.6525480000000  0.3028960000000 1.0
C      1  0.5386860000000  0.4950250000000  0.2479830000000 1.0
C      1  0.5224100000000  0.3175500000000  0.2585870000000 1.0
C      1  0.5443340000000  0.2851760000000  0.4275850000000 1.0
C      1  0.5234990000000  0.2107210000000  0.5831380000000 1.0
C      1  0.5402230000000  0.3480490000000  0.6971920000000 1.0
C      1  0.5377900000000  0.5052460000000  0.7515480000000 1.0
C      1  0.5232000000000  0.6801840000000  0.7406980000000 1.0
C      1  0.6643170000000  0.4288280000000  0.3130840000000 1.0
C      1  0.6626400000000  0.3429870000000  0.3426700000000 1.0
C      1  0.6608250000000  0.2820920000000  0.5315780000000 1.0
C      1  0.6623690000000  0.3346090000000  0.6048070000000 1.0
C      1  0.6521720000000  0.4356310000000  0.6982610000000 1.0
C      1  0.6662120000000  0.5713040000000  0.6876620000000 1.0
C      1  0.6626820000000  0.6569460000000  0.6565180000000 1.0
C      1  0.6615530000000  0.7183990000000  0.4687840000000 1.0
C      1  0.6622760000000  0.6652010000000  0.3950350000000 1.0
C      1  0.6534230000000  0.5646650000000  0.3009530000000 1.0
C      1  0.6269370000000  0.6899810000000  0.5641460000000 1.0
C      1  0.6016210000000  0.7789200000000  0.4282610000000 1.0
C      1  0.6310790000000  0.6491440000000  0.3144430000000 1.0
C      1  0.6286690000000  0.4900400000000  0.2598620000000 1.0
C      1  0.6043290000000  0.3175600000000  0.2733290000000 1.0
C      1  0.6273580000000  0.3099170000000  0.4360820000000 1.0
C      1  0.5996380000000  0.2208530000000  0.5722540000000 1.0
C      1  0.6303320000000  0.3515320000000  0.6853740000000 1.0
C      1  0.6283470000000  0.5102830000000  0.7405050000000 1.0
C      1  0.6051950000000  0.6810490000000  0.7277350000000 1.0
C      1  0.4295620000000  0.2297680000000  0.5853030000000 1.0
C      1  0.4492720000000  0.3433870000000  0.7092230000000 1.0
C      1  0.4470270000000  0.4997410000000  0.7630720000000 1.0
C      1  0.4301510000000  0.6637610000000  0.7308420000000 1.0
C      1  0.4540710000000  0.7419070000000  0.5815840000000 1.0
C      1  0.4278860000000  0.7706290000000  0.4144570000000 1.0
C      1  0.4498470000000  0.6569500000000  0.2911270000000 1.0
C      1  0.4475850000000  0.4999430000000  0.2360210000000 1.0
C      1  0.4298010000000  0.3354560000000  0.2687390000000 1.0
C      1  0.4545770000000  0.2583580000000  0.4186290000000 1.0
END
