TITL C-1525613-7943-2722 -0.0557437667822996 3375 -8630.06657542699 0 0 60 (C1) n - 1
REM
REM in /home/nfs/bkarasulu/CARBON/AIRSS/Generating-Clusters/ReaxFF-fromJPCA2015/Units_Real/Try2-Higher-symm/Only-C60
REM
REM
REM
REM
REM
REM ./C.cell (863b2abdce7293c0672fb3ba77bf323a)
REM AIRSS Version 0.9.1 bugfix July 2018 build 013d7b7c2542+ Fri, 06 Jul 2018 19:26:36 +0100
REM compiler GCC version 9.2.1 20190827 (Red Hat 9.2.1-1)
REM options -cpp -mtune=generic -march=x86-64 -g -O0 -fpre-include=/usr/include/finclude/math-vector-fortran.h
REM seed 2144395291 399318003 -2139809432 -1096996204 420323265 1249179690 1706244749 928058693 1030915085 -1377958623 955050590 579088226 -1446339188 4561460 659261912 158712311 -1940843759 -1689929013 -1743344462 1752794875 1973461286 -1166009136 1912074176 830497904 -802303665 964099433 698956231 -1381563748 -1210520884 -1079601366 -508376237 -1683092437 2063943166
REM
CELL 1.54180   15.00000   15.00000   15.00000   90.00000   90.00000   90.00000
LATT -1
SFAC C  
C      1  0.4612920000000  0.3728530000000  0.3273880000000 1.0
C      1  0.4607240000000  0.2729360000000  0.5240650000000 1.0
C      1  0.4859350000000  0.2943240000000  0.6329120000000 1.0
C      1  0.4539570000000  0.4483920000000  0.6916320000000 1.0
C      1  0.4686840000000  0.5564640000000  0.7223300000000 1.0
C      1  0.4513800000000  0.6738940000000  0.6007250000000 1.0
C      1  0.4533040000000  0.7265540000000  0.5008950000000 1.0
C      1  0.4799770000000  0.7050060000000  0.3949610000000 1.0
C      1  0.4427390000000  0.5488870000000  0.2934410000000 1.0
C      1  0.4417140000000  0.4452150000000  0.2545850000000 1.0
C      1  0.5293560000000  0.4254000000000  0.2195950000000 1.0
C      1  0.5495300000000  0.3616850000000  0.3451970000000 1.0
C      1  0.5291780000000  0.2366890000000  0.4699910000000 1.0
C      1  0.5794970000000  0.2692420000000  0.6325550000000 1.0
C      1  0.5159960000000  0.3905100000000  0.6663190000000 1.0
C      1  0.5522000000000  0.5580750000000  0.7670720000000 1.0
C      1  0.5145990000000  0.6242090000000  0.6480740000000 1.0
C      1  0.5250490000000  0.7718110000000  0.5405720000000 1.0
C      1  0.5717070000000  0.7040230000000  0.3782340000000 1.0
C      1  0.5195060000000  0.5935290000000  0.3154360000000 1.0
C      1  0.3353580000000  0.5054220000000  0.7323900000000 1.0
C      1  0.3259800000000  0.6729190000000  0.7330920000000 1.0
C      1  0.3105960000000  0.7259590000000  0.5669250000000 1.0
C      1  0.3195120000000  0.7422820000000  0.3939550000000 1.0
C      1  0.3229830000000  0.6777480000000  0.3205870000000 1.0
C      1  0.3082310000000  0.5092750000000  0.2689110000000 1.0
C      1  0.3031240000000  0.3403560000000  0.2770310000000 1.0
C      1  0.3580570000000  0.2876010000000  0.4314210000000 1.0
C      1  0.3167390000000  0.2696110000000  0.6068720000000 1.0
C      1  0.3188570000000  0.3321350000000  0.6827510000000 1.0
C      1  0.6416600000000  0.3578070000000  0.3569480000000 1.0
C      1  0.6257700000000  0.2192490000000  0.4463820000000 1.0
C      1  0.6703250000000  0.2760720000000  0.6033920000000 1.0
C      1  0.6190160000000  0.4135830000000  0.6751650000000 1.0
C      1  0.6413800000000  0.5438380000000  0.7823790000000 1.0
C      1  0.6122900000000  0.6294150000000  0.6366800000000 1.0
C      1  0.6131900000000  0.7888750000000  0.5620290000000 1.0
C      1  0.6619300000000  0.7116510000000  0.4116800000000 1.0
C      1  0.6321660000000  0.5834370000000  0.3159300000000 1.0
C      1  0.6181670000000  0.4215670000000  0.2315500000000 1.0
C      1  0.6807160000000  0.4814490000000  0.7120710000000 1.0
C      1  0.6733620000000  0.5771850000000  0.6934800000000 1.0
C      1  0.6606310000000  0.7026650000000  0.5934610000000 1.0
C      1  0.6807040000000  0.7397660000000  0.5086000000000 1.0
C      1  0.6877220000000  0.6347870000000  0.3644530000000 1.0
C      1  0.6891940000000  0.5122560000000  0.3088080000000 1.0
C      1  0.6923210000000  0.4208150000000  0.2911750000000 1.0
C      1  0.6867360000000  0.2902500000000  0.4149980000000 1.0
C      1  0.6940300000000  0.2543430000000  0.5033800000000 1.0
C      1  0.6796740000000  0.3599950000000  0.6465830000000 1.0
C      1  0.4009340000000  0.7311620000000  0.3414410000000 1.0
C      1  0.3463750000000  0.5834580000000  0.3046570000000 1.0
C      1  0.3338170000000  0.4251530000000  0.2385650000000 1.0
C      1  0.3728410000000  0.3188670000000  0.3497310000000 1.0
C      1  0.3635300000000  0.2593150000000  0.5167560000000 1.0
C      1  0.3869400000000  0.2676700000000  0.6701510000000 1.0
C      1  0.3575650000000  0.4251010000000  0.6980630000000 1.0
C      1  0.3656100000000  0.5887470000000  0.7580830000000 1.0
C      1  0.3596930000000  0.6928390000000  0.6357360000000 1.0
C      1  0.3459520000000  0.7456790000000  0.4877590000000 1.0
END
