TITL C-1525613-7943-7811 0.0265641086257866 3375 -8329.32060453369 0 0 60 (D5) n - 1
REM
REM in /home/nfs/bkarasulu/CARBON/AIRSS/Generating-Clusters/ReaxFF-fromJPCA2015/Units_Real/Try2-Higher-symm/Only-C60
REM
REM
REM
REM
REM
REM ./C.cell (863b2abdce7293c0672fb3ba77bf323a)
REM AIRSS Version 0.9.1 bugfix July 2018 build 013d7b7c2542+ Fri, 06 Jul 2018 19:26:36 +0100
REM compiler GCC version 9.2.1 20190827 (Red Hat 9.2.1-1)
REM options -cpp -mtune=generic -march=x86-64 -g -O0 -fpre-include=/usr/include/finclude/math-vector-fortran.h
REM seed 905389294 1141293007 74590708 -2094229160 52168104 46309618 510378406 -1827432996 -430159062 -1000503444 1403444302 -2050282385 1314365493 1202903818 -14477949 -694773980 -198174596 1247532099 635409880 -1622587806 1215151994 -347724809 -1111438404 -1552396928 1662179413 -1111333858 756876028 -400984606 1906198787 -2141858888 -81085468 1320378106 1050337418
REM
CELL 1.54180   15.00000   15.00000   15.00000   90.00000   90.00000   90.00000
LATT -1
SFAC C  
C      1  0.6683430000000  0.5874130000000  0.3488350000000 1.0
C      1  0.4682740000000  0.6873470000000  0.3485030000000 1.0
C      1  0.3118480000000  0.5284070000000  0.3485550000000 1.0
C      1  0.4150580000000  0.3309190000000  0.3483830000000 1.0
C      1  0.6357880000000  0.3672740000000  0.3482980000000 1.0
C      1  0.3316600000000  0.5874100000000  0.6511650000000 1.0
C      1  0.5317250000000  0.6873480000000  0.6514950000000 1.0
C      1  0.6881510000000  0.5284080000000  0.6514440000000 1.0
C      1  0.5849410000000  0.3309240000000  0.6516160000000 1.0
C      1  0.3642120000000  0.3672760000000  0.6516990000000 1.0
C      1  0.4373820000000  0.4245230000000  0.3791620000000 1.0
C      1  0.5540260000000  0.4174050000000  0.3764500000000 1.0
C      1  0.5953180000000  0.5243500000000  0.3786850000000 1.0
C      1  0.5048540000000  0.5985220000000  0.3782470000000 1.0
C      1  0.4079330000000  0.5359440000000  0.3789580000000 1.0
C      1  0.5626170000000  0.4245230000000  0.6208340000000 1.0
C      1  0.4459670000000  0.4174170000000  0.6235430000000 1.0
C      1  0.4046880000000  0.5243450000000  0.6213190000000 1.0
C      1  0.4951120000000  0.5985260000000  0.6217460000000 1.0
C      1  0.5920700000000  0.5359450000000  0.6210310000000 1.0
C      1  0.4505150000000  0.7589850000000  0.4969030000000 1.0
C      1  0.2370760000000  0.5335270000000  0.4964620000000 1.0
C      1  0.3879670000000  0.2596550000000  0.4973430000000 1.0
C      1  0.6922430000000  0.3195910000000  0.4964500000000 1.0
C      1  0.7312880000000  0.6270010000000  0.4969250000000 1.0
C      1  0.5494800000000  0.7589650000000  0.5030840000000 1.0
C      1  0.7629200000000  0.5335290000000  0.5035410000000 1.0
C      1  0.6120340000000  0.2596520000000  0.5026590000000 1.0
C      1  0.3077580000000  0.3195910000000  0.5035520000000 1.0
C      1  0.2687090000000  0.6270050000000  0.5030680000000 1.0
C      1  0.6000870000000  0.7105610000000  0.4352730000000 1.0
C      1  0.3303410000000  0.6601550000000  0.4352310000000 1.0
C      1  0.2953280000000  0.3879450000000  0.4355970000000 1.0
C      1  0.5430830000000  0.2698380000000  0.4337570000000 1.0
C      1  0.7309630000000  0.4705500000000  0.4363420000000 1.0
C      1  0.3999300000000  0.7105540000000  0.5647180000000 1.0
C      1  0.6696760000000  0.6601620000000  0.5647820000000 1.0
C      1  0.7046720000000  0.3879470000000  0.5644020000000 1.0
C      1  0.4569170000000  0.2698380000000  0.5662420000000 1.0
C      1  0.2690480000000  0.4705460000000  0.5636460000000 1.0
C      1  0.3138360000000  0.6589470000000  0.5846180000000 1.0
C      1  0.2905840000000  0.3727440000000  0.5838620000000 1.0
C      1  0.5560890000000  0.2629850000000  0.5852100000000 1.0
C      1  0.7438550000000  0.4806570000000  0.5844180000000 1.0
C      1  0.5942880000000  0.7261940000000  0.5842420000000 1.0
C      1  0.6861750000000  0.6589510000000  0.4153770000000 1.0
C      1  0.7094140000000  0.3727400000000  0.4161370000000 1.0
C      1  0.4439100000000  0.2629850000000  0.4147890000000 1.0
C      1  0.2561440000000  0.4806590000000  0.4155820000000 1.0
C      1  0.4057070000000  0.7262010000000  0.4157650000000 1.0
C      1  0.6210180000000  0.4304590000000  0.5387140000000 1.0
C      1  0.6040060000000  0.5935660000000  0.5378560000000 1.0
C      1  0.4434770000000  0.6274730000000  0.5385220000000 1.0
C      1  0.3619200000000  0.4849250000000  0.5379030000000 1.0
C      1  0.4691380000000  0.3621340000000  0.5383990000000 1.0
C      1  0.3789800000000  0.4304600000000  0.4612880000000 1.0
C      1  0.3960070000000  0.5935570000000  0.4621670000000 1.0
C      1  0.5565030000000  0.6274930000000  0.4615030000000 1.0
C      1  0.6380840000000  0.4849100000000  0.4620990000000 1.0
C      1  0.5308630000000  0.3621370000000  0.4616040000000 1.0
END
