TITL C-1525613-7943-520 0.00351435717486615 3375 -8930.66246086909 0 0 60 (C1) n - 1
REM
REM in /home/nfs/bkarasulu/CARBON/AIRSS/Generating-Clusters/ReaxFF-fromJPCA2015/Units_Real/Try2-Higher-symm/Only-C60
REM
REM
REM
REM
REM
REM ./C.cell (863b2abdce7293c0672fb3ba77bf323a)
REM AIRSS Version 0.9.1 bugfix July 2018 build 013d7b7c2542+ Fri, 06 Jul 2018 19:26:36 +0100
REM compiler GCC version 9.2.1 20190827 (Red Hat 9.2.1-1)
REM options -cpp -mtune=generic -march=x86-64 -g -O0 -fpre-include=/usr/include/finclude/math-vector-fortran.h
REM seed 793435475 -988646869 -43809494 -908136 -2022793738 1958221805 495948878 -1483639656 176048669 1469941004 1244714008 789898344 -1062543827 -1556374320 1331742968 1967138466 -1783518688 1704748891 -1618272505 822224452 -110235041 109291764 -1496676368 1695033397 -1046039624 1960343426 982420391 1633247033 -14859821 -1880290519 -1309644502 392184578 935237981
REM
CELL 1.54180   15.00000   15.00000   15.00000   90.00000   90.00000   90.00000
LATT -1
SFAC C  
C      1  0.3545270000000  0.2537010000000  0.5453270000000 1.0
C      1  0.3778800000000  0.3731070000000  0.2904450000000 1.0
C      1  0.3664410000000  0.6584070000000  0.3195140000000 1.0
C      1  0.3675790000000  0.7155710000000  0.6005460000000 1.0
C      1  0.3780140000000  0.4676200000000  0.7397880000000 1.0
C      1  0.3506680000000  0.2575080000000  0.4462760000000 1.0
C      1  0.3786710000000  0.3748650000000  0.7097710000000 1.0
C      1  0.3688720000000  0.6587900000000  0.6803570000000 1.0
C      1  0.3664100000000  0.7145390000000  0.4000700000000 1.0
C      1  0.3749820000000  0.4653660000000  0.2571500000000 1.0
C      1  0.3295960000000  0.4020250000000  0.6274990000000 1.0
C      1  0.3089860000000  0.3476580000000  0.4507640000000 1.0
C      1  0.3266950000000  0.4945820000000  0.3388340000000 1.0
C      1  0.3243940000000  0.6415230000000  0.4518410000000 1.0
C      1  0.3233700000000  0.5866930000000  0.6290440000000 1.0
C      1  0.3315100000000  0.4030910000000  0.3744570000000 1.0
C      1  0.3159880000000  0.3457900000000  0.5499590000000 1.0
C      1  0.3268640000000  0.4950000000000  0.6595900000000 1.0
C      1  0.3251320000000  0.6424570000000  0.5486620000000 1.0
C      1  0.3222440000000  0.5864840000000  0.3712730000000 1.0
C      1  0.4613390000000  0.7266310000000  0.3893650000000 1.0
C      1  0.4664070000000  0.6728080000000  0.6860400000000 1.0
C      1  0.4785360000000  0.3760500000000  0.7133850000000 1.0
C      1  0.4498150000000  0.2471560000000  0.4433930000000 1.0
C      1  0.4720020000000  0.4620740000000  0.2409150000000 1.0
C      1  0.4640660000000  0.7284560000000  0.6106120000000 1.0
C      1  0.4651600000000  0.6704710000000  0.3140510000000 1.0
C      1  0.4782340000000  0.3726740000000  0.2818990000000 1.0
C      1  0.4520510000000  0.2330060000000  0.5401460000000 1.0
C      1  0.4747460000000  0.4647930000000  0.7514620000000 1.0
C      1  0.6878280000000  0.6548210000000  0.5469900000000 1.0
C      1  0.6921700000000  0.5034990000000  0.6541340000000 1.0
C      1  0.6804440000000  0.3492610000000  0.5462910000000 1.0
C      1  0.6813660000000  0.4130370000000  0.3766210000000 1.0
C      1  0.6971800000000  0.5975560000000  0.3716750000000 1.0
C      1  0.6875380000000  0.6542920000000  0.4494060000000 1.0
C      1  0.7073590000000  0.5015640000000  0.3471020000000 1.0
C      1  0.6809720000000  0.3476240000000  0.4496140000000 1.0
C      1  0.6695740000000  0.4166970000000  0.6159500000000 1.0
C      1  0.6911680000000  0.5975250000000  0.6251530000000 1.0
C      1  0.5355690000000  0.6050600000000  0.3006740000000 1.0
C      1  0.5316300000000  0.7364490000000  0.5454570000000 1.0
C      1  0.5419260000000  0.5306740000000  0.7428300000000 1.0
C      1  0.5226020000000  0.2781050000000  0.5897070000000 1.0
C      1  0.5209040000000  0.3898050000000  0.3591580000000 1.0
C      1  0.5388790000000  0.6189070000000  0.7135810000000 1.0
C      1  0.5299500000000  0.7355390000000  0.4522350000000 1.0
C      1  0.5401660000000  0.5058310000000  0.2974090000000 1.0
C      1  0.5168680000000  0.3151240000000  0.4217500000000 1.0
C      1  0.5162830000000  0.3605280000000  0.6344570000000 1.0
C      1  0.6023830000000  0.3594040000000  0.6632360000000 1.0
C      1  0.6112580000000  0.2962370000000  0.4019440000000 1.0
C      1  0.6392800000000  0.5124830000000  0.2757790000000 1.0
C      1  0.6286650000000  0.7345250000000  0.4489400000000 1.0
C      1  0.6375830000000  0.6213460000000  0.7048290000000 1.0
C      1  0.6048140000000  0.3652070000000  0.3300340000000 1.0
C      1  0.6209780000000  0.2872590000000  0.5965700000000 1.0
C      1  0.6398560000000  0.5281400000000  0.7345080000000 1.0
C      1  0.6293870000000  0.7350850000000  0.5465050000000 1.0
C      1  0.6342360000000  0.6095160000000  0.2950290000000 1.0
END
