TITL C-1525613-7943-4969 -0.0193916092907515 3375 -8867.29992788304 0 0 60 (Cs) n - 1
REM
REM in /home/nfs/bkarasulu/CARBON/AIRSS/Generating-Clusters/ReaxFF-fromJPCA2015/Units_Real/Try2-Higher-symm/Only-C60
REM
REM
REM
REM
REM
REM ./C.cell (863b2abdce7293c0672fb3ba77bf323a)
REM AIRSS Version 0.9.1 bugfix July 2018 build 013d7b7c2542+ Fri, 06 Jul 2018 19:26:36 +0100
REM compiler GCC version 9.2.1 20190827 (Red Hat 9.2.1-1)
REM options -cpp -mtune=generic -march=x86-64 -g -O0 -fpre-include=/usr/include/finclude/math-vector-fortran.h
REM seed -1782402787 -1673696420 -797168934 -85317114 -641598689 -16731245 331987519 -2135860836 1414755920 -360417269 -2010811305 1532381755 -1338802850 -1441560765 64922578 935179634 1149760886 -2095787567 -1177907178 -1131293036 778145268 -2061216917 323339830 548673302 780512216 834510693 -156916448 27565068 -1308321412 216530706 -908571586 -459682804 485983396
REM
CELL 1.54180   15.00000   15.00000   15.00000   90.00000   90.00000   90.00000
LATT -1
SFAC C  
C      1  0.6416330000000  0.2970040000000  0.4679870000000 1.0
C      1  0.5673110000000  0.3086710000000  0.5863340000000 1.0
C      1  0.4162110000000  0.3233900000000  0.6037620000000 1.0
C      1  0.3617400000000  0.2811830000000  0.4523570000000 1.0
C      1  0.5092860000000  0.3218400000000  0.3828380000000 1.0
C      1  0.6416220000000  0.7030080000000  0.4680040000000 1.0
C      1  0.5672900000000  0.6913790000000  0.5863220000000 1.0
C      1  0.4162560000000  0.6765980000000  0.6037950000000 1.0
C      1  0.3617600000000  0.7188120000000  0.4523520000000 1.0
C      1  0.5092720000000  0.6781110000000  0.3828330000000 1.0
C      1  0.6832870000000  0.4463710000000  0.4749660000000 1.0
C      1  0.5868300000000  0.4516410000000  0.6935630000000 1.0
C      1  0.3392830000000  0.4515930000000  0.6456250000000 1.0
C      1  0.3375930000000  0.4426880000000  0.4117660000000 1.0
C      1  0.5383780000000  0.4486640000000  0.3048880000000 1.0
C      1  0.6833050000000  0.5536250000000  0.4749650000000 1.0
C      1  0.5868370000000  0.5483500000000  0.6935580000000 1.0
C      1  0.3393140000000  0.5484280000000  0.6456440000000 1.0
C      1  0.3375170000000  0.5573230000000  0.4117070000000 1.0
C      1  0.5383880000000  0.5513690000000  0.3049270000000 1.0
C      1  0.4993850000000  0.3118750000000  0.6567110000000 1.0
C      1  0.3399930000000  0.3057350000000  0.5442020000000 1.0
C      1  0.4123130000000  0.3055240000000  0.3709770000000 1.0
C      1  0.6064930000000  0.3048020000000  0.3798520000000 1.0
C      1  0.6637370000000  0.3024230000000  0.5588550000000 1.0
C      1  0.4993460000000  0.6881160000000  0.6566940000000 1.0
C      1  0.3400270000000  0.6942950000000  0.5442240000000 1.0
C      1  0.4123040000000  0.6944710000000  0.3709590000000 1.0
C      1  0.6064910000000  0.6951900000000  0.3798480000000 1.0
C      1  0.6637250000000  0.6975530000000  0.5588530000000 1.0
C      1  0.6202620000000  0.6070300000000  0.3310390000000 1.0
C      1  0.6989160000000  0.6049620000000  0.5604640000000 1.0
C      1  0.5044060000000  0.6006520000000  0.7022240000000 1.0
C      1  0.3015470000000  0.6029840000000  0.5708020000000 1.0
C      1  0.3778520000000  0.6086350000000  0.3332170000000 1.0
C      1  0.6202050000000  0.3929910000000  0.3310840000000 1.0
C      1  0.6989090000000  0.3950310000000  0.5604580000000 1.0
C      1  0.5044030000000  0.3993560000000  0.7022180000000 1.0
C      1  0.3016060000000  0.3970080000000  0.5708140000000 1.0
C      1  0.3778640000000  0.3913670000000  0.3332480000000 1.0
C      1  0.4464500000000  0.5998450000000  0.5510810000000 1.0
C      1  0.4247930000000  0.5727970000000  0.4608820000000 1.0
C      1  0.5120000000000  0.5825740000000  0.4135540000000 1.0
C      1  0.5768560000000  0.5495310000000  0.4866660000000 1.0
C      1  0.5404530000000  0.6019630000000  0.5593240000000 1.0
C      1  0.4464600000000  0.4001400000000  0.5510150000000 1.0
C      1  0.4248050000000  0.4271440000000  0.4608480000000 1.0
C      1  0.5120270000000  0.4174130000000  0.4135420000000 1.0
C      1  0.5768640000000  0.4504770000000  0.4866540000000 1.0
C      1  0.5404330000000  0.3980150000000  0.5593310000000 1.0
C      1  0.4208560000000  0.4510520000000  0.7065400000000 1.0
C      1  0.2775450000000  0.4520240000000  0.4955720000000 1.0
C      1  0.4383040000000  0.4513260000000  0.2861090000000 1.0
C      1  0.6846630000000  0.4511400000000  0.3720200000000 1.0
C      1  0.6716110000000  0.4506950000000  0.6358330000000 1.0
C      1  0.4208390000000  0.5489540000000  0.7065500000000 1.0
C      1  0.2775530000000  0.5479990000000  0.4955460000000 1.0
C      1  0.4383170000000  0.5486960000000  0.2861280000000 1.0
C      1  0.6846620000000  0.5488700000000  0.3720230000000 1.0
C      1  0.6716130000000  0.5492960000000  0.6358400000000 1.0
END
