TITL C-1525613-7943-7130 -5.50908281474654e-05 3375 -9532.94724319157 0 0 60 (D5d) n - 1
REM
REM in /home/nfs/bkarasulu/CARBON/AIRSS/Generating-Clusters/ReaxFF-fromJPCA2015/Units_Real/Try2-Higher-symm/Only-C60
REM
REM
REM
REM
REM
REM ./C.cell (863b2abdce7293c0672fb3ba77bf323a)
REM AIRSS Version 0.9.1 bugfix July 2018 build 013d7b7c2542+ Fri, 06 Jul 2018 19:26:36 +0100
REM compiler GCC version 9.2.1 20190827 (Red Hat 9.2.1-1)
REM options -cpp -mtune=generic -march=x86-64 -g -O0 -fpre-include=/usr/include/finclude/math-vector-fortran.h
REM seed -1901580098 997726257 -1465192738 534989358 -407030466 -1017300481 771803042 1748687955 -1070107334 1087845848 -598343832 -1745885961 1874352663 -154364537 897861049 2091108593 1347321137 436472404 -1841801502 -539787760 -509032386 758664465 165868235 1119236915 -1127136440 1542613593 1538205213 2028501807 800062 -1574540434 -1100471734 1655714497 1355138819
REM
CELL 1.54180   15.00000   15.00000   15.00000   90.00000   90.00000   90.00000
LATT -1
SFAC C  
C      1  0.5479850000000  0.4590770000000  0.2711640000000 1.0
C      1  0.2971980000000  0.4590730000000  0.3836570000000 1.0
C      1  0.3266740000000  0.4590710000000  0.6569300000000 1.0
C      1  0.5956830000000  0.4590690000000  0.7133330000000 1.0
C      1  0.7324560000000  0.4590740000000  0.4749180000000 1.0
C      1  0.4520290000000  0.4590760000000  0.2711680000000 1.0
C      1  0.7028100000000  0.4590760000000  0.3836560000000 1.0
C      1  0.6733130000000  0.4590700000000  0.6569300000000 1.0
C      1  0.4043040000000  0.4590700000000  0.7133330000000 1.0
C      1  0.2675400000000  0.4590720000000  0.4749150000000 1.0
C      1  0.6733210000000  0.5409330000000  0.3430750000000 1.0
C      1  0.4043150000000  0.5409290000000  0.2866710000000 1.0
C      1  0.2675370000000  0.5409260000000  0.5250820000000 1.0
C      1  0.4520170000000  0.5409230000000  0.7288350000000 1.0
C      1  0.7028030000000  0.5409250000000  0.6163490000000 1.0
C      1  0.3266840000000  0.5409280000000  0.3430710000000 1.0
C      1  0.5956930000000  0.5409340000000  0.2866710000000 1.0
C      1  0.7324550000000  0.5409260000000  0.5250880000000 1.0
C      1  0.5479740000000  0.5409230000000  0.7288400000000 1.0
C      1  0.2971900000000  0.5409250000000  0.6163420000000 1.0
C      1  0.4535910000000  0.3783900000000  0.7189610000000 1.0
C      1  0.6938920000000  0.3783920000000  0.6117880000000 1.0
C      1  0.6662530000000  0.3783970000000  0.3501240000000 1.0
C      1  0.4088510000000  0.3783960000000  0.2955850000000 1.0
C      1  0.2774190000000  0.3783950000000  0.5235270000000 1.0
C      1  0.5463960000000  0.3783920000000  0.7189530000000 1.0
C      1  0.3060880000000  0.3783910000000  0.6117940000000 1.0
C      1  0.3337710000000  0.3783950000000  0.3501360000000 1.0
C      1  0.5911720000000  0.3783980000000  0.2955740000000 1.0
C      1  0.7225780000000  0.3783940000000  0.5235270000000 1.0
C      1  0.5482180000000  0.3100870000000  0.3494720000000 1.0
C      1  0.3717660000000  0.3100940000000  0.4076480000000 1.0
C      1  0.3725220000000  0.3100840000000  0.5934380000000 1.0
C      1  0.5494620000000  0.3100940000000  0.6500910000000 1.0
C      1  0.6580410000000  0.3100900000000  0.4993230000000 1.0
C      1  0.4518110000000  0.3100940000000  0.3494870000000 1.0
C      1  0.6282660000000  0.3100850000000  0.4076290000000 1.0
C      1  0.6274550000000  0.3100920000000  0.5934200000000 1.0
C      1  0.4505190000000  0.3100850000000  0.6501040000000 1.0
C      1  0.3419620000000  0.3100930000000  0.4993330000000 1.0
C      1  0.5911590000000  0.6216030000000  0.7044250000000 1.0
C      1  0.7225790000000  0.6216080000000  0.4764770000000 1.0
C      1  0.5464040000000  0.6216110000000  0.2810460000000 1.0
C      1  0.3060950000000  0.6216060000000  0.3882030000000 1.0
C      1  0.3337600000000  0.6216020000000  0.6498610000000 1.0
C      1  0.4088390000000  0.6216020000000  0.7044140000000 1.0
C      1  0.2774170000000  0.6216060000000  0.4764660000000 1.0
C      1  0.4535990000000  0.6216100000000  0.2810400000000 1.0
C      1  0.6938980000000  0.6216100000000  0.3882150000000 1.0
C      1  0.6662410000000  0.6216020000000  0.6498760000000 1.0
C      1  0.3725280000000  0.6899130000000  0.4065610000000 1.0
C      1  0.3717550000000  0.6899030000000  0.5923500000000 1.0
C      1  0.5482060000000  0.6899100000000  0.6505230000000 1.0
C      1  0.6580400000000  0.6899120000000  0.5006770000000 1.0
C      1  0.5494690000000  0.6899130000000  0.3499060000000 1.0
C      1  0.6274610000000  0.6899110000000  0.4065770000000 1.0
C      1  0.6282540000000  0.6899110000000  0.5923680000000 1.0
C      1  0.4517980000000  0.6899040000000  0.6505110000000 1.0
C      1  0.3419570000000  0.6899100000000  0.5006630000000 1.0
C      1  0.4505250000000  0.6899160000000  0.3498960000000 1.0
END
