TITL C-1525613-7943-3117 -6.27858335476602e-05 3375 -9891.22048410565 0 0 60 (Ih) n - 1
REM
REM in /home/nfs/bkarasulu/CARBON/AIRSS/Generating-Clusters/ReaxFF-fromJPCA2015/Units_Real/Try2-Higher-symm/Only-C60
REM
REM
REM
REM
REM
REM ./C.cell (863b2abdce7293c0672fb3ba77bf323a)
REM AIRSS Version 0.9.1 bugfix July 2018 build 013d7b7c2542+ Fri, 06 Jul 2018 19:26:36 +0100
REM compiler GCC version 9.2.1 20190827 (Red Hat 9.2.1-1)
REM options -cpp -mtune=generic -march=x86-64 -g -O0 -fpre-include=/usr/include/finclude/math-vector-fortran.h
REM seed -1088352620 447559926 2055364513 1988341773 -1190303281 233722561 -1814896587 -2071086754 1130195919 -1550981310 1650012693 -1604886761 61835244 -433379316 -1555692541 -389954951 1900947695 -1571473917 1932300120 -245888637 612771808 -639003233 -615988845 -115335388 152741672 273262804 1109953216 -967141857 -859655662 -278116287 1575690183 1957715525 12991416
REM
CELL 1.54180   15.00000   15.00000   15.00000   90.00000   90.00000   90.00000
LATT -1
SFAC C  
C      1  0.5408090000000  0.4044010000000  0.2869880000000 1.0
C      1  0.5405570000000  0.2678310000000  0.5251250000000 1.0
C      1  0.5403420000000  0.4521100000000  0.7285990000000 1.0
C      1  0.5404610000000  0.7025720000000  0.6162160000000 1.0
C      1  0.5407490000000  0.6730860000000  0.3432860000000 1.0
C      1  0.4591910000000  0.4044010000000  0.7130120000000 1.0
C      1  0.4594430000000  0.2678310000000  0.4748750000000 1.0
C      1  0.4596580000000  0.4521110000000  0.2714010000000 1.0
C      1  0.4595390000000  0.7025720000000  0.3837840000000 1.0
C      1  0.4592510000000  0.6730860000000  0.6567140000000 1.0
C      1  0.7225500000000  0.5774870000000  0.5254120000000 1.0
C      1  0.7226460000000  0.5478890000000  0.4343210000000 1.0
C      1  0.7226460000000  0.4521100000000  0.4343210000000 1.0
C      1  0.7225500000000  0.4225130000000  0.5254120000000 1.0
C      1  0.7224910000000  0.5000000000000  0.5817100000000 1.0
C      1  0.2774500000000  0.5774870000000  0.4745880000000 1.0
C      1  0.2773540000000  0.5478900000000  0.5656790000000 1.0
C      1  0.2773540000000  0.4521110000000  0.5656790000000 1.0
C      1  0.2774500000000  0.4225130000000  0.4745880000000 1.0
C      1  0.2775090000000  0.5000000000000  0.4182900000000 1.0
C      1  0.6221710000000  0.6730860000000  0.3937260000000 1.0
C      1  0.6222670000000  0.4522910000000  0.3026350000000 1.0
C      1  0.6220750000000  0.2974280000000  0.4844740000000 1.0
C      1  0.6218600000000  0.4225130000000  0.6879480000000 1.0
C      1  0.6219190000000  0.6546820000000  0.6318630000000 1.0
C      1  0.3778290000000  0.6730860000000  0.6062740000000 1.0
C      1  0.3777330000000  0.4522910000000  0.6973650000000 1.0
C      1  0.3779250000000  0.2974280000000  0.5155260000000 1.0
C      1  0.3781400000000  0.4225130000000  0.3120520000000 1.0
C      1  0.3780810000000  0.6546820000000  0.3681380000000 1.0
C      1  0.5408090000000  0.5955990000000  0.2869880000000 1.0
C      1  0.5407490000000  0.3269140000000  0.3432860000000 1.0
C      1  0.5404610000000  0.2974280000000  0.6162160000000 1.0
C      1  0.5403420000000  0.5478890000000  0.7285990000000 1.0
C      1  0.5405570000000  0.7321690000000  0.5251250000000 1.0
C      1  0.4591910000000  0.5955990000000  0.7130120000000 1.0
C      1  0.4592510000000  0.3269140000000  0.6567140000000 1.0
C      1  0.4595390000000  0.2974280000000  0.3837840000000 1.0
C      1  0.4596580000000  0.5478890000000  0.2714010000000 1.0
C      1  0.4594430000000  0.7321690000000  0.4748750000000 1.0
C      1  0.6722400000000  0.5000000000000  0.6628240000000 1.0
C      1  0.6723590000000  0.6546820000000  0.5504410000000 1.0
C      1  0.6725510000000  0.5955990000000  0.3686020000000 1.0
C      1  0.6725510000000  0.4044010000000  0.3686020000000 1.0
C      1  0.6723590000000  0.3453180000000  0.5504410000000 1.0
C      1  0.3277600000000  0.5000000000000  0.3371760000000 1.0
C      1  0.3276410000000  0.6546820000000  0.4495590000000 1.0
C      1  0.3274490000000  0.5955990000000  0.6313980000000 1.0
C      1  0.3274490000000  0.4044010000000  0.6313980000000 1.0
C      1  0.3276410000000  0.3453180000000  0.4495590000000 1.0
C      1  0.6219190000000  0.3453180000000  0.6318620000000 1.0
C      1  0.6218600000000  0.5774870000000  0.6879480000000 1.0
C      1  0.6220750000000  0.7025720000000  0.4844740000000 1.0
C      1  0.6222670000000  0.5477090000000  0.3026350000000 1.0
C      1  0.6221710000000  0.3269140000000  0.3937260000000 1.0
C      1  0.3780810000000  0.3453180000000  0.3681380000000 1.0
C      1  0.3781400000000  0.5774870000000  0.3120520000000 1.0
C      1  0.3779250000000  0.7025720000000  0.5155260000000 1.0
C      1  0.3777330000000  0.5477090000000  0.6973650000000 1.0
C      1  0.3778290000000  0.3269140000000  0.6062740000000 1.0
END
