TITL C-1525613-7943-3717 0.161697508391471 3375 -9035.28230057599 0 0 60 (C1) n - 1
REM
REM in /home/nfs/bkarasulu/CARBON/AIRSS/Generating-Clusters/ReaxFF-fromJPCA2015/Units_Real/Try2-Higher-symm/Only-C60
REM
REM
REM
REM
REM
REM ./C.cell (863b2abdce7293c0672fb3ba77bf323a)
REM AIRSS Version 0.9.1 bugfix July 2018 build 013d7b7c2542+ Fri, 06 Jul 2018 19:26:36 +0100
REM compiler GCC version 9.2.1 20190827 (Red Hat 9.2.1-1)
REM options -cpp -mtune=generic -march=x86-64 -g -O0 -fpre-include=/usr/include/finclude/math-vector-fortran.h
REM seed -1307963931 -440129055 1239079002 -719338224 -292109537 1120785915 -1814119269 -1835555088 -1873808085 -386741773 350658404 -2109072694 1385790037 -488591810 1540669105 1819596720 583623333 -146544833 -1712366887 -1334465502 -468876367 619880407 1700949272 78003362 1106846440 -1848441003 -278973435 1982026295 -710706314 1145624473 -1067211937 747458916 -1827861763
REM
CELL 1.54180   15.00000   15.00000   15.00000   90.00000   90.00000   90.00000
LATT -1
SFAC C  
C      1  0.5407740000000  0.7077990000000  0.6167950000000 1.0
C      1  0.5330240000000  0.7631490000000  0.5417370000000 1.0
C      1  0.5413670000000  0.6689040000000  0.3478710000000 1.0
C      1  0.5360660000000  0.6160660000000  0.2696290000000 1.0
C      1  0.5317530000000  0.4058870000000  0.2727040000000 1.0
C      1  0.5322310000000  0.3296660000000  0.3241940000000 1.0
C      1  0.5378550000000  0.2445570000000  0.5166680000000 1.0
C      1  0.5434550000000  0.2970000000000  0.5954950000000 1.0
C      1  0.5256730000000  0.4350280000000  0.7636210000000 1.0
C      1  0.5248830000000  0.5285040000000  0.7645150000000 1.0
C      1  0.3381880000000  0.5078730000000  0.3440050000000 1.0
C      1  0.3303920000000  0.4136750000000  0.3682900000000 1.0
C      1  0.3383060000000  0.3537800000000  0.4449330000000 1.0
C      1  0.3323300000000  0.3490780000000  0.5415460000000 1.0
C      1  0.3353170000000  0.4038250000000  0.6207130000000 1.0
C      1  0.3239080000000  0.4922480000000  0.6590180000000 1.0
C      1  0.3359990000000  0.5843880000000  0.6298390000000 1.0
C      1  0.3291760000000  0.6472640000000  0.5568620000000 1.0
C      1  0.3379670000000  0.6500300000000  0.4602520000000 1.0
C      1  0.3323650000000  0.5987660000000  0.3777480000000 1.0
C      1  0.6758260000000  0.4715920000000  0.7144700000000 1.0
C      1  0.6522600000000  0.5980580000000  0.6714810000000 1.0
C      1  0.6813030000000  0.7137550000000  0.5409590000000 1.0
C      1  0.6693000000000  0.7161600000000  0.4476840000000 1.0
C      1  0.6810070000000  0.6071320000000  0.3217540000000 1.0
C      1  0.6755540000000  0.5178080000000  0.2808270000000 1.0
C      1  0.6670770000000  0.4030820000000  0.3504260000000 1.0
C      1  0.6765680000000  0.2958510000000  0.4311530000000 1.0
C      1  0.6814920000000  0.3006490000000  0.5291150000000 1.0
C      1  0.6645670000000  0.3827840000000  0.6758320000000 1.0
C      1  0.4006540000000  0.7238780000000  0.4423640000000 1.0
C      1  0.3908120000000  0.6486290000000  0.3162590000000 1.0
C      1  0.3963980000000  0.5131400000000  0.2650900000000 1.0
C      1  0.3848840000000  0.3687980000000  0.3006230000000 1.0
C      1  0.3978130000000  0.2794930000000  0.4200880000000 1.0
C      1  0.3914260000000  0.2729630000000  0.5669740000000 1.0
C      1  0.3971870000000  0.3540060000000  0.6806960000000 1.0
C      1  0.3764660000000  0.4870940000000  0.7420380000000 1.0
C      1  0.3999720000000  0.6269560000000  0.6921130000000 1.0
C      1  0.3863540000000  0.7218030000000  0.5896490000000 1.0
C      1  0.4416800000000  0.5975060000000  0.2521460000000 1.0
C      1  0.4408200000000  0.4287660000000  0.2490480000000 1.0
C      1  0.4415020000000  0.2984280000000  0.3359760000000 1.0
C      1  0.4433380000000  0.2362550000000  0.4933490000000 1.0
C      1  0.4556170000000  0.2903470000000  0.6373600000000 1.0
C      1  0.4318160000000  0.4088720000000  0.7525270000000 1.0
C      1  0.4351440000000  0.5629040000000  0.7568190000000 1.0
C      1  0.4532230000000  0.7001320000000  0.6571490000000 1.0
C      1  0.4374640000000  0.7667050000000  0.5201030000000 1.0
C      1  0.4524630000000  0.7067550000000  0.3626790000000 1.0
C      1  0.6194680000000  0.7714930000000  0.5006030000000 1.0
C      1  0.6303050000000  0.6615570000000  0.3820220000000 1.0
C      1  0.6237520000000  0.5865960000000  0.2497620000000 1.0
C      1  0.6188580000000  0.4458760000000  0.2939620000000 1.0
C      1  0.6191230000000  0.3347160000000  0.3696190000000 1.0
C      1  0.6262840000000  0.2396920000000  0.4829760000000 1.0
C      1  0.6301220000000  0.3367960000000  0.6016340000000 1.0
C      1  0.6154890000000  0.4047600000000  0.7471630000000 1.0
C      1  0.6211210000000  0.5505590000000  0.7412860000000 1.0
C      1  0.6344610000000  0.6701680000000  0.6177880000000 1.0
END
