TITL C-1525613-7943-6076 -0.000381549972544759 3375 -9508.98194802804 0 0 60 (C5) n - 1
REM
REM in /home/nfs/bkarasulu/CARBON/AIRSS/Generating-Clusters/ReaxFF-fromJPCA2015/Units_Real/Try2-Higher-symm/Only-C60
REM
REM
REM
REM
REM
REM ./C.cell (863b2abdce7293c0672fb3ba77bf323a)
REM AIRSS Version 0.9.1 bugfix July 2018 build 013d7b7c2542+ Fri, 06 Jul 2018 19:26:36 +0100
REM compiler GCC version 9.2.1 20190827 (Red Hat 9.2.1-1)
REM options -cpp -mtune=generic -march=x86-64 -g -O0 -fpre-include=/usr/include/finclude/math-vector-fortran.h
REM seed -610912867 344703069 1002412619 -164695811 -2106953040 -1318465822 153857726 -241648425 -1888428909 -519053450 1988084285 -2129918269 -1842586257 -1750052218 -1553862658 -791785516 1476715372 404772850 -917291309 1567554825 -2028997991 1142640356 -1402385023 -1945508699 867188476 -748884970 -2074059935 1147289984 -1733220425 1971975670 1941464798 -1109506035 -17000215
REM
CELL 1.54180   15.00000   15.00000   15.00000   90.00000   90.00000   90.00000
LATT -1
SFAC C  
C      1  0.6717630000000  0.3471590000000  0.3756240000000 1.0
C      1  0.4077120000000  0.2894150000000  0.3756410000000 1.0
C      1  0.2711980000000  0.5227070000000  0.3756990000000 1.0
C      1  0.4508550000000  0.7246570000000  0.3756880000000 1.0
C      1  0.6984090000000  0.6161440000000  0.3756670000000 1.0
C      1  0.3282400000000  0.3471660000000  0.3756630000000 1.0
C      1  0.5922930000000  0.2894070000000  0.3756200000000 1.0
C      1  0.7287700000000  0.5227140000000  0.3756520000000 1.0
C      1  0.5490940000000  0.7246530000000  0.3756810000000 1.0
C      1  0.3015410000000  0.6161430000000  0.3757030000000 1.0
C      1  0.4531980000000  0.6450330000000  0.6877960000000 1.0
C      1  0.6233900000000  0.5893330000000  0.6877910000000 1.0
C      1  0.6231000000000  0.4101540000000  0.6877520000000 1.0
C      1  0.4527010000000  0.3551050000000  0.6877690000000 1.0
C      1  0.3477070000000  0.5002510000000  0.6878020000000 1.0
C      1  0.5468090000000  0.6450290000000  0.6877860000000 1.0
C      1  0.3766250000000  0.5893430000000  0.6878140000000 1.0
C      1  0.3769600000000  0.4101690000000  0.6877790000000 1.0
C      1  0.5473730000000  0.3550970000000  0.6877550000000 1.0
C      1  0.6523280000000  0.5002390000000  0.6877740000000 1.0
C      1  0.2752400000000  0.4782160000000  0.6260520000000 1.0
C      1  0.4098450000000  0.7071060000000  0.6260500000000 1.0
C      1  0.6690550000000  0.6497420000000  0.6260290000000 1.0
C      1  0.6946690000000  0.3854290000000  0.6259890000000 1.0
C      1  0.4512560000000  0.2794230000000  0.6259910000000 1.0
C      1  0.7247850000000  0.4782170000000  0.6260050000000 1.0
C      1  0.5901520000000  0.7071070000000  0.6260340000000 1.0
C      1  0.3309460000000  0.6497420000000  0.6260600000000 1.0
C      1  0.3053770000000  0.3854310000000  0.6260310000000 1.0
C      1  0.5488030000000  0.2794190000000  0.6259800000000 1.0
C      1  0.5485700000000  0.3485380000000  0.3085740000000 1.0
C      1  0.3709590000000  0.4070230000000  0.3086190000000 1.0
C      1  0.3716470000000  0.5940210000000  0.3086310000000 1.0
C      1  0.5496980000000  0.6511280000000  0.3086220000000 1.0
C      1  0.6590280000000  0.4994160000000  0.3086010000000 1.0
C      1  0.4514190000000  0.3485480000000  0.3085880000000 1.0
C      1  0.6290300000000  0.4070110000000  0.3085840000000 1.0
C      1  0.6282850000000  0.5940100000000  0.3086160000000 1.0
C      1  0.4502350000000  0.6511380000000  0.3086230000000 1.0
C      1  0.3409330000000  0.4994190000000  0.3086360000000 1.0
C      1  0.4515530000000  0.7345590000000  0.5417850000000 1.0
C      1  0.7080390000000  0.6185360000000  0.5417630000000 1.0
C      1  0.6770470000000  0.3387130000000  0.5417200000000 1.0
C      1  0.4013610000000  0.2817700000000  0.5417350000000 1.0
C      1  0.2620220000000  0.5263950000000  0.5418000000000 1.0
C      1  0.5484270000000  0.7345600000000  0.5417770000000 1.0
C      1  0.2919480000000  0.6185340000000  0.5418010000000 1.0
C      1  0.3229910000000  0.3387180000000  0.5417600000000 1.0
C      1  0.5986800000000  0.2817620000000  0.5417130000000 1.0
C      1  0.7379770000000  0.5263990000000  0.5417500000000 1.0
C      1  0.2618120000000  0.4737830000000  0.4601940000000 1.0
C      1  0.4014450000000  0.7184750000000  0.4601910000000 1.0
C      1  0.6772720000000  0.6612340000000  0.4601700000000 1.0
C      1  0.7081180000000  0.3811930000000  0.4601280000000 1.0
C      1  0.4513320000000  0.2653410000000  0.4601280000000 1.0
C      1  0.7381800000000  0.4737900000000  0.4601440000000 1.0
C      1  0.5985200000000  0.7184750000000  0.4601750000000 1.0
C      1  0.3226950000000  0.6612330000000  0.4602020000000 1.0
C      1  0.2918950000000  0.3811930000000  0.4601730000000 1.0
C      1  0.5486910000000  0.2653350000000  0.4601170000000 1.0
END
