TITL C-1525613-7943-3260 0.120352977378316 3375 -8725.8537850463 0 0 60 (C1) n - 1
REM
REM in /home/nfs/bkarasulu/CARBON/AIRSS/Generating-Clusters/ReaxFF-fromJPCA2015/Units_Real/Try2-Higher-symm/Only-C60
REM
REM
REM
REM
REM
REM ./C.cell (863b2abdce7293c0672fb3ba77bf323a)
REM AIRSS Version 0.9.1 bugfix July 2018 build 013d7b7c2542+ Fri, 06 Jul 2018 19:26:36 +0100
REM compiler GCC version 9.2.1 20190827 (Red Hat 9.2.1-1)
REM options -cpp -mtune=generic -march=x86-64 -g -O0 -fpre-include=/usr/include/finclude/math-vector-fortran.h
REM seed 484501747 79575821 1532608630 -431658581 -700080885 943944223 337452658 -794433748 -829042857 1974299093 -1879017880 -1490472471 -24846248 -2000981433 -1393363077 1860331521 -918429254 907196467 2127131924 -1498970858 1161579854 1916057034 -1401008005 -1834694617 -972890471 1362498077 -1471797187 1649677011 -893810098 502052145 1700951422 -1395483964 -1405716446
REM
CELL 1.54180   15.00000   15.00000   15.00000   90.00000   90.00000   90.00000
LATT -1
SFAC C  
C      1  0.6248480000000  0.5508730000000  0.2907740000000 1.0
C      1  0.4879290000000  0.5499780000000  0.2566710000000 1.0
C      1  0.3444110000000  0.5511090000000  0.3127470000000 1.0
C      1  0.2678240000000  0.5435040000000  0.4415100000000 1.0
C      1  0.2746730000000  0.5517980000000  0.5916490000000 1.0
C      1  0.3755750000000  0.5458450000000  0.7068280000000 1.0
C      1  0.5122070000000  0.5508370000000  0.7424330000000 1.0
C      1  0.6558000000000  0.5511040000000  0.6873520000000 1.0
C      1  0.7329580000000  0.5434600000000  0.5585580000000 1.0
C      1  0.7261330000000  0.5509340000000  0.4079890000000 1.0
C      1  0.2885260000000  0.3249390000000  0.5336540000000 1.0
C      1  0.3182790000000  0.3212320000000  0.6269260000000 1.0
C      1  0.4627170000000  0.3171840000000  0.7048960000000 1.0
C      1  0.5970300000000  0.3196880000000  0.6942020000000 1.0
C      1  0.6669460000000  0.3181480000000  0.6226040000000 1.0
C      1  0.7079760000000  0.3209300000000  0.4614700000000 1.0
C      1  0.6658430000000  0.3185740000000  0.3704230000000 1.0
C      1  0.5446030000000  0.3178890000000  0.3083760000000 1.0
C      1  0.4075350000000  0.3158880000000  0.3121980000000 1.0
C      1  0.3344970000000  0.3173990000000  0.3797840000000 1.0
C      1  0.5902680000000  0.4730340000000  0.3456860000000 1.0
C      1  0.4909420000000  0.4720490000000  0.3206890000000 1.0
C      1  0.3782520000000  0.4708440000000  0.3603170000000 1.0
C      1  0.3279630000000  0.4645230000000  0.4556030000000 1.0
C      1  0.3294530000000  0.4729760000000  0.5708710000000 1.0
C      1  0.4092330000000  0.4662580000000  0.6543610000000 1.0
C      1  0.5081680000000  0.4738100000000  0.6778220000000 1.0
C      1  0.6227100000000  0.4702550000000  0.6411960000000 1.0
C      1  0.6733570000000  0.4644130000000  0.5434990000000 1.0
C      1  0.6725390000000  0.4709870000000  0.4281750000000 1.0
C      1  0.6206410000000  0.6710040000000  0.3995690000000 1.0
C      1  0.5382760000000  0.6769330000000  0.3480170000000 1.0
C      1  0.4412890000000  0.6718900000000  0.3549330000000 1.0
C      1  0.3666730000000  0.6728210000000  0.4169760000000 1.0
C      1  0.3432260000000  0.6725520000000  0.5102790000000 1.0
C      1  0.3801360000000  0.6705970000000  0.5999870000000 1.0
C      1  0.4615380000000  0.6755110000000  0.6513520000000 1.0
C      1  0.5585570000000  0.6720420000000  0.6450850000000 1.0
C      1  0.6332980000000  0.6728010000000  0.5828770000000 1.0
C      1  0.6570490000000  0.6723940000000  0.4896580000000 1.0
C      1  0.5854790000000  0.6094300000000  0.7172120000000 1.0
C      1  0.6995780000000  0.6082650000000  0.6225010000000 1.0
C      1  0.7341600000000  0.6078590000000  0.4863310000000 1.0
C      1  0.6779800000000  0.6086370000000  0.3481330000000 1.0
C      1  0.5566160000000  0.6166270000000  0.2715580000000 1.0
C      1  0.4150520000000  0.6089640000000  0.2827420000000 1.0
C      1  0.3002360000000  0.6081730000000  0.3773010000000 1.0
C      1  0.2656840000000  0.6081680000000  0.5132650000000 1.0
C      1  0.3222500000000  0.6083110000000  0.6537990000000 1.0
C      1  0.4403080000000  0.6149730000000  0.7286570000000 1.0
C      1  0.6544770000000  0.3890590000000  0.6799620000000 1.0
C      1  0.6909510000000  0.3666170000000  0.5441480000000 1.0
C      1  0.7158200000000  0.3903400000000  0.4033580000000 1.0
C      1  0.6135670000000  0.3762470000000  0.3155520000000 1.0
C      1  0.4787370000000  0.3758320000000  0.2842250000000 1.0
C      1  0.3449200000000  0.3872000000000  0.3244500000000 1.0
C      1  0.3115410000000  0.3677340000000  0.4531730000000 1.0
C      1  0.2776350000000  0.3955970000000  0.5913210000000 1.0
C      1  0.3903240000000  0.3637970000000  0.6770330000000 1.0
C      1  0.5248060000000  0.3791610000000  0.7172850000000 1.0
END
