TITL C-1525613-7943-2144 0.149404492742533 3375 -8368.58147963358 0 0 60 (C1) n - 1
REM
REM in /home/nfs/bkarasulu/CARBON/AIRSS/Generating-Clusters/ReaxFF-fromJPCA2015/Units_Real/Try2-Higher-symm/Only-C60
REM
REM
REM
REM
REM
REM ./C.cell (863b2abdce7293c0672fb3ba77bf323a)
REM AIRSS Version 0.9.1 bugfix July 2018 build 013d7b7c2542+ Fri, 06 Jul 2018 19:26:36 +0100
REM compiler GCC version 9.2.1 20190827 (Red Hat 9.2.1-1)
REM options -cpp -mtune=generic -march=x86-64 -g -O0 -fpre-include=/usr/include/finclude/math-vector-fortran.h
REM seed 269735868 485952203 2065734734 1575918685 1338348970 -564745628 -1735717149 137193918 -295681998 -287964060 1718617390 903795617 -947524862 -409480419 -1863778894 -1590677538 -1971617415 -1459025429 -2134210935 1902256041 -1163959629 931540276 -1019146447 1309767447 -1273676474 1590796198 243770854 -9554404 -332708451 923560090 1068006450 -636462682 -1357532462
REM
CELL 1.54180   15.00000   15.00000   15.00000   90.00000   90.00000   90.00000
LATT -1
SFAC C  
C      1  0.3533930000000  0.2544840000000  0.5233060000000 1.0
C      1  0.3687080000000  0.4493120000000  0.7336360000000 1.0
C      1  0.3871980000000  0.7035000000000  0.6149520000000 1.0
C      1  0.3606000000000  0.6801690000000  0.3404630000000 1.0
C      1  0.3770850000000  0.4040840000000  0.2788680000000 1.0
C      1  0.3804560000000  0.7380330000000  0.5200460000000 1.0
C      1  0.3737070000000  0.5491750000000  0.7332090000000 1.0
C      1  0.3619940000000  0.2926680000000  0.6199920000000 1.0
C      1  0.3898740000000  0.3288210000000  0.3422670000000 1.0
C      1  0.3639000000000  0.5982740000000  0.2796670000000 1.0
C      1  0.6474690000000  0.2291450000000  0.5265010000000 1.0
C      1  0.6487630000000  0.4665610000000  0.7626930000000 1.0
C      1  0.6255810000000  0.7271940000000  0.6472360000000 1.0
C      1  0.6209980000000  0.7102210000000  0.2899440000000 1.0
C      1  0.6265720000000  0.3665100000000  0.2675360000000 1.0
C      1  0.6254250000000  0.7606230000000  0.5544660000000 1.0
C      1  0.6298820000000  0.5631600000000  0.7554180000000 1.0
C      1  0.6542490000000  0.2611540000000  0.6174180000000 1.0
C      1  0.6241150000000  0.2874050000000  0.3272500000000 1.0
C      1  0.6237540000000  0.6255250000000  0.2388280000000 1.0
C      1  0.3326710000000  0.6263960000000  0.5904260000000 1.0
C      1  0.3122710000000  0.6257870000000  0.4072560000000 1.0
C      1  0.3197890000000  0.4498850000000  0.3479450000000 1.0
C      1  0.3093860000000  0.3405560000000  0.4980500000000 1.0
C      1  0.3194710000000  0.4537690000000  0.6468040000000 1.0
C      1  0.3189810000000  0.3750490000000  0.5888050000000 1.0
C      1  0.3352500000000  0.3751740000000  0.4096800000000 1.0
C      1  0.3176630000000  0.5466780000000  0.3502110000000 1.0
C      1  0.3261790000000  0.6556990000000  0.4982740000000 1.0
C      1  0.3189820000000  0.5512790000000  0.6507790000000 1.0
C      1  0.6725210000000  0.6695050000000  0.3574820000000 1.0
C      1  0.6762560000000  0.4123990000000  0.3345670000000 1.0
C      1  0.6476710000000  0.3232020000000  0.4838810000000 1.0
C      1  0.6626500000000  0.4625170000000  0.6633320000000 1.0
C      1  0.6779860000000  0.6481190000000  0.6187700000000 1.0
C      1  0.6808610000000  0.3352690000000  0.3895980000000 1.0
C      1  0.6731790000000  0.5859750000000  0.3118690000000 1.0
C      1  0.6735510000000  0.6790900000000  0.5254820000000 1.0
C      1  0.6590100000000  0.5621880000000  0.6617220000000 1.0
C      1  0.6601520000000  0.3534980000000  0.5893690000000 1.0
C      1  0.4181440000000  0.3715220000000  0.7497450000000 1.0
C      1  0.4496850000000  0.6953910000000  0.6885580000000 1.0
C      1  0.4105170000000  0.7440210000000  0.3855540000000 1.0
C      1  0.4307720000000  0.4555020000000  0.2210830000000 1.0
C      1  0.4090060000000  0.2398730000000  0.4505840000000 1.0
C      1  0.4478070000000  0.6112750000000  0.7417050000000 1.0
C      1  0.4113920000000  0.3065690000000  0.6970750000000 1.0
C      1  0.4500810000000  0.2521580000000  0.3685780000000 1.0
C      1  0.4149360000000  0.5362720000000  0.2332280000000 1.0
C      1  0.4319060000000  0.7829410000000  0.4552880000000 1.0
C      1  0.5943750000000  0.7094180000000  0.4771230000000 1.0
C      1  0.5940790000000  0.5420920000000  0.2800520000000 1.0
C      1  0.5502950000000  0.2485350000000  0.3786020000000 1.0
C      1  0.5933790000000  0.3282660000000  0.6571030000000 1.0
C      1  0.5468880000000  0.6161980000000  0.7518130000000 1.0
C      1  0.5728640000000  0.2536280000000  0.4706140000000 1.0
C      1  0.5992740000000  0.4509310000000  0.3005030000000 1.0
C      1  0.5951440000000  0.7196310000000  0.3818330000000 1.0
C      1  0.5480260000000  0.7011930000000  0.7018740000000 1.0
C      1  0.5932260000000  0.4065330000000  0.7110840000000 1.0
END
