TITL C-1525613-7943-1002 0.563532585815595 3375 -9023.96747654891 0 0 60 (Cs) n - 1
REM
REM in /home/nfs/bkarasulu/CARBON/AIRSS/Generating-Clusters/ReaxFF-fromJPCA2015/Units_Real/Try2-Higher-symm/Only-C60
REM
REM
REM
REM
REM
REM ./C.cell (863b2abdce7293c0672fb3ba77bf323a)
REM AIRSS Version 0.9.1 bugfix July 2018 build 013d7b7c2542+ Fri, 06 Jul 2018 19:26:36 +0100
REM compiler GCC version 9.2.1 20190827 (Red Hat 9.2.1-1)
REM options -cpp -mtune=generic -march=x86-64 -g -O0 -fpre-include=/usr/include/finclude/math-vector-fortran.h
REM seed 68860984 650325731 1998519202 519205222 1323791476 591317186 -1019390535 -1568883684 1730017988 -624206191 -114223012 -975494229 -1742696848 -412227316 -54125447 -1805366700 -286415023 -879697083 1126403509 -992308094 1374732218 -1969982500 -1342789201 -879214823 1320147541 -784078573 -1103974544 -1253632002 2135058364 -250545375 213174141 -495361530 727253305
REM
CELL 1.54180   15.00000   15.00000   15.00000   90.00000   90.00000   90.00000
LATT -1
SFAC C  
C      1  0.3041140000000  0.4670770000000  0.3434180000000 1.0
C      1  0.4174720000000  0.6442020000000  0.3806490000000 1.0
C      1  0.6170090000000  0.6238040000000  0.3868880000000 1.0
C      1  0.6586050000000  0.4279500000000  0.3812380000000 1.0
C      1  0.4812510000000  0.3288210000000  0.3733340000000 1.0
C      1  0.3041110000000  0.4670810000000  0.6565800000000 1.0
C      1  0.4174770000000  0.6441840000000  0.6193400000000 1.0
C      1  0.6170120000000  0.6237800000000  0.6131360000000 1.0
C      1  0.6585960000000  0.4279560000000  0.6188310000000 1.0
C      1  0.4812750000000  0.3288520000000  0.6266660000000 1.0
C      1  0.6836050000000  0.3382790000000  0.4076760000000 1.0
C      1  0.4020800000000  0.2790000000000  0.4052450000000 1.0
C      1  0.2435860000000  0.5269780000000  0.3999310000000 1.0
C      1  0.4485980000000  0.7362590000000  0.4058460000000 1.0
C      1  0.7134060000000  0.6241560000000  0.4071160000000 1.0
C      1  0.6837700000000  0.3383560000000  0.5923410000000 1.0
C      1  0.4020630000000  0.2790110000000  0.5947580000000 1.0
C      1  0.2435870000000  0.5269770000000  0.6000730000000 1.0
C      1  0.4486010000000  0.7362600000000  0.5941490000000 1.0
C      1  0.7134010000000  0.6241680000000  0.5928970000000 1.0
C      1  0.2663390000000  0.6084120000000  0.5485600000000 1.0
C      1  0.5325670000000  0.7562670000000  0.5487530000000 1.0
C      1  0.7565470000000  0.5485330000000  0.5483500000000 1.0
C      1  0.6238430000000  0.2753020000000  0.5483700000000 1.0
C      1  0.3281950000000  0.3231010000000  0.5483490000000 1.0
C      1  0.2663380000000  0.6084090000000  0.4514390000000 1.0
C      1  0.5325670000000  0.7562730000000  0.4512560000000 1.0
C      1  0.7565150000000  0.5485000000000  0.4516110000000 1.0
C      1  0.6238560000000  0.2753380000000  0.4515980000000 1.0
C      1  0.3281890000000  0.3231030000000  0.4516580000000 1.0
C      1  0.4617630000000  0.5649810000000  0.4156840000000 1.0
C      1  0.5600800000000  0.5587600000000  0.4389590000000 1.0
C      1  0.5773410000000  0.4655440000000  0.4061760000000 1.0
C      1  0.4951040000000  0.4205100000000  0.4062600000000 1.0
C      1  0.4296680000000  0.4802930000000  0.4507560000000 1.0
C      1  0.4617560000000  0.5649800000000  0.5843340000000 1.0
C      1  0.5600580000000  0.5587840000000  0.5610260000000 1.0
C      1  0.5772140000000  0.4655910000000  0.5937850000000 1.0
C      1  0.4950590000000  0.4205110000000  0.5937470000000 1.0
C      1  0.4296670000000  0.4802850000000  0.5492310000000 1.0
C      1  0.7010480000000  0.7128220000000  0.4507630000000 1.0
C      1  0.7641240000000  0.3759060000000  0.4512620000000 1.0
C      1  0.4625190000000  0.2147420000000  0.4507050000000 1.0
C      1  0.2139500000000  0.4483210000000  0.4509250000000 1.0
C      1  0.3619010000000  0.7517980000000  0.4505790000000 1.0
C      1  0.7010810000000  0.7128420000000  0.5492160000000 1.0
C      1  0.7641030000000  0.3759070000000  0.5487280000000 1.0
C      1  0.4625340000000  0.2147120000000  0.5492760000000 1.0
C      1  0.2139480000000  0.4483240000000  0.5490740000000 1.0
C      1  0.3619020000000  0.7517890000000  0.5494260000000 1.0
C      1  0.2735670000000  0.3882320000000  0.5995130000000 1.0
C      1  0.3247820000000  0.6714810000000  0.5940820000000 1.0
C      1  0.6118980000000  0.7202370000000  0.5932940000000 1.0
C      1  0.7448440000000  0.4624870000000  0.5924530000000 1.0
C      1  0.5402170000000  0.2555920000000  0.5949520000000 1.0
C      1  0.2735620000000  0.3882430000000  0.4004850000000 1.0
C      1  0.3247720000000  0.6714740000000  0.4059170000000 1.0
C      1  0.6119330000000  0.7202170000000  0.4067040000000 1.0
C      1  0.7447780000000  0.4626590000000  0.4075720000000 1.0
C      1  0.5402520000000  0.2555880000000  0.4050620000000 1.0
END
