TITL C-1525613-7943-7352 -0.000217521682579193 3375 -8675.13188608554 0 0 60 (C5) n - 1
REM
REM in /home/nfs/bkarasulu/CARBON/AIRSS/Generating-Clusters/ReaxFF-fromJPCA2015/Units_Real/Try2-Higher-symm/Only-C60
REM
REM
REM
REM
REM
REM ./C.cell (863b2abdce7293c0672fb3ba77bf323a)
REM AIRSS Version 0.9.1 bugfix July 2018 build 013d7b7c2542+ Fri, 06 Jul 2018 19:26:36 +0100
REM compiler GCC version 9.2.1 20190827 (Red Hat 9.2.1-1)
REM options -cpp -mtune=generic -march=x86-64 -g -O0 -fpre-include=/usr/include/finclude/math-vector-fortran.h
REM seed 876886239 -475558907 -241234481 -1004683094 1194421203 197552943 -780679278 1277943334 -1312447786 275814896 1325400199 840725770 1583758460 -866933582 1391481876 -981904173 1280421776 1504368113 -482062635 -2075567620 -248097521 -493237087 -1694178491 -1879902241 1083656139 2106029840 -1740966224 -2134556125 950714028 -646960616 837665521 -89415179 1736788181
REM
CELL 1.54180   15.00000   15.00000   15.00000   90.00000   90.00000   90.00000
LATT -1
SFAC C  
C      1  0.7165120000000  0.4323280000000  0.5906990000000 1.0
C      1  0.7165240000000  0.5653660000000  0.5924420000000 1.0
C      1  0.7165030000000  0.6080390000000  0.4664180000000 1.0
C      1  0.7165200000000  0.5014430000000  0.3867960000000 1.0
C      1  0.7165150000000  0.3928300000000  0.4636410000000 1.0
C      1  0.2834970000000  0.4323280000000  0.5906830000000 1.0
C      1  0.2834760000000  0.5653680000000  0.5924400000000 1.0
C      1  0.2834870000000  0.6080550000000  0.4664230000000 1.0
C      1  0.2834840000000  0.5014340000000  0.3868290000000 1.0
C      1  0.2834830000000  0.3927970000000  0.4636390000000 1.0
C      1  0.4290520000000  0.4432720000000  0.5560730000000 1.0
C      1  0.4290460000000  0.5358010000000  0.5712810000000 1.0
C      1  0.4290450000000  0.5788560000000  0.4879800000000 1.0
C      1  0.4290480000000  0.5129340000000  0.4212910000000 1.0
C      1  0.4290480000000  0.4291380000000  0.4633740000000 1.0
C      1  0.5709530000000  0.4432730000000  0.5560720000000 1.0
C      1  0.5709540000000  0.5358020000000  0.5712810000000 1.0
C      1  0.5709490000000  0.5788560000000  0.4879790000000 1.0
C      1  0.5709490000000  0.5129340000000  0.4212890000000 1.0
C      1  0.5709560000000  0.4291390000000  0.4633720000000 1.0
C      1  0.3075240000000  0.6347160000000  0.5457130000000 1.0
C      1  0.3075260000000  0.5850810000000  0.3860140000000 1.0
C      1  0.3075250000000  0.4178650000000  0.3838350000000 1.0
C      1  0.3075340000000  0.3641570000000  0.5422030000000 1.0
C      1  0.3075280000000  0.4981680000000  0.6422490000000 1.0
C      1  0.6924700000000  0.6347080000000  0.5457080000000 1.0
C      1  0.6924680000000  0.5850860000000  0.3860020000000 1.0
C      1  0.6924760000000  0.4178740000000  0.3838280000000 1.0
C      1  0.6924740000000  0.3641680000000  0.5422020000000 1.0
C      1  0.6924750000000  0.4981700000000  0.6422570000000 1.0
C      1  0.5561450000000  0.6822610000000  0.4743320000000 1.0
C      1  0.5561420000000  0.5319120000000  0.3187280000000 1.0
C      1  0.5561490000000  0.3374580000000  0.4136310000000 1.0
C      1  0.5561510000000  0.3676380000000  0.6278920000000 1.0
C      1  0.5561440000000  0.5807360000000  0.6654120000000 1.0
C      1  0.4438510000000  0.6822630000000  0.4743330000000 1.0
C      1  0.4438490000000  0.5319110000000  0.3187300000000 1.0
C      1  0.4438580000000  0.3374570000000  0.4136320000000 1.0
C      1  0.4438580000000  0.3676370000000  0.6278930000000 1.0
C      1  0.4438540000000  0.5807350000000  0.6654110000000 1.0
C      1  0.3890180000000  0.3807550000000  0.3418500000000 1.0
C      1  0.3890190000000  0.3127500000000  0.5645300000000 1.0
C      1  0.3890160000000  0.5035110000000  0.6980330000000 1.0
C      1  0.3890140000000  0.6894230000000  0.5578580000000 1.0
C      1  0.3890060000000  0.6135570000000  0.3377330000000 1.0
C      1  0.6109830000000  0.3807600000000  0.3418460000000 1.0
C      1  0.6109940000000  0.3127540000000  0.5645290000000 1.0
C      1  0.6109820000000  0.5035130000000  0.6980360000000 1.0
C      1  0.6109850000000  0.6894200000000  0.5578560000000 1.0
C      1  0.6109840000000  0.6135590000000  0.3377270000000 1.0
C      1  0.5485010000000  0.6774230000000  0.3740720000000 1.0
C      1  0.5485030000000  0.4350650000000  0.2923400000000 1.0
C      1  0.5485120000000  0.2824430000000  0.4975890000000 1.0
C      1  0.5485060000000  0.4304780000000  0.7061650000000 1.0
C      1  0.5485050000000  0.6745940000000  0.6298290000000 1.0
C      1  0.4514890000000  0.6774220000000  0.3740730000000 1.0
C      1  0.4514930000000  0.4350640000000  0.2923420000000 1.0
C      1  0.4515010000000  0.2824420000000  0.4975900000000 1.0
C      1  0.4514950000000  0.4304790000000  0.7061660000000 1.0
C      1  0.4514940000000  0.6745940000000  0.6298290000000 1.0
END
