TITL C-1525613-7943-280 -0.000903313362637711 3375 -8226.01988503611 0 0 60 (C2) n - 1
REM
REM in /home/nfs/bkarasulu/CARBON/AIRSS/Generating-Clusters/ReaxFF-fromJPCA2015/Units_Real/Try2-Higher-symm/Only-C60
REM
REM
REM
REM
REM
REM ./C.cell (863b2abdce7293c0672fb3ba77bf323a)
REM AIRSS Version 0.9.1 bugfix July 2018 build 013d7b7c2542+ Fri, 06 Jul 2018 19:26:36 +0100
REM compiler GCC version 9.2.1 20190827 (Red Hat 9.2.1-1)
REM options -cpp -mtune=generic -march=x86-64 -g -O0 -fpre-include=/usr/include/finclude/math-vector-fortran.h
REM seed -1223892579 2048040387 -50108247 -1141770032 -2024366743 -311588614 814476134 -1572448653 -1609033920 -621856901 -733832070 -944204712 -1513496204 1577118319 1957242064 1108758880 1267392815 -1436558808 -33880051 1782151201 -937596213 -932276376 883057857 -405577710 1060472229 -1537445891 1575267670 267307044 -1631273811 185324677 -212096201 1705050430 -1546311473
REM
CELL 1.54180   15.00000   15.00000   15.00000   90.00000   90.00000   90.00000
LATT -1
SFAC C  
C      1  0.4193920000000  0.6394880000000  0.6196520000000 1.0
C      1  0.5918250000000  0.6392640000000  0.6100090000000 1.0
C      1  0.6349070000000  0.6371240000000  0.4454530000000 1.0
C      1  0.4923550000000  0.6450920000000  0.3504880000000 1.0
C      1  0.3562030000000  0.6521260000000  0.4586040000000 1.0
C      1  0.4193920000000  0.3605120000000  0.3803480000000 1.0
C      1  0.5918260000000  0.3607360000000  0.3899900000000 1.0
C      1  0.6349070000000  0.3628760000000  0.5545470000000 1.0
C      1  0.4923540000000  0.3549090000000  0.6495090000000 1.0
C      1  0.3562030000000  0.3478740000000  0.5413960000000 1.0
C      1  0.2735910000000  0.3964950000000  0.5704250000000 1.0
C      1  0.4991060000000  0.3969800000000  0.7405620000000 1.0
C      1  0.7255620000000  0.4027730000000  0.5774390000000 1.0
C      1  0.6429080000000  0.4028500000000  0.3125100000000 1.0
C      1  0.3659010000000  0.4037280000000  0.3064460000000 1.0
C      1  0.2735920000000  0.6035060000000  0.4295750000000 1.0
C      1  0.4991070000000  0.6030190000000  0.2594370000000 1.0
C      1  0.7255610000000  0.5972280000000  0.4225610000000 1.0
C      1  0.6429070000000  0.5971510000000  0.6874910000000 1.0
C      1  0.3659020000000  0.5962710000000  0.6935550000000 1.0
C      1  0.5866580000000  0.3074000000000  0.6250750000000 1.0
C      1  0.6411920000000  0.3141990000000  0.4629880000000 1.0
C      1  0.5063140000000  0.3094320000000  0.3532430000000 1.0
C      1  0.3556280000000  0.3012020000000  0.4452390000000 1.0
C      1  0.4053600000000  0.2963040000000  0.6246180000000 1.0
C      1  0.5866590000000  0.6926000000000  0.3749260000000 1.0
C      1  0.6411910000000  0.6858020000000  0.5370120000000 1.0
C      1  0.5063140000000  0.6905680000000  0.6467580000000 1.0
C      1  0.3556280000000  0.6987990000000  0.5547600000000 1.0
C      1  0.4053590000000  0.7036960000000  0.3753810000000 1.0
C      1  0.5494000000000  0.4706980000000  0.7689850000000 1.0
C      1  0.7722400000000  0.4731640000000  0.5388820000000 1.0
C      1  0.6218250000000  0.4739710000000  0.2568830000000 1.0
C      1  0.3081510000000  0.4764150000000  0.3097120000000 1.0
C      1  0.2623830000000  0.4700410000000  0.6270290000000 1.0
C      1  0.5494010000000  0.5293010000000  0.2310150000000 1.0
C      1  0.7722400000000  0.5268380000000  0.4611170000000 1.0
C      1  0.6218240000000  0.5260280000000  0.7431170000000 1.0
C      1  0.3081510000000  0.5235850000000  0.6902880000000 1.0
C      1  0.2623830000000  0.5299600000000  0.3729700000000 1.0
C      1  0.4198440000000  0.4182060000000  0.5234290000000 1.0
C      1  0.4824790000000  0.4319760000000  0.5890930000000 1.0
C      1  0.5624060000000  0.4518510000000  0.5488700000000 1.0
C      1  0.5520870000000  0.4494640000000  0.4508420000000 1.0
C      1  0.4529940000000  0.4406840000000  0.4374360000000 1.0
C      1  0.4198410000000  0.5817950000000  0.4765720000000 1.0
C      1  0.4824770000000  0.5680120000000  0.4109070000000 1.0
C      1  0.5624080000000  0.5481490000000  0.4511320000000 1.0
C      1  0.5520870000000  0.5505350000000  0.5491570000000 1.0
C      1  0.4529920000000  0.5593250000000  0.5625630000000 1.0
C      1  0.3817140000000  0.5238710000000  0.7493450000000 1.0
C      1  0.7022720000000  0.5265980000000  0.6931590000000 1.0
C      1  0.7490880000000  0.5253720000000  0.3693750000000 1.0
C      1  0.4554190000000  0.5284520000000  0.2248780000000 1.0
C      1  0.2308010000000  0.5273330000000  0.4616480000000 1.0
C      1  0.3817150000000  0.4761280000000  0.2506550000000 1.0
C      1  0.7022710000000  0.4734010000000  0.3068410000000 1.0
C      1  0.7490870000000  0.4746310000000  0.6306270000000 1.0
C      1  0.4554190000000  0.4715460000000  0.7751220000000 1.0
C      1  0.2308010000000  0.4726680000000  0.5383520000000 1.0
END
