TITL C-1525613-7943-1134 -0.000144120222001119 3375 -9395.145233978 0 0 60 (C5) n - 1
REM
REM in /home/nfs/bkarasulu/CARBON/AIRSS/Generating-Clusters/ReaxFF-fromJPCA2015/Units_Real/Try2-Higher-symm/Only-C60
REM
REM
REM
REM
REM
REM ./C.cell (863b2abdce7293c0672fb3ba77bf323a)
REM AIRSS Version 0.9.1 bugfix July 2018 build 013d7b7c2542+ Fri, 06 Jul 2018 19:26:36 +0100
REM compiler GCC version 9.2.1 20190827 (Red Hat 9.2.1-1)
REM options -cpp -mtune=generic -march=x86-64 -g -O0 -fpre-include=/usr/include/finclude/math-vector-fortran.h
REM seed 48515502 1196584528 817128889 1425138459 -1519834412 1327895253 -2129420081 -1149002742 2106869020 -2090180590 -384216090 1015771966 -489666235 -1721718895 1228290340 -1905299184 -1529050295 1427887134 -1646109117 2140326186 -1776010587 188438975 -1312676310 849563439 -1049410555 -1136819531 898344375 -10105744 1143888938 2024592751 -2004675725 1263889355 -896397183
REM
CELL 1.54180   15.00000   15.00000   15.00000   90.00000   90.00000   90.00000
LATT -1
SFAC C  
C      1  0.5489820000000  0.3714020000000  0.7236290000000 1.0
C      1  0.7278600000000  0.3712670000000  0.5225590000000 1.0
C      1  0.5918180000000  0.3712700000000  0.2903550000000 1.0
C      1  0.3289140000000  0.3712530000000  0.3479140000000 1.0
C      1  0.3024310000000  0.3713110000000  0.6157230000000 1.0
C      1  0.4510200000000  0.3714010000000  0.7236300000000 1.0
C      1  0.2721420000000  0.3712640000000  0.5225600000000 1.0
C      1  0.4081840000000  0.3712700000000  0.2903550000000 1.0
C      1  0.6710880000000  0.3712540000000  0.3479130000000 1.0
C      1  0.6975710000000  0.3713140000000  0.6157220000000 1.0
C      1  0.5967740000000  0.4567310000000  0.7154620000000 1.0
C      1  0.7349490000000  0.4565850000000  0.4745740000000 1.0
C      1  0.5483860000000  0.4566130000000  0.2688530000000 1.0
C      1  0.2949870000000  0.4565820000000  0.3825490000000 1.0
C      1  0.3249080000000  0.4566730000000  0.6586210000000 1.0
C      1  0.4032270000000  0.4567290000000  0.7154630000000 1.0
C      1  0.2650520000000  0.4565820000000  0.4745760000000 1.0
C      1  0.4516140000000  0.4566130000000  0.2688540000000 1.0
C      1  0.7050140000000  0.4565840000000  0.3825470000000 1.0
C      1  0.6750920000000  0.4566760000000  0.6586190000000 1.0
C      1  0.2631060000000  0.6220800000000  0.4738670000000 1.0
C      1  0.4020150000000  0.6222230000000  0.7168890000000 1.0
C      1  0.6762370000000  0.6221740000000  0.6601680000000 1.0
C      1  0.7069560000000  0.6220800000000  0.3819690000000 1.0
C      1  0.4516760000000  0.6221070000000  0.2669350000000 1.0
C      1  0.7368920000000  0.6220840000000  0.4738640000000 1.0
C      1  0.5979820000000  0.6222250000000  0.7168870000000 1.0
C      1  0.3237600000000  0.6221700000000  0.6601710000000 1.0
C      1  0.2930430000000  0.6220780000000  0.3819720000000 1.0
C      1  0.5483240000000  0.6221070000000  0.2669330000000 1.0
C      1  0.5497310000000  0.3032290000000  0.6511050000000 1.0
C      1  0.6590650000000  0.3031450000000  0.4994410000000 1.0
C      1  0.5485640000000  0.3031450000000  0.3486280000000 1.0
C      1  0.3709610000000  0.3031330000000  0.4070720000000 1.0
C      1  0.3716860000000  0.3031870000000  0.5940290000000 1.0
C      1  0.4502720000000  0.3032280000000  0.6511050000000 1.0
C      1  0.3409370000000  0.3031420000000  0.4994410000000 1.0
C      1  0.4514390000000  0.3031450000000  0.3486290000000 1.0
C      1  0.6290420000000  0.3031340000000  0.4070710000000 1.0
C      1  0.6283170000000  0.3031890000000  0.5940280000000 1.0
C      1  0.4039520000000  0.5395930000000  0.2848540000000 1.0
C      1  0.2654890000000  0.5395840000000  0.5248190000000 1.0
C      1  0.4511870000000  0.5397290000000  0.7304470000000 1.0
C      1  0.7042940000000  0.5396350000000  0.6176500000000 1.0
C      1  0.6750730000000  0.5395750000000  0.3421750000000 1.0
C      1  0.5960480000000  0.5395930000000  0.2848520000000 1.0
C      1  0.7345100000000  0.5395870000000  0.5248170000000 1.0
C      1  0.5488130000000  0.5397300000000  0.7304460000000 1.0
C      1  0.2957040000000  0.5396310000000  0.6176520000000 1.0
C      1  0.3249270000000  0.5395740000000  0.3421780000000 1.0
C      1  0.2878490000000  0.7071440000000  0.6208290000000 1.0
C      1  0.5494760000000  0.7072530000000  0.7386910000000 1.0
C      1  0.7428040000000  0.7070990000000  0.5267360000000 1.0
C      1  0.6004460000000  0.7071090000000  0.2776920000000 1.0
C      1  0.3194250000000  0.7070890000000  0.3357640000000 1.0
C      1  0.7121460000000  0.7071470000000  0.6208260000000 1.0
C      1  0.4505200000000  0.7072520000000  0.7386920000000 1.0
C      1  0.2571920000000  0.7070950000000  0.5267400000000 1.0
C      1  0.3995530000000  0.7071080000000  0.2776960000000 1.0
C      1  0.6805750000000  0.7070910000000  0.3357600000000 1.0
END
