TITL C-1525613-7943-5955 0.257675225436558 3375 -8039.53537040318 0 0 60 (S10) n - 1
REM
REM in /home/nfs/bkarasulu/CARBON/AIRSS/Generating-Clusters/ReaxFF-fromJPCA2015/Units_Real/Try2-Higher-symm/Only-C60
REM
REM
REM
REM
REM
REM ./C.cell (863b2abdce7293c0672fb3ba77bf323a)
REM AIRSS Version 0.9.1 bugfix July 2018 build 013d7b7c2542+ Fri, 06 Jul 2018 19:26:36 +0100
REM compiler GCC version 9.2.1 20190827 (Red Hat 9.2.1-1)
REM options -cpp -mtune=generic -march=x86-64 -g -O0 -fpre-include=/usr/include/finclude/math-vector-fortran.h
REM seed 714624059 -970875359 -2031541437 -917916768 1231826348 -947583478 -285952351 -1668410394 818258872 -487302448 1124106802 -2087596876 1748107869 -1833484402 -771879911 -939394384 1794116872 -788533167 766205232 -40097767 -412614324 -466800989 -72583317 -2128891061 865173241 -1105529072 -1406280186 1684136484 1964242406 132703785 -179225173 1118941974 1173713459
REM
CELL 1.54180   15.00000   15.00000   15.00000   90.00000   90.00000   90.00000
LATT -1
SFAC C  
C      1  0.3531240000000  0.4961900000000  0.6736560000000 1.0
C      1  0.3834260000000  0.4107030000000  0.3255800000000 1.0
C      1  0.4583290000000  0.3590140000000  0.6741910000000 1.0
C      1  0.5490660000000  0.3617540000000  0.3264000000000 1.0
C      1  0.6210280000000  0.4167590000000  0.6741050000000 1.0
C      1  0.6468760000000  0.5038100000000  0.3263440000000 1.0
C      1  0.6165740000000  0.5892970000000  0.6744200000000 1.0
C      1  0.5416710000000  0.6409860000000  0.3258090000000 1.0
C      1  0.4509340000000  0.6382460000000  0.6736000000000 1.0
C      1  0.3789720000000  0.5832410000000  0.3258950000000 1.0
C      1  0.3147970000000  0.3664590000000  0.3833620000000 1.0
C      1  0.4286490000000  0.2829330000000  0.6165690000000 1.0
C      1  0.5699290000000  0.2820820000000  0.3833020000000 1.0
C      1  0.6844130000000  0.3650270000000  0.6166080000000 1.0
C      1  0.7288450000000  0.4989160000000  0.3834870000000 1.0
C      1  0.6852030000000  0.6335410000000  0.6166380000000 1.0
C      1  0.5713510000000  0.7170670000000  0.3834310000000 1.0
C      1  0.4300710000000  0.7179180000000  0.6166980000000 1.0
C      1  0.3155870000000  0.6349730000000  0.3833920000000 1.0
C      1  0.2711550000000  0.5010840000000  0.6165130000000 1.0
C      1  0.5155340000000  0.3628360000000  0.5225630000000 1.0
C      1  0.5930080000000  0.3980650000000  0.4778140000000 1.0
C      1  0.6351900000000  0.4721850000000  0.5224520000000 1.0
C      1  0.6257050000000  0.5570130000000  0.4775030000000 1.0
C      1  0.5682130000000  0.6201630000000  0.5224510000000 1.0
C      1  0.4844660000000  0.6371640000000  0.4774370000000 1.0
C      1  0.4069920000000  0.6019350000000  0.5221860000000 1.0
C      1  0.3648100000000  0.5278150000000  0.4775480000000 1.0
C      1  0.3742950000000  0.4429870000000  0.5224970000000 1.0
C      1  0.4317870000000  0.3798370000000  0.4775490000000 1.0
C      1  0.5921950000000  0.4366080000000  0.3447320000000 1.0
C      1  0.6120720000000  0.5029550000000  0.6548940000000 1.0
C      1  0.5890270000000  0.5684970000000  0.3450530000000 1.0
C      1  0.5316450000000  0.6077570000000  0.6548570000000 1.0
C      1  0.4624300000000  0.6058500000000  0.3449730000000 1.0
C      1  0.4078050000000  0.5633920000000  0.6552680000000 1.0
C      1  0.3879280000000  0.4970450000000  0.3451060000000 1.0
C      1  0.4109730000000  0.4315030000000  0.6549470000000 1.0
C      1  0.4683550000000  0.3922430000000  0.3451430000000 1.0
C      1  0.5375700000000  0.3941500000000  0.6550270000000 1.0
C      1  0.7292990000000  0.5493630000000  0.5978620000000 1.0
C      1  0.6567150000000  0.6747410000000  0.4020250000000 1.0
C      1  0.5238680000000  0.7334530000000  0.5979120000000 1.0
C      1  0.3820970000000  0.7030350000000  0.4021770000000 1.0
C      1  0.2855290000000  0.5950060000000  0.5979600000000 1.0
C      1  0.2707010000000  0.4506370000000  0.4021380000000 1.0
C      1  0.3432850000000  0.3252590000000  0.5979750000000 1.0
C      1  0.4761320000000  0.2665470000000  0.4020880000000 1.0
C      1  0.6179030000000  0.2969650000000  0.5978230000000 1.0
C      1  0.7144710000000  0.4049940000000  0.4020400000000 1.0
C      1  0.6994580000000  0.5877850000000  0.4264410000000 1.0
C      1  0.6096780000000  0.6886770000000  0.5733730000000 1.0
C      1  0.4777840000000  0.7170400000000  0.4265570000000 1.0
C      1  0.3549750000000  0.6622320000000  0.5735690000000 1.0
C      1  0.2865230000000  0.5461670000000  0.4266310000000 1.0
C      1  0.3005420000000  0.4122150000000  0.5735590000000 1.0
C      1  0.3903220000000  0.3113230000000  0.4266270000000 1.0
C      1  0.5222160000000  0.2829600000000  0.5734430000000 1.0
C      1  0.6450250000000  0.3377680000000  0.4264310000000 1.0
C      1  0.7134770000000  0.4538330000000  0.5733690000000 1.0
END
