TITL C-1525613-7943-1841 0.0752336344427651 3375 -8143.43167788258 0 0 60 (C1) n - 1
REM
REM in /home/nfs/bkarasulu/CARBON/AIRSS/Generating-Clusters/ReaxFF-fromJPCA2015/Units_Real/Try2-Higher-symm/Only-C60
REM
REM
REM
REM
REM
REM ./C.cell (863b2abdce7293c0672fb3ba77bf323a)
REM AIRSS Version 0.9.1 bugfix July 2018 build 013d7b7c2542+ Fri, 06 Jul 2018 19:26:36 +0100
REM compiler GCC version 9.2.1 20190827 (Red Hat 9.2.1-1)
REM options -cpp -mtune=generic -march=x86-64 -g -O0 -fpre-include=/usr/include/finclude/math-vector-fortran.h
REM seed 2108930702 -1938306269 -1333766422 1900649545 -1307735279 1005339998 471416232 -1951522395 687338733 1467104762 1592368170 -1112362400 -823501851 528635975 -32585454 -900710887 -575642490 1367962491 -208073308 1332281870 2020400159 -1752811602 -1302827287 -1844750654 2092516938 893369292 1414524163 -69477971 1256184466 -145660925 -1117086852 -507242996 1152011905
REM
CELL 1.54180   15.00000   15.00000   15.00000   90.00000   90.00000   90.00000
LATT -1
SFAC C  
C      1  0.3526140000000  0.6920770000000  0.5416920000000 1.0
C      1  0.6532200000000  0.6853400000000  0.4314130000000 1.0
C      1  0.3486990000000  0.6080740000000  0.3303130000000 1.0
C      1  0.6569200000000  0.5009680000000  0.3037300000000 1.0
C      1  0.3207010000000  0.3490620000000  0.3780140000000 1.0
C      1  0.6510470000000  0.3109580000000  0.4466440000000 1.0
C      1  0.3501760000000  0.3152220000000  0.5761200000000 1.0
C      1  0.6504670000000  0.3915020000000  0.6622790000000 1.0
C      1  0.3499780000000  0.5097230000000  0.6884470000000 1.0
C      1  0.6555760000000  0.6230350000000  0.6496890000000 1.0
C      1  0.5015330000000  0.2568550000000  0.5049480000000 1.0
C      1  0.4960930000000  0.3069950000000  0.6691380000000 1.0
C      1  0.5009950000000  0.4362720000000  0.7453300000000 1.0
C      1  0.4995190000000  0.5927320000000  0.7351480000000 1.0
C      1  0.5025710000000  0.7154320000000  0.6337720000000 1.0
C      1  0.4964960000000  0.7648400000000  0.4775540000000 1.0
C      1  0.5042810000000  0.6920540000000  0.3530340000000 1.0
C      1  0.4948590000000  0.5577420000000  0.2504400000000 1.0
C      1  0.5233980000000  0.4115800000000  0.2826910000000 1.0
C      1  0.4912050000000  0.2789200000000  0.3609000000000 1.0
C      1  0.3145270000000  0.4317020000000  0.4292740000000 1.0
C      1  0.6672120000000  0.4040240000000  0.4736180000000 1.0
C      1  0.3248030000000  0.4090320000000  0.5358000000000 1.0
C      1  0.6675610000000  0.4451510000000  0.5811570000000 1.0
C      1  0.3307930000000  0.5037150000000  0.5917450000000 1.0
C      1  0.6688040000000  0.5612750000000  0.5741970000000 1.0
C      1  0.3258990000000  0.5960630000000  0.5140930000000 1.0
C      1  0.6689200000000  0.5931890000000  0.4635080000000 1.0
C      1  0.3288340000000  0.5587130000000  0.4176690000000 1.0
C      1  0.6696640000000  0.4968490000000  0.4010240000000 1.0
C      1  0.4173800000000  0.4504650000000  0.4220290000000 1.0
C      1  0.5701590000000  0.4190710000000  0.4797550000000 1.0
C      1  0.4227720000000  0.4164010000000  0.5181530000000 1.0
C      1  0.5705500000000  0.4582940000000  0.5708350000000 1.0
C      1  0.4272280000000  0.4957850000000  0.5758450000000 1.0
C      1  0.5711240000000  0.5568700000000  0.5609210000000 1.0
C      1  0.4236610000000  0.5773250000000  0.5224960000000 1.0
C      1  0.5711710000000  0.5783900000000  0.4645200000000 1.0
C      1  0.4262980000000  0.5505600000000  0.4275590000000 1.0
C      1  0.5722400000000  0.4931570000000  0.4141780000000 1.0
C      1  0.5866710000000  0.6190640000000  0.7276940000000 1.0
C      1  0.4180140000000  0.6782930000000  0.6095450000000 1.0
C      1  0.5865890000000  0.7594990000000  0.4493480000000 1.0
C      1  0.4177970000000  0.6694500000000  0.3591660000000 1.0
C      1  0.5860220000000  0.5374770000000  0.2424000000000 1.0
C      1  0.4427690000000  0.4034310000000  0.3226190000000 1.0
C      1  0.5819140000000  0.2639860000000  0.3869830000000 1.0
C      1  0.4152490000000  0.2790730000000  0.5151650000000 1.0
C      1  0.5857950000000  0.3211440000000  0.6879280000000 1.0
C      1  0.4137350000000  0.4632700000000  0.7502480000000 1.0
C      1  0.5932490000000  0.7159290000000  0.3596960000000 1.0
C      1  0.4114990000000  0.5746040000000  0.2655710000000 1.0
C      1  0.6037170000000  0.4372200000000  0.2488460000000 1.0
C      1  0.4060380000000  0.3113860000000  0.3349290000000 1.0
C      1  0.5906540000000  0.2429720000000  0.4844190000000 1.0
C      1  0.4126080000000  0.3029260000000  0.6466680000000 1.0
C      1  0.5884210000000  0.4087360000000  0.7397570000000 1.0
C      1  0.4129260000000  0.5666130000000  0.7423970000000 1.0
C      1  0.5955650000000  0.6967490000000  0.6672700000000 1.0
C      1  0.4108200000000  0.7527670000000  0.4996790000000 1.0
END
