TITL C-1525613-7943-7697 -0.00549546380955838 3375 -8673.15216843401 0 0 60 (Ci) n - 1
REM
REM in /home/nfs/bkarasulu/CARBON/AIRSS/Generating-Clusters/ReaxFF-fromJPCA2015/Units_Real/Try2-Higher-symm/Only-C60
REM
REM
REM
REM
REM
REM ./C.cell (863b2abdce7293c0672fb3ba77bf323a)
REM AIRSS Version 0.9.1 bugfix July 2018 build 013d7b7c2542+ Fri, 06 Jul 2018 19:26:36 +0100
REM compiler GCC version 9.2.1 20190827 (Red Hat 9.2.1-1)
REM options -cpp -mtune=generic -march=x86-64 -g -O0 -fpre-include=/usr/include/finclude/math-vector-fortran.h
REM seed -1949638133 181994011 -95436932 -1337643335 1451033262 -284429114 1653146800 -1597985889 -2099791314 1863573958 2035567499 -1041323315 -1203542518 -2141101948 2010012582 -316353251 -2064228615 1188468157 -795157158 80305339 -1258239339 -1678699180 -1727681290 -459714835 991916002 216089901 306424119 -1166947152 1102798200 -878631531 191793266 870523303 -963334930
REM
CELL 1.54180   15.00000   15.00000   15.00000   90.00000   90.00000   90.00000
LATT -1
SFAC C  
C      1  0.3489240000000  0.5945930000000  0.3928300000000 1.0
C      1  0.3705170000000  0.4751630000000  0.5482440000000 1.0
C      1  0.3919820000000  0.4315800000000  0.4464580000000 1.0
C      1  0.4909760000000  0.3601530000000  0.5625290000000 1.0
C      1  0.5438230000000  0.3790380000000  0.4593030000000 1.0
C      1  0.6519280000000  0.4048540000000  0.6080860000000 1.0
C      1  0.6295570000000  0.5252090000000  0.4518950000000 1.0
C      1  0.6084530000000  0.5686960000000  0.5535980000000 1.0
C      1  0.5090060000000  0.6396760000000  0.4380510000000 1.0
C      1  0.4563640000000  0.6214640000000  0.5411010000000 1.0
C      1  0.6573070000000  0.6687950000000  0.4017330000000 1.0
C      1  0.5349680000000  0.7336850000000  0.5676870000000 1.0
C      1  0.4427830000000  0.7549360000000  0.4063340000000 1.0
C      1  0.3004850000000  0.6218460000000  0.6139170000000 1.0
C      1  0.2661290000000  0.4481380000000  0.3991100000000 1.0
C      1  0.3422350000000  0.3313830000000  0.5978280000000 1.0
C      1  0.4648710000000  0.2654760000000  0.4322000000000 1.0
C      1  0.5563090000000  0.2446160000000  0.5934680000000 1.0
C      1  0.6993350000000  0.3780550000000  0.3857750000000 1.0
C      1  0.7341540000000  0.5522380000000  0.6006180000000 1.0
C      1  0.3969090000000  0.7019570000000  0.5472510000000 1.0
C      1  0.2819810000000  0.6039000000000  0.4565830000000 1.0
C      1  0.2698140000000  0.4646060000000  0.5470860000000 1.0
C      1  0.3102340000000  0.3679370000000  0.4459150000000 1.0
C      1  0.4155230000000  0.2833650000000  0.5579780000000 1.0
C      1  0.6028110000000  0.2983170000000  0.4530640000000 1.0
C      1  0.7184100000000  0.3960280000000  0.5436820000000 1.0
C      1  0.7302390000000  0.5357780000000  0.4529410000000 1.0
C      1  0.6897920000000  0.6326780000000  0.5535390000000 1.0
C      1  0.5841300000000  0.7169330000000  0.4416480000000 1.0
C      1  0.6522080000000  0.5032610000000  0.6339490000000 1.0
C      1  0.5890620000000  0.5902350000000  0.3900230000000 1.0
C      1  0.5359720000000  0.6302270000000  0.5975470000000 1.0
C      1  0.4330780000000  0.6456920000000  0.3705300000000 1.0
C      1  0.3923140000000  0.5629760000000  0.5929840000000 1.0
C      1  0.3485990000000  0.4964060000000  0.3661440000000 1.0
C      1  0.4105440000000  0.4097200000000  0.6102400000000 1.0
C      1  0.4642760000000  0.3696240000000  0.4030860000000 1.0
C      1  0.5671530000000  0.3540400000000  0.6295870000000 1.0
C      1  0.6078280000000  0.4372410000000  0.4069590000000 1.0
C      1  0.4254970000000  0.4922970000000  0.2938650000000 1.0
C      1  0.4439120000000  0.4482790000000  0.7007340000000 1.0
C      1  0.4821040000000  0.4164540000000  0.3121860000000 1.0
C      1  0.5349080000000  0.4196870000000  0.7053560000000 1.0
C      1  0.5677830000000  0.4566880000000  0.3153200000000 1.0
C      1  0.5747780000000  0.5073060000000  0.7055820000000 1.0
C      1  0.5559080000000  0.5516380000000  0.2994380000000 1.0
C      1  0.5178780000000  0.5831200000000  0.6883700000000 1.0
C      1  0.4650420000000  0.5800060000000  0.2943080000000 1.0
C      1  0.4320360000000  0.5432210000000  0.6848350000000 1.0
C      1  0.5422520000000  0.2355810000000  0.4993640000000 1.0
C      1  0.6981030000000  0.3296930000000  0.4681880000000 1.0
C      1  0.7584460000000  0.4873630000000  0.5322490000000 1.0
C      1  0.7260300000000  0.6316420000000  0.4585080000000 1.0
C      1  0.6208060000000  0.7202540000000  0.5306390000000 1.0
C      1  0.4574350000000  0.7639500000000  0.5003100000000 1.0
C      1  0.3016670000000  0.6706290000000  0.5317600000000 1.0
C      1  0.2416330000000  0.5127770000000  0.4676610000000 1.0
C      1  0.2736990000000  0.3687440000000  0.5409640000000 1.0
C      1  0.3790980000000  0.2801580000000  0.4688620000000 1.0
END
