TITL C-1525613-7943-927 -0.059307537052666 3375 -9371.02285614081 0 0 60 (C1) n - 1
REM
REM in /home/nfs/bkarasulu/CARBON/AIRSS/Generating-Clusters/ReaxFF-fromJPCA2015/Units_Real/Try2-Higher-symm/Only-C60
REM
REM
REM
REM
REM
REM ./C.cell (863b2abdce7293c0672fb3ba77bf323a)
REM AIRSS Version 0.9.1 bugfix July 2018 build 013d7b7c2542+ Fri, 06 Jul 2018 19:26:36 +0100
REM compiler GCC version 9.2.1 20190827 (Red Hat 9.2.1-1)
REM options -cpp -mtune=generic -march=x86-64 -g -O0 -fpre-include=/usr/include/finclude/math-vector-fortran.h
REM seed -1776327365 844929656 -2113788977 -146939195 -2090138223 1147023659 -1297601286 1571227087 1577773585 2089690048 -357153817 139318048 -2102905971 1031001851 -827592471 407144074 -1783976833 116353636 -2124186974 -1253768390 1392647694 -804333862 1035264195 -817130810 823070344 -16666047 -1906899095 -1445056383 1266001952 1953004869 111696851 -874035542 2081295968
REM
CELL 1.54180   15.00000   15.00000   15.00000   90.00000   90.00000   90.00000
LATT -1
SFAC C  
C      1  0.6061910000000  0.6023800000000  0.6581300000000 1.0
C      1  0.3810380000000  0.5227910000000  0.7008440000000 1.0
C      1  0.6297670000000  0.3620750000000  0.6580120000000 1.0
C      1  0.3994360000000  0.3205350000000  0.5664490000000 1.0
C      1  0.6297460000000  0.2941340000000  0.4469090000000 1.0
C      1  0.3780560000000  0.3930370000000  0.3291190000000 1.0
C      1  0.5998160000000  0.4869920000000  0.3025010000000 1.0
C      1  0.3768510000000  0.6376780000000  0.3410770000000 1.0
C      1  0.6041480000000  0.6818680000000  0.4390780000000 1.0
C      1  0.3902860000000  0.6943130000000  0.5535000000000 1.0
C      1  0.6640370000000  0.5243810000000  0.6623220000000 1.0
C      1  0.3341890000000  0.4527100000000  0.6533250000000 1.0
C      1  0.6917290000000  0.3422680000000  0.5865950000000 1.0
C      1  0.3510080000000  0.3461220000000  0.4873270000000 1.0
C      1  0.6741610000000  0.3638120000000  0.3935850000000 1.0
C      1  0.3375590000000  0.4817110000000  0.3342610000000 1.0
C      1  0.6612000000000  0.5504160000000  0.3473420000000 1.0
C      1  0.3142040000000  0.6580650000000  0.4121790000000 1.0
C      1  0.6518070000000  0.6591300000000  0.5192630000000 1.0
C      1  0.3262980000000  0.6400860000000  0.6036540000000 1.0
C      1  0.5304810000000  0.6230930000000  0.3093760000000 1.0
C      1  0.4292860000000  0.7818940000000  0.4312710000000 1.0
C      1  0.5120460000000  0.7141190000000  0.6123340000000 1.0
C      1  0.4617430000000  0.6620960000000  0.6805510000000 1.0
C      1  0.5280070000000  0.4448860000000  0.7274820000000 1.0
C      1  0.4701140000000  0.3757640000000  0.6996110000000 1.0
C      1  0.5769950000000  0.2151750000000  0.5706060000000 1.0
C      1  0.4771690000000  0.2938850000000  0.3852680000000 1.0
C      1  0.5337330000000  0.3379450000000  0.3159520000000 1.0
C      1  0.4851740000000  0.5490230000000  0.2688410000000 1.0
C      1  0.4662670000000  0.6716240000000  0.3615350000000 1.0
C      1  0.5057240000000  0.6953620000000  0.4552290000000 1.0
C      1  0.4767010000000  0.6626530000000  0.5439910000000 1.0
C      1  0.5081570000000  0.5831830000000  0.6463440000000 1.0
C      1  0.4744690000000  0.5098630000000  0.6966690000000 1.0
C      1  0.5367700000000  0.3398420000000  0.6427390000000 1.0
C      1  0.4985250000000  0.2911220000000  0.5613870000000 1.0
C      1  0.5342880000000  0.2992640000000  0.4623810000000 1.0
C      1  0.4701660000000  0.4070080000000  0.3041780000000 1.0
C      1  0.5128370000000  0.4931150000000  0.3220330000000 1.0
C      1  0.3850340000000  0.3243650000000  0.3977270000000 1.0
C      1  0.6156180000000  0.3910440000000  0.3225000000000 1.0
C      1  0.3873940000000  0.5543790000000  0.2943960000000 1.0
C      1  0.6164610000000  0.6346960000000  0.3553890000000 1.0
C      1  0.3551370000000  0.7316830000000  0.4663690000000 1.0
C      1  0.6075850000000  0.6807010000000  0.6040780000000 1.0
C      1  0.3745670000000  0.6185430000000  0.6844370000000 1.0
C      1  0.6224050000000  0.4470740000000  0.7034240000000 1.0
C      1  0.3865720000000  0.3712110000000  0.6463230000000 1.0
C      1  0.6555620000000  0.2620400000000  0.5378570000000 1.0
C      1  0.7141930000000  0.5111110000000  0.5797850000000 1.0
C      1  0.2860810000000  0.4784990000000  0.5731800000000 1.0
C      1  0.7261970000000  0.4210000000000  0.5422190000000 1.0
C      1  0.2965280000000  0.4281570000000  0.4908460000000 1.0
C      1  0.7221600000000  0.4312940000000  0.4457400000000 1.0
C      1  0.2891390000000  0.4921280000000  0.4184240000000 1.0
C      1  0.7116330000000  0.5258350000000  0.4260550000000 1.0
C      1  0.2752400000000  0.5813200000000  0.4557240000000 1.0
C      1  0.7050220000000  0.5763110000000  0.5094120000000 1.0
C      1  0.2772950000000  0.5731870000000  0.5528650000000 1.0
END
