TITL C-1525613-7943-2761 -0.00800047992406534 3375 -8866.47940583542 0 0 60 (Cs) n - 1
REM
REM in /home/nfs/bkarasulu/CARBON/AIRSS/Generating-Clusters/ReaxFF-fromJPCA2015/Units_Real/Try2-Higher-symm/Only-C60
REM
REM
REM
REM
REM
REM ./C.cell (863b2abdce7293c0672fb3ba77bf323a)
REM AIRSS Version 0.9.1 bugfix July 2018 build 013d7b7c2542+ Fri, 06 Jul 2018 19:26:36 +0100
REM compiler GCC version 9.2.1 20190827 (Red Hat 9.2.1-1)
REM options -cpp -mtune=generic -march=x86-64 -g -O0 -fpre-include=/usr/include/finclude/math-vector-fortran.h
REM seed -1586006723 -698502093 -1524857073 1240110079 74683986 158586889 -1653391262 843467815 221254503 637755841 -1543280664 -42905253 1092368342 1059860168 612493983 -194121014 542335787 811922468 877545486 1250327876 -1927051741 322371375 -1262813379 780517117 -290411605 50444553 1703640929 -1637145124 -1589047733 351294739 -600135670 -930286508 127612518
REM
CELL 1.54180   15.00000   15.00000   15.00000   90.00000   90.00000   90.00000
LATT -1
SFAC C  
C      1  0.5066530000000  0.6072840000000  0.2931880000000 1.0
C      1  0.3039270000000  0.6073440000000  0.4287040000000 1.0
C      1  0.3743680000000  0.6058950000000  0.6624740000000 1.0
C      1  0.6123440000000  0.6029900000000  0.6746070000000 1.0
C      1  0.6995870000000  0.6069860000000  0.4423840000000 1.0
C      1  0.5066530000000  0.3927160000000  0.2931870000000 1.0
C      1  0.3039270000000  0.3926560000000  0.4287040000000 1.0
C      1  0.3743680000000  0.3941050000000  0.6624740000000 1.0
C      1  0.6123450000000  0.3970100000000  0.6746080000000 1.0
C      1  0.6995870000000  0.3930140000000  0.4423840000000 1.0
C      1  0.5742440000000  0.5788030000000  0.5113910000000 1.0
C      1  0.5357040000000  0.5743510000000  0.4275200000000 1.0
C      1  0.4422490000000  0.5738410000000  0.4392480000000 1.0
C      1  0.4260150000000  0.5775220000000  0.5296730000000 1.0
C      1  0.5047990000000  0.5988480000000  0.5690170000000 1.0
C      1  0.5742440000000  0.4211970000000  0.5113910000000 1.0
C      1  0.5357040000000  0.4256490000000  0.4275210000000 1.0
C      1  0.4422500000000  0.4261590000000  0.4392470000000 1.0
C      1  0.4260150000000  0.4224780000000  0.5296730000000 1.0
C      1  0.5047990000000  0.4011510000000  0.5690160000000 1.0
C      1  0.3632650000000  0.2794980000000  0.5457620000000 1.0
C      1  0.5029110000000  0.3282750000000  0.6246630000000 1.0
C      1  0.6399320000000  0.2797430000000  0.5485090000000 1.0
C      1  0.5846960000000  0.2805060000000  0.3887940000000 1.0
C      1  0.4182770000000  0.2801100000000  0.3873880000000 1.0
C      1  0.3632650000000  0.7205020000000  0.5457620000000 1.0
C      1  0.5029110000000  0.6717240000000  0.6246640000000 1.0
C      1  0.6399310000000  0.7202570000000  0.5485090000000 1.0
C      1  0.5846960000000  0.7194940000000  0.3887940000000 1.0
C      1  0.4182770000000  0.7198910000000  0.3873880000000 1.0
C      1  0.2772140000000  0.5486830000000  0.4989670000000 1.0
C      1  0.4367070000000  0.5498140000000  0.7113480000000 1.0
C      1  0.6769580000000  0.5480040000000  0.6285410000000 1.0
C      1  0.6799460000000  0.5488440000000  0.3692020000000 1.0
C      1  0.4312010000000  0.5489300000000  0.2879250000000 1.0
C      1  0.2772140000000  0.4513170000000  0.4989670000000 1.0
C      1  0.4367070000000  0.4501860000000  0.7113480000000 1.0
C      1  0.6769580000000  0.4519970000000  0.6285410000000 1.0
C      1  0.6799460000000  0.4511560000000  0.3692020000000 1.0
C      1  0.4312010000000  0.4510700000000  0.2879250000000 1.0
C      1  0.5980160000000  0.3048160000000  0.6316180000000 1.0
C      1  0.6555710000000  0.3027170000000  0.4523640000000 1.0
C      1  0.5017780000000  0.3032830000000  0.3410720000000 1.0
C      1  0.3471030000000  0.3032400000000  0.4505980000000 1.0
C      1  0.4042460000000  0.3063400000000  0.6296920000000 1.0
C      1  0.5980150000000  0.6951840000000  0.6316180000000 1.0
C      1  0.6555710000000  0.6972830000000  0.4523640000000 1.0
C      1  0.5017780000000  0.6967170000000  0.3410720000000 1.0
C      1  0.3471030000000  0.6967600000000  0.4505980000000 1.0
C      1  0.4042460000000  0.6936600000000  0.6296920000000 1.0
C      1  0.6718530000000  0.5583530000000  0.5259480000000 1.0
C      1  0.5817660000000  0.5566530000000  0.3358710000000 1.0
C      1  0.3674900000000  0.5567760000000  0.3696580000000 1.0
C      1  0.3426950000000  0.5571000000000  0.5803260000000 1.0
C      1  0.5384850000000  0.5483650000000  0.7135490000000 1.0
C      1  0.6718530000000  0.4416470000000  0.5259480000000 1.0
C      1  0.5817650000000  0.4433470000000  0.3358720000000 1.0
C      1  0.3674900000000  0.4432240000000  0.3696580000000 1.0
C      1  0.3426950000000  0.4429000000000  0.5803260000000 1.0
C      1  0.5384850000000  0.4516350000000  0.7135490000000 1.0
END
