TITL C-1525613-7943-1831 0.0591069389086025 3375 -8928.2941713171 0 0 60 (D5h) n - 1
REM
REM in /home/nfs/bkarasulu/CARBON/AIRSS/Generating-Clusters/ReaxFF-fromJPCA2015/Units_Real/Try2-Higher-symm/Only-C60
REM
REM
REM
REM
REM
REM ./C.cell (863b2abdce7293c0672fb3ba77bf323a)
REM AIRSS Version 0.9.1 bugfix July 2018 build 013d7b7c2542+ Fri, 06 Jul 2018 19:26:36 +0100
REM compiler GCC version 9.2.1 20190827 (Red Hat 9.2.1-1)
REM options -cpp -mtune=generic -march=x86-64 -g -O0 -fpre-include=/usr/include/finclude/math-vector-fortran.h
REM seed -1428181636 -1160666838 -1485220465 -769971195 -1282268476 1865213367 266125485 558154498 805389787 1435031851 807030092 -1257273492 329416155 -1436096899 -1889328403 -387617617 423605889 -1884896222 1359730514 -117989710 -683236872 -274184264 1036012758 -46156461 -1198311180 -100401317 -1057477943 1623813242 -1401305217 417241936 -2120522791 -863548192 2059379390
REM
CELL 1.54180   15.00000   15.00000   15.00000   90.00000   90.00000   90.00000
LATT -1
SFAC C  
C      1  0.5432150000000  0.4307040000000  0.4334970000000 1.0
C      1  0.5769990000000  0.4293600000000  0.5204990000000 1.0
C      1  0.5048160000000  0.4306800000000  0.5792780000000 1.0
C      1  0.4257370000000  0.4294760000000  0.5288310000000 1.0
C      1  0.4496530000000  0.4305740000000  0.4382170000000 1.0
C      1  0.5432150000000  0.5692960000000  0.4334970000000 1.0
C      1  0.5769990000000  0.5706400000000  0.5204990000000 1.0
C      1  0.5048160000000  0.5693200000000  0.5792780000000 1.0
C      1  0.4257370000000  0.5705240000000  0.5288310000000 1.0
C      1  0.4496530000000  0.5694260000000  0.4382170000000 1.0
C      1  0.3638180000000  0.2957610000000  0.4118750000000 1.0
C      1  0.5415150000000  0.2959150000000  0.3437810000000 1.0
C      1  0.6618080000000  0.2957620000000  0.4913390000000 1.0
C      1  0.5583820000000  0.2957500000000  0.6510270000000 1.0
C      1  0.3744610000000  0.2956870000000  0.6018880000000 1.0
C      1  0.3638180000000  0.7042390000000  0.4118750000000 1.0
C      1  0.5415150000000  0.7040850000000  0.3437810000000 1.0
C      1  0.6618080000000  0.7042380000000  0.4913390000000 1.0
C      1  0.5583820000000  0.7042500000000  0.6510270000000 1.0
C      1  0.3744610000000  0.7043130000000  0.6018880000000 1.0
C      1  0.3311310000000  0.4410010000000  0.5653660000000 1.0
C      1  0.3854110000000  0.4409820000000  0.3596570000000 1.0
C      1  0.5981270000000  0.4410040000000  0.3477870000000 1.0
C      1  0.6749100000000  0.4409450000000  0.5462990000000 1.0
C      1  0.5101260000000  0.4409450000000  0.6808840000000 1.0
C      1  0.3311310000000  0.5589990000000  0.5653660000000 1.0
C      1  0.3854110000000  0.5590180000000  0.3596570000000 1.0
C      1  0.5981270000000  0.5589960000000  0.3477870000000 1.0
C      1  0.6749100000000  0.5590550000000  0.5462990000000 1.0
C      1  0.5101260000000  0.5590550000000  0.6808840000000 1.0
C      1  0.4410610000000  0.2957710000000  0.3491260000000 1.0
C      1  0.6252350000000  0.2958610000000  0.3976430000000 1.0
C      1  0.6364280000000  0.2956790000000  0.5876120000000 1.0
C      1  0.4589830000000  0.2956710000000  0.6563890000000 1.0
C      1  0.3382370000000  0.2957500000000  0.5091410000000 1.0
C      1  0.4410610000000  0.7042290000000  0.3491260000000 1.0
C      1  0.6252350000000  0.7041390000000  0.3976430000000 1.0
C      1  0.6364280000000  0.7043210000000  0.5876120000000 1.0
C      1  0.4589830000000  0.7043290000000  0.6563890000000 1.0
C      1  0.3382370000000  0.7042500000000  0.5091410000000 1.0
C      1  0.5914300000000  0.3799760000000  0.6892440000000 1.0
C      1  0.3483240000000  0.3799940000000  0.6452050000000 1.0
C      1  0.3146780000000  0.3800790000000  0.4004810000000 1.0
C      1  0.5372140000000  0.3801210000000  0.2932870000000 1.0
C      1  0.7082910000000  0.3801300000000  0.4717510000000 1.0
C      1  0.5914300000000  0.6200240000000  0.6892440000000 1.0
C      1  0.3483240000000  0.6200060000000  0.6452050000000 1.0
C      1  0.3146780000000  0.6199210000000  0.4004810000000 1.0
C      1  0.5372140000000  0.6198790000000  0.2932870000000 1.0
C      1  0.7082910000000  0.6198700000000  0.4717510000000 1.0
C      1  0.4397710000000  0.6199680000000  0.2986520000000 1.0
C      1  0.6729230000000  0.6199180000000  0.3806790000000 1.0
C      1  0.6671510000000  0.6199230000000  0.6276130000000 1.0
C      1  0.4303650000000  0.6201180000000  0.6980930000000 1.0
C      1  0.2898020000000  0.6198700000000  0.4948600000000 1.0
C      1  0.4397710000000  0.3800320000000  0.2986520000000 1.0
C      1  0.6729230000000  0.3800820000000  0.3806790000000 1.0
C      1  0.6671510000000  0.3800770000000  0.6276130000000 1.0
C      1  0.4303650000000  0.3798820000000  0.6980930000000 1.0
C      1  0.2898020000000  0.3801300000000  0.4948600000000 1.0
END
