TITL C-1525613-7943-1211 1.67318469551841 3375 -7081.81801012474 0 0 60 (C1) n - 1
REM
REM in /home/nfs/bkarasulu/CARBON/AIRSS/Generating-Clusters/ReaxFF-fromJPCA2015/Units_Real/Try2-Higher-symm/Only-C60
REM
REM
REM
REM
REM
REM ./C.cell (863b2abdce7293c0672fb3ba77bf323a)
REM AIRSS Version 0.9.1 bugfix July 2018 build 013d7b7c2542+ Fri, 06 Jul 2018 19:26:36 +0100
REM compiler GCC version 9.2.1 20190827 (Red Hat 9.2.1-1)
REM options -cpp -mtune=generic -march=x86-64 -g -O0 -fpre-include=/usr/include/finclude/math-vector-fortran.h
REM seed -802707452 1259157563 2122064338 1541104431 31148395 -1066603845 -533374423 -2013847400 1234276082 -1278295580 -2144532167 1598344461 617209612 -113264729 1799553623 -723321819 173391792 -164919063 -194689761 1778747769 261189193 -1982841143 -598503312 -509238283 -1613677754 264614906 -1876793092 32544781 -2034623614 546171419 1801443174 789419756 -1748068712
REM
CELL 1.54180   15.00000   15.00000   15.00000   90.00000   90.00000   90.00000
LATT -1
SFAC C  
C      1  0.4335360000000  0.2411800000000  0.4898530000000 1.0
C      1  0.4212170000000  0.2928540000000  0.6398150000000 1.0
C      1  0.4141000000000  0.4153220000000  0.7321580000000 1.0
C      1  0.4215080000000  0.5696470000000  0.7398190000000 1.0
C      1  0.4192450000000  0.6969930000000  0.6564130000000 1.0
C      1  0.4236860000000  0.7481320000000  0.5080380000000 1.0
C      1  0.3976830000000  0.6974910000000  0.3664600000000 1.0
C      1  0.4227500000000  0.5866190000000  0.2645500000000 1.0
C      1  0.4233790000000  0.4315400000000  0.2611440000000 1.0
C      1  0.3958520000000  0.3115030000000  0.3544040000000 1.0
C      1  0.6853260000000  0.4572470000000  0.6498280000000 1.0
C      1  0.6801670000000  0.5547590000000  0.6481200000000 1.0
C      1  0.6796340000000  0.6319030000000  0.5878160000000 1.0
C      1  0.6784000000000  0.6565010000000  0.4928110000000 1.0
C      1  0.6793810000000  0.6208180000000  0.4042860000000 1.0
C      1  0.6862390000000  0.5415590000000  0.3493560000000 1.0
C      1  0.6791900000000  0.4439410000000  0.3520860000000 1.0
C      1  0.6819120000000  0.3687270000000  0.4133520000000 1.0
C      1  0.6793610000000  0.3436460000000  0.5074180000000 1.0
C      1  0.6760730000000  0.3770830000000  0.5972320000000 1.0
C      1  0.3368200000000  0.6251460000000  0.4000190000000 1.0
C      1  0.3424310000000  0.5383840000000  0.3582260000000 1.0
C      1  0.3439820000000  0.4504400000000  0.3660370000000 1.0
C      1  0.3382560000000  0.3677740000000  0.4122820000000 1.0
C      1  0.3391390000000  0.3576880000000  0.5078790000000 1.0
C      1  0.3442740000000  0.3896180000000  0.5914130000000 1.0
C      1  0.3435230000000  0.4596530000000  0.6521970000000 1.0
C      1  0.3425550000000  0.5511920000000  0.6348280000000 1.0
C      1  0.3402170000000  0.6281990000000  0.5829120000000 1.0
C      1  0.3428860000000  0.6431980000000  0.4929940000000 1.0
C      1  0.5911900000000  0.4466330000000  0.3121790000000 1.0
C      1  0.5935460000000  0.3288210000000  0.4031630000000 1.0
C      1  0.5927530000000  0.3025250000000  0.4925350000000 1.0
C      1  0.5888580000000  0.3595150000000  0.6325840000000 1.0
C      1  0.5896400000000  0.4385300000000  0.6888870000000 1.0
C      1  0.5915040000000  0.5521130000000  0.6873500000000 1.0
C      1  0.5905150000000  0.6736170000000  0.5966700000000 1.0
C      1  0.5918050000000  0.6997760000000  0.5070320000000 1.0
C      1  0.5918600000000  0.6399150000000  0.3695290000000 1.0
C      1  0.5936850000000  0.5596600000000  0.3098980000000 1.0
C      1  0.4420190000000  0.2979700000000  0.5542710000000 1.0
C      1  0.4485740000000  0.3629560000000  0.6701240000000 1.0
C      1  0.4486540000000  0.4906960000000  0.7193260000000 1.0
C      1  0.4459820000000  0.6186560000000  0.6803060000000 1.0
C      1  0.4474270000000  0.6993340000000  0.5793790000000 1.0
C      1  0.4492380000000  0.7089160000000  0.4396240000000 1.0
C      1  0.4499770000000  0.6493470000000  0.3243310000000 1.0
C      1  0.4490260000000  0.5095630000000  0.2871270000000 1.0
C      1  0.4477590000000  0.3782320000000  0.3213730000000 1.0
C      1  0.4496920000000  0.2843260000000  0.4131730000000 1.0
C      1  0.5266790000000  0.6993340000000  0.3379850000000 1.0
C      1  0.5168880000000  0.5624740000000  0.2454740000000 1.0
C      1  0.5232390000000  0.4035070000000  0.2626700000000 1.0
C      1  0.5249010000000  0.2824740000000  0.3592840000000 1.0
C      1  0.5227110000000  0.2447150000000  0.5220480000000 1.0
C      1  0.5214470000000  0.2996670000000  0.6631930000000 1.0
C      1  0.5146610000000  0.4341320000000  0.7533590000000 1.0
C      1  0.5232760000000  0.5972220000000  0.7348140000000 1.0
C      1  0.5192900000000  0.7192100000000  0.6418890000000 1.0
C      1  0.5204790000000  0.7574080000000  0.4766740000000 1.0
END
