TITL C-1525613-7943-5000 0.0214828376690488 3375 -8565.53451969213 0 0 60 (C1) n - 1
REM
REM in /home/nfs/bkarasulu/CARBON/AIRSS/Generating-Clusters/ReaxFF-fromJPCA2015/Units_Real/Try2-Higher-symm/Only-C60
REM
REM
REM
REM
REM
REM ./C.cell (863b2abdce7293c0672fb3ba77bf323a)
REM AIRSS Version 0.9.1 bugfix July 2018 build 013d7b7c2542+ Fri, 06 Jul 2018 19:26:36 +0100
REM compiler GCC version 9.2.1 20190827 (Red Hat 9.2.1-1)
REM options -cpp -mtune=generic -march=x86-64 -g -O0 -fpre-include=/usr/include/finclude/math-vector-fortran.h
REM seed 1030853483 -1091466240 -1483432904 1182740931 835169465 -1469799848 1172247273 622492474 1144554355 1429179624 1894767625 -1095766571 1931930980 1869572987 1184598679 -245199124 728560792 -305878788 -1326459425 -1794231928 1104207173 1434692143 -122616165 -1822908082 -535724653 1638583298 1967697437 -423397438 1294872467 -1498834830 133474858 -1033416802 2097845911
REM
CELL 1.54180   15.00000   15.00000   15.00000   90.00000   90.00000   90.00000
LATT -1
SFAC C  
C      1  0.5565230000000  0.4430060000000  0.5478700000000 1.0
C      1  0.4587200000000  0.4300760000000  0.5532590000000 1.0
C      1  0.4140350000000  0.5140690000000  0.5749890000000 1.0
C      1  0.4819290000000  0.5808530000000  0.5545200000000 1.0
C      1  0.5726330000000  0.5377270000000  0.5508410000000 1.0
C      1  0.5563420000000  0.4407610000000  0.4484960000000 1.0
C      1  0.4557070000000  0.4284910000000  0.4488310000000 1.0
C      1  0.4128810000000  0.5134110000000  0.4255210000000 1.0
C      1  0.4806080000000  0.5806300000000  0.4455510000000 1.0
C      1  0.5728390000000  0.5380980000000  0.4488360000000 1.0
C      1  0.3178250000000  0.3503330000000  0.5520170000000 1.0
C      1  0.3109040000000  0.6339930000000  0.5489750000000 1.0
C      1  0.5641930000000  0.7238120000000  0.5486490000000 1.0
C      1  0.7325280000000  0.5093670000000  0.5481570000000 1.0
C      1  0.5751350000000  0.2833800000000  0.5524200000000 1.0
C      1  0.3154250000000  0.3511270000000  0.4459870000000 1.0
C      1  0.3108240000000  0.6341250000000  0.4516980000000 1.0
C      1  0.5640800000000  0.7236830000000  0.4514660000000 1.0
C      1  0.7322740000000  0.5091110000000  0.4515050000000 1.0
C      1  0.5795540000000  0.2820960000000  0.4539660000000 1.0
C      1  0.4131870000000  0.3235260000000  0.4502050000000 1.0
C      1  0.3205480000000  0.5355700000000  0.4489940000000 1.0
C      1  0.4687830000000  0.6938720000000  0.4479550000000 1.0
C      1  0.6735230000000  0.5897920000000  0.4475600000000 1.0
C      1  0.6362080000000  0.3646470000000  0.4482750000000 1.0
C      1  0.4182710000000  0.3213180000000  0.5548060000000 1.0
C      1  0.3214190000000  0.5354100000000  0.5513570000000 1.0
C      1  0.4690010000000  0.6937430000000  0.5523400000000 1.0
C      1  0.6729130000000  0.5893940000000  0.5519450000000 1.0
C      1  0.6359870000000  0.3655810000000  0.5521030000000 1.0
C      1  0.4960320000000  0.2899440000000  0.6062730000000 1.0
C      1  0.2914130000000  0.4179150000000  0.6140820000000 1.0
C      1  0.3777910000000  0.6852520000000  0.6131150000000 1.0
C      1  0.6339450000000  0.6741510000000  0.6107750000000 1.0
C      1  0.7059200000000  0.4271530000000  0.6093630000000 1.0
C      1  0.4946910000000  0.2824050000000  0.3914450000000 1.0
C      1  0.2907580000000  0.4186230000000  0.3832230000000 1.0
C      1  0.3775920000000  0.6855100000000  0.3874480000000 1.0
C      1  0.6339130000000  0.6744340000000  0.3891340000000 1.0
C      1  0.7059820000000  0.4266600000000  0.3904690000000 1.0
C      1  0.6121930000000  0.5364470000000  0.2874370000000 1.0
C      1  0.5699850000000  0.4038000000000  0.2862380000000 1.0
C      1  0.4318050000000  0.4056720000000  0.2875080000000 1.0
C      1  0.3844710000000  0.5377010000000  0.2847020000000 1.0
C      1  0.4996080000000  0.6177410000000  0.2886740000000 1.0
C      1  0.6112170000000  0.5365610000000  0.7133670000000 1.0
C      1  0.5695710000000  0.4042310000000  0.7134700000000 1.0
C      1  0.4324280000000  0.4056770000000  0.7118680000000 1.0
C      1  0.3850090000000  0.5366260000000  0.7154710000000 1.0
C      1  0.4993020000000  0.6183920000000  0.7116520000000 1.0
C      1  0.4078520000000  0.6278820000000  0.2993990000000 1.0
C      1  0.5922930000000  0.6269270000000  0.3005940000000 1.0
C      1  0.6494770000000  0.4513960000000  0.3009080000000 1.0
C      1  0.5002010000000  0.3427790000000  0.3011670000000 1.0
C      1  0.3509310000000  0.4500960000000  0.2986890000000 1.0
C      1  0.4075410000000  0.6272020000000  0.7010180000000 1.0
C      1  0.5920360000000  0.6271890000000  0.6994320000000 1.0
C      1  0.6491960000000  0.4513880000000  0.6992550000000 1.0
C      1  0.5007020000000  0.3403440000000  0.6948710000000 1.0
C      1  0.3513480000000  0.4488990000000  0.6998600000000 1.0
END
