TITL C-1525613-7943-3986 0.0960441365757492 3375 -8573.73492158224 0 0 60 (Cs) n - 1
REM
REM in /home/nfs/bkarasulu/CARBON/AIRSS/Generating-Clusters/ReaxFF-fromJPCA2015/Units_Real/Try2-Higher-symm/Only-C60
REM
REM
REM
REM
REM
REM ./C.cell (863b2abdce7293c0672fb3ba77bf323a)
REM AIRSS Version 0.9.1 bugfix July 2018 build 013d7b7c2542+ Fri, 06 Jul 2018 19:26:36 +0100
REM compiler GCC version 9.2.1 20190827 (Red Hat 9.2.1-1)
REM options -cpp -mtune=generic -march=x86-64 -g -O0 -fpre-include=/usr/include/finclude/math-vector-fortran.h
REM seed -441054696 -1647810384 1999871430 -1884665541 877071925 -422373452 -949862143 -1976857640 294502698 -1187815750 -2114405814 41368801 908815083 1300623885 -820180652 823467266 1610284636 -2009389460 -1104172924 -1266336458 -1815883205 2103035578 -1775010313 -608665171 -769377762 502616032 -1605537514 -722016819 -770733387 253453649 469916075 792065460 1135668203
REM
CELL 1.54180   15.00000   15.00000   15.00000   90.00000   90.00000   90.00000
LATT -1
SFAC C  
C      1  0.5676850000000  0.2853300000000  0.4513060000000 1.0
C      1  0.7233020000000  0.5003920000000  0.4511990000000 1.0
C      1  0.5698850000000  0.7140360000000  0.4508660000000 1.0
C      1  0.3184200000000  0.6364880000000  0.4509570000000 1.0
C      1  0.3148020000000  0.3690940000000  0.4510810000000 1.0
C      1  0.5676850000000  0.2853300000000  0.5486940000000 1.0
C      1  0.7233020000000  0.5003920000000  0.5488010000000 1.0
C      1  0.5698850000000  0.7140360000000  0.5491340000000 1.0
C      1  0.3184200000000  0.6364880000000  0.5490430000000 1.0
C      1  0.3148020000000  0.3690940000000  0.5489190000000 1.0
C      1  0.4651380000000  0.3071640000000  0.4459320000000 1.0
C      1  0.6717530000000  0.4103840000000  0.4447750000000 1.0
C      1  0.6396970000000  0.6381190000000  0.4460720000000 1.0
C      1  0.4136840000000  0.6762860000000  0.4458420000000 1.0
C      1  0.3065750000000  0.4732160000000  0.4458060000000 1.0
C      1  0.4651380000000  0.3071640000000  0.5540680000000 1.0
C      1  0.6717530000000  0.4103840000000  0.5552250000000 1.0
C      1  0.6396970000000  0.6381190000000  0.5539280000000 1.0
C      1  0.4136840000000  0.6762860000000  0.5541580000000 1.0
C      1  0.3065750000000  0.4732160000000  0.5541940000000 1.0
C      1  0.4881590000000  0.4155780000000  0.5530290000000 1.0
C      1  0.5763240000000  0.4618610000000  0.5538470000000 1.0
C      1  0.5598910000000  0.5595640000000  0.5511970000000 1.0
C      1  0.4617600000000  0.5740240000000  0.5516180000000 1.0
C      1  0.4169970000000  0.4851860000000  0.5541840000000 1.0
C      1  0.4881590000000  0.4155780000000  0.4469710000000 1.0
C      1  0.5763240000000  0.4618610000000  0.4461530000000 1.0
C      1  0.5598910000000  0.5595640000000  0.4488030000000 1.0
C      1  0.4617600000000  0.5740240000000  0.4483820000000 1.0
C      1  0.4169970000000  0.4851860000000  0.4458160000000 1.0
C      1  0.6547320000000  0.5304910000000  0.3071810000000 1.0
C      1  0.5140540000000  0.6567920000000  0.3069540000000 1.0
C      1  0.3497110000000  0.5619180000000  0.3089420000000 1.0
C      1  0.3944780000000  0.3806770000000  0.3073760000000 1.0
C      1  0.5798860000000  0.3551760000000  0.3058880000000 1.0
C      1  0.6547320000000  0.5304910000000  0.6928190000000 1.0
C      1  0.5140540000000  0.6567920000000  0.6930460000000 1.0
C      1  0.3497110000000  0.5619180000000  0.6910580000000 1.0
C      1  0.3944780000000  0.3806770000000  0.6926240000000 1.0
C      1  0.5798860000000  0.3551760000000  0.6941120000000 1.0
C      1  0.6146710000000  0.4410900000000  0.2989030000000 1.0
C      1  0.5929100000000  0.6006050000000  0.3041140000000 1.0
C      1  0.4350970000000  0.6046300000000  0.3004130000000 1.0
C      1  0.3869640000000  0.4759970000000  0.2925770000000 1.0
C      1  0.4881780000000  0.3831930000000  0.2948010000000 1.0
C      1  0.6146710000000  0.4410900000000  0.7010970000000 1.0
C      1  0.5929110000000  0.6006050000000  0.6958860000000 1.0
C      1  0.4350970000000  0.6046300000000  0.6995870000000 1.0
C      1  0.3869640000000  0.4759970000000  0.7074230000000 1.0
C      1  0.4881780000000  0.3831930000000  0.7051990000000 1.0
C      1  0.4930810000000  0.7072820000000  0.6055470000000 1.0
C      1  0.2982140000000  0.5598820000000  0.6015060000000 1.0
C      1  0.3815880000000  0.3290810000000  0.6029800000000 1.0
C      1  0.6276520000000  0.3346380000000  0.6043800000000 1.0
C      1  0.6947110000000  0.5718260000000  0.6061530000000 1.0
C      1  0.4930810000000  0.7072820000000  0.3944530000000 1.0
C      1  0.2982140000000  0.5598820000000  0.3984940000000 1.0
C      1  0.3815880000000  0.3290810000000  0.3970200000000 1.0
C      1  0.6276520000000  0.3346380000000  0.3956200000000 1.0
C      1  0.6947110000000  0.5718260000000  0.3938470000000 1.0
END
