TITL C-1525613-7943-3595 0.0503667449126753 3375 -8651.5696528539 0 0 60 (Ci) n - 1
REM
REM in /home/nfs/bkarasulu/CARBON/AIRSS/Generating-Clusters/ReaxFF-fromJPCA2015/Units_Real/Try2-Higher-symm/Only-C60
REM
REM
REM
REM
REM
REM ./C.cell (863b2abdce7293c0672fb3ba77bf323a)
REM AIRSS Version 0.9.1 bugfix July 2018 build 013d7b7c2542+ Fri, 06 Jul 2018 19:26:36 +0100
REM compiler GCC version 9.2.1 20190827 (Red Hat 9.2.1-1)
REM options -cpp -mtune=generic -march=x86-64 -g -O0 -fpre-include=/usr/include/finclude/math-vector-fortran.h
REM seed -2114285146 1605903291 -1979602911 1879789915 -586351378 1258502646 -1895187085 -851963876 539075337 47393978 -2040013565 1433274277 827635127 -680584938 619074279 -1409242461 1794789653 -1514379243 1508135249 1246791935 935283402 -967016975 2074479410 -455034699 -1025090312 612128032 343059813 369176910 -1048513006 -1283048097 -1583775326 1708569667 1660560867
REM
CELL 1.54180   15.00000   15.00000   15.00000   90.00000   90.00000   90.00000
LATT -1
SFAC C  
C      1  0.4250750000000  0.4123070000000  0.4624680000000 1.0
C      1  0.4193320000000  0.5867750000000  0.5052140000000 1.0
C      1  0.4353510000000  0.4134390000000  0.5596190000000 1.0
C      1  0.4836370000000  0.5877500000000  0.5759030000000 1.0
C      1  0.5313810000000  0.4162330000000  0.5796810000000 1.0
C      1  0.5725790000000  0.5878030000000  0.5367400000000 1.0
C      1  0.5804220000000  0.4154400000000  0.4938600000000 1.0
C      1  0.5627950000000  0.5874400000000  0.4400640000000 1.0
C      1  0.5139020000000  0.4130140000000  0.4215280000000 1.0
C      1  0.4670600000000  0.5855000000000  0.4207390000000 1.0
C      1  0.5636450000000  0.7477470000000  0.4472160000000 1.0
C      1  0.5238470000000  0.2546090000000  0.4242980000000 1.0
C      1  0.4710290000000  0.7434590000000  0.4197640000000 1.0
C      1  0.4334280000000  0.2526510000000  0.4569590000000 1.0
C      1  0.4169420000000  0.7422480000000  0.5005160000000 1.0
C      1  0.4371950000000  0.2532870000000  0.5530470000000 1.0
C      1  0.4770060000000  0.7464300000000  0.5759850000000 1.0
C      1  0.5296350000000  0.2582790000000  0.5809010000000 1.0
C      1  0.5673360000000  0.7477900000000  0.5432730000000 1.0
C      1  0.5838030000000  0.2592070000000  0.5002030000000 1.0
C      1  0.3531560000000  0.5405360000000  0.7131560000000 1.0
C      1  0.5045190000000  0.4516350000000  0.7582480000000 1.0
C      1  0.6500180000000  0.5402640000000  0.7044010000000 1.0
C      1  0.7427900000000  0.4520810000000  0.5780830000000 1.0
C      1  0.7506700000000  0.5467180000000  0.4253160000000 1.0
C      1  0.6470670000000  0.4588670000000  0.2859850000000 1.0
C      1  0.4956350000000  0.5479500000000  0.2435330000000 1.0
C      1  0.3499920000000  0.4582520000000  0.2944630000000 1.0
C      1  0.2599860000000  0.5480180000000  0.4228490000000 1.0
C      1  0.2485530000000  0.4529390000000  0.5742960000000 1.0
C      1  0.2926490000000  0.4993200000000  0.6470210000000 1.0
C      1  0.4290280000000  0.4850350000000  0.7335880000000 1.0
C      1  0.5671540000000  0.5052000000000  0.7370040000000 1.0
C      1  0.6916480000000  0.4841830000000  0.6396910000000 1.0
C      1  0.7474080000000  0.5067980000000  0.5135400000000 1.0
C      1  0.7066590000000  0.5006160000000  0.3524230000000 1.0
C      1  0.5710770000000  0.5145200000000  0.2674490000000 1.0
C      1  0.4330120000000  0.4943460000000  0.2636110000000 1.0
C      1  0.3073240000000  0.5129740000000  0.3594620000000 1.0
C      1  0.2526210000000  0.4924480000000  0.4858520000000 1.0
C      1  0.5170840000000  0.3784920000000  0.7146760000000 1.0
C      1  0.6459390000000  0.6195230000000  0.6488200000000 1.0
C      1  0.7062210000000  0.3798990000000  0.5490070000000 1.0
C      1  0.6935100000000  0.6249020000000  0.4107410000000 1.0
C      1  0.5959800000000  0.3816890000000  0.3147450000000 1.0
C      1  0.4832100000000  0.6215070000000  0.2874940000000 1.0
C      1  0.3535100000000  0.3785910000000  0.3496960000000 1.0
C      1  0.2969060000000  0.6195220000000  0.4541720000000 1.0
C      1  0.3053260000000  0.3746250000000  0.5891620000000 1.0
C      1  0.4040810000000  0.6177010000000  0.6841510000000 1.0
C      1  0.3869110000000  0.3318200000000  0.5954570000000 1.0
C      1  0.4681440000000  0.6653870000000  0.6381650000000 1.0
C      1  0.5499280000000  0.3383910000000  0.6378000000000 1.0
C      1  0.6248050000000  0.6674750000000  0.5738350000000 1.0
C      1  0.6435830000000  0.3393500000000  0.4939870000000 1.0
C      1  0.6122840000000  0.6683000000000  0.4045480000000 1.0
C      1  0.5319570000000  0.3337340000000  0.3599970000000 1.0
C      1  0.4494220000000  0.6634520000000  0.3632730000000 1.0
C      1  0.3745680000000  0.3311940000000  0.4252060000000 1.0
C      1  0.3602670000000  0.6603380000000  0.5071180000000 1.0
END
