TITL C-1525613-7943-5443 -0.0250323585766312 3375 -8433.13633043321 0 0 60 (D5) n - 1
REM
REM in /home/nfs/bkarasulu/CARBON/AIRSS/Generating-Clusters/ReaxFF-fromJPCA2015/Units_Real/Try2-Higher-symm/Only-C60
REM
REM
REM
REM
REM
REM ./C.cell (863b2abdce7293c0672fb3ba77bf323a)
REM AIRSS Version 0.9.1 bugfix July 2018 build 013d7b7c2542+ Fri, 06 Jul 2018 19:26:36 +0100
REM compiler GCC version 9.2.1 20190827 (Red Hat 9.2.1-1)
REM options -cpp -mtune=generic -march=x86-64 -g -O0 -fpre-include=/usr/include/finclude/math-vector-fortran.h
REM seed -644870128 -475205257 1356047063 1044567296 1717357003 688935898 684892559 935963686 -586397157 -1309562621 -831691257 1783321279 -220095537 -1456668166 143037696 900840286 2105217032 -1644756507 -731619773 1449493517 -1193523990 -1390966475 -1530933873 2107715172 -777743668 -614533286 1661463562 1215211680 795222756 -786269993 1501498011 -369494959 -2040740940
REM
CELL 1.54180   15.00000   15.00000   15.00000   90.00000   90.00000   90.00000
LATT -1
SFAC C  
C      1  0.3846330000000  0.7171620000000  0.5233010000000 1.0
C      1  0.6718130000000  0.6778620000000  0.5235520000000 1.0
C      1  0.7222780000000  0.3918580000000  0.5227400000000 1.0
C      1  0.4659490000000  0.2563240000000  0.5243190000000 1.0
C      1  0.2563140000000  0.4568930000000  0.5231080000000 1.0
C      1  0.3846330000000  0.2828380000000  0.4766990000000 1.0
C      1  0.6718130000000  0.3221380000000  0.4764480000000 1.0
C      1  0.7222780000000  0.6081420000000  0.4772600000000 1.0
C      1  0.4659490000000  0.7436760000000  0.4756810000000 1.0
C      1  0.2563140000000  0.5431070000000  0.4768920000000 1.0
C      1  0.4097790000000  0.5030990000000  0.4508340000000 1.0
C      1  0.4758740000000  0.5848660000000  0.4510630000000 1.0
C      1  0.5756080000000  0.5467870000000  0.4515990000000 1.0
C      1  0.5709130000000  0.4469250000000  0.4508320000000 1.0
C      1  0.4688840000000  0.4190770000000  0.4497060000000 1.0
C      1  0.4097790000000  0.4969010000000  0.5491660000000 1.0
C      1  0.4758740000000  0.4151340000000  0.5489370000000 1.0
C      1  0.5756080000000  0.4532130000000  0.5484010000000 1.0
C      1  0.5709130000000  0.5530750000000  0.5491680000000 1.0
C      1  0.4688840000000  0.5809230000000  0.5502940000000 1.0
C      1  0.3385410000000  0.6553800000000  0.4641820000000 1.0
C      1  0.5987950000000  0.7018540000000  0.4640160000000 1.0
C      1  0.7225050000000  0.4692720000000  0.4638440000000 1.0
C      1  0.5392880000000  0.2795660000000  0.4645800000000 1.0
C      1  0.3016200000000  0.3944570000000  0.4638920000000 1.0
C      1  0.3385410000000  0.3446200000000  0.5358180000000 1.0
C      1  0.5987950000000  0.2981460000000  0.5359840000000 1.0
C      1  0.7225050000000  0.5307280000000  0.5361560000000 1.0
C      1  0.5392880000000  0.7204340000000  0.5354200000000 1.0
C      1  0.3016200000000  0.6055430000000  0.5361080000000 1.0
C      1  0.4341120000000  0.5553120000000  0.3183650000000 1.0
C      1  0.5321090000000  0.5792160000000  0.3180690000000 1.0
C      1  0.5847380000000  0.4935560000000  0.3192540000000 1.0
C      1  0.5208680000000  0.4170400000000  0.3186290000000 1.0
C      1  0.4268760000000  0.4552170000000  0.3185650000000 1.0
C      1  0.4341120000000  0.4446880000000  0.6816350000000 1.0
C      1  0.5321090000000  0.4207840000000  0.6819310000000 1.0
C      1  0.5847380000000  0.5064440000000  0.6807460000000 1.0
C      1  0.5208680000000  0.5829600000000  0.6813710000000 1.0
C      1  0.4268760000000  0.5447830000000  0.6814350000000 1.0
C      1  0.4714300000000  0.3220280000000  0.6010190000000 1.0
C      1  0.3219150000000  0.4722060000000  0.5990860000000 1.0
C      1  0.4191090000000  0.6606850000000  0.6006030000000 1.0
C      1  0.6270410000000  0.6263840000000  0.5992130000000 1.0
C      1  0.6598640000000  0.4176630000000  0.5989320000000 1.0
C      1  0.4714300000000  0.6779720000000  0.3989810000000 1.0
C      1  0.3219150000000  0.5277940000000  0.4009140000000 1.0
C      1  0.4191090000000  0.3393150000000  0.3993970000000 1.0
C      1  0.6270410000000  0.3736160000000  0.4007870000000 1.0
C      1  0.6598640000000  0.5823370000000  0.4010680000000 1.0
C      1  0.3556500000000  0.4040240000000  0.3657850000000 1.0
C      1  0.3636800000000  0.6072690000000  0.3649440000000 1.0
C      1  0.5608440000000  0.6622420000000  0.3656480000000 1.0
C      1  0.6725010000000  0.4933660000000  0.3654730000000 1.0
C      1  0.5464670000000  0.3332920000000  0.3654890000000 1.0
C      1  0.3556500000000  0.5959760000000  0.6342150000000 1.0
C      1  0.3636800000000  0.3927310000000  0.6350560000000 1.0
C      1  0.5608440000000  0.3377580000000  0.6343520000000 1.0
C      1  0.6725010000000  0.5066340000000  0.6345270000000 1.0
C      1  0.5464670000000  0.6667080000000  0.6345110000000 1.0
END
