TITL C-1525613-7943-4124 0.0100947868094335 3375 -8785.41274830916 0 0 60 (C1) n - 1
REM
REM in /home/nfs/bkarasulu/CARBON/AIRSS/Generating-Clusters/ReaxFF-fromJPCA2015/Units_Real/Try2-Higher-symm/Only-C60
REM
REM
REM
REM
REM
REM ./C.cell (863b2abdce7293c0672fb3ba77bf323a)
REM AIRSS Version 0.9.1 bugfix July 2018 build 013d7b7c2542+ Fri, 06 Jul 2018 19:26:36 +0100
REM compiler GCC version 9.2.1 20190827 (Red Hat 9.2.1-1)
REM options -cpp -mtune=generic -march=x86-64 -g -O0 -fpre-include=/usr/include/finclude/math-vector-fortran.h
REM seed -2040319242 1869151492 1431238891 -9999184 743296286 -788869041 481648879 1206732597 -265240662 929103063 -1063719793 -2078778036 2031432778 1169493775 1215330219 -919908223 -2041551411 584544831 -91861881 1995140456 -521476946 -1021851082 -1405309809 811313056 1648550206 -2087399234 -1244266366 -1207722355 -954705876 340018777 -1906138778 -410721475 862505529
REM
CELL 1.54180   15.00000   15.00000   15.00000   90.00000   90.00000   90.00000
LATT -1
SFAC C  
C      1  0.3835860000000  0.6695950000000  0.2109240000000 1.0
C      1  0.5788000000000  0.3516810000000  0.1772050000000 1.0
C      1  0.6727660000000  0.5669020000000  0.2849290000000 1.0
C      1  0.7109670000000  0.4238060000000  0.3773350000000 1.0
C      1  0.6911640000000  0.5317780000000  0.6043700000000 1.0
C      1  0.6113660000000  0.3322520000000  0.7874560000000 1.0
C      1  0.4314350000000  0.6597410000000  0.8241880000000 1.0
C      1  0.3325090000000  0.4246740000000  0.7161390000000 1.0
C      1  0.2961410000000  0.5772050000000  0.6248540000000 1.0
C      1  0.3042330000000  0.4656520000000  0.3916280000000 1.0
C      1  0.6488540000000  0.6136570000000  0.5755260000000 1.0
C      1  0.6521980000000  0.2789500000000  0.7388750000000 1.0
C      1  0.4349500000000  0.6924600000000  0.7408470000000 1.0
C      1  0.3909490000000  0.3754780000000  0.6661560000000 1.0
C      1  0.2638580000000  0.6623710000000  0.6119200000000 1.0
C      1  0.3470470000000  0.3869310000000  0.4232690000000 1.0
C      1  0.3427270000000  0.7225120000000  0.2605640000000 1.0
C      1  0.5715810000000  0.3129660000000  0.2566600000000 1.0
C      1  0.6136160000000  0.6213760000000  0.3296840000000 1.0
C      1  0.7580770000000  0.3340340000000  0.3796320000000 1.0
C      1  0.4375960000000  0.7173320000000  0.5738460000000 1.0
C      1  0.5006340000000  0.2833720000000  0.5668230000000 1.0
C      1  0.3600320000000  0.6891280000000  0.5135360000000 1.0
C      1  0.4768670000000  0.2809060000000  0.4700510000000 1.0
C      1  0.3999880000000  0.7109410000000  0.4228960000000 1.0
C      1  0.5624020000000  0.2798170000000  0.4210370000000 1.0
C      1  0.4994490000000  0.7108540000000  0.4287450000000 1.0
C      1  0.6400830000000  0.3085200000000  0.4838640000000 1.0
C      1  0.5231860000000  0.7159930000000  0.5245520000000 1.0
C      1  0.5989510000000  0.2845450000000  0.5753880000000 1.0
C      1  0.4441520000000  0.3309310000000  0.6206470000000 1.0
C      1  0.2660060000000  0.7346250000000  0.5552090000000 1.0
C      1  0.4086200000000  0.3365070000000  0.4455150000000 1.0
C      1  0.3623920000000  0.7195980000000  0.3391590000000 1.0
C      1  0.5662280000000  0.2957540000000  0.3324480000000 1.0
C      1  0.5582960000000  0.6641350000000  0.3761190000000 1.0
C      1  0.7304390000000  0.2708680000000  0.4496680000000 1.0
C      1  0.5920680000000  0.6609170000000  0.5520400000000 1.0
C      1  0.6340360000000  0.2793270000000  0.6601080000000 1.0
C      1  0.4368350000000  0.7053310000000  0.6643120000000 1.0
C      1  0.6647200000000  0.4161760000000  0.4652890000000 1.0
C      1  0.5810180000000  0.5161110000000  0.7467160000000 1.0
C      1  0.5321790000000  0.4845570000000  0.8183500000000 1.0
C      1  0.4338920000000  0.5216720000000  0.8369480000000 1.0
C      1  0.3584260000000  0.4981730000000  0.7784740000000 1.0
C      1  0.3409000000000  0.5802840000000  0.5315720000000 1.0
C      1  0.4149050000000  0.4841080000000  0.2502560000000 1.0
C      1  0.4650130000000  0.5173490000000  0.1789430000000 1.0
C      1  0.5656740000000  0.4895290000000  0.1736840000000 1.0
C      1  0.6105140000000  0.5021030000000  0.2619820000000 1.0
C      1  0.3641360000000  0.4714410000000  0.3154980000000 1.0
C      1  0.4272060000000  0.6015320000000  0.1811520000000 1.0
C      1  0.5809780000000  0.4105320000000  0.1256210000000 1.0
C      1  0.6934730000000  0.4739280000000  0.2985980000000 1.0
C      1  0.6775690000000  0.4719640000000  0.5323730000000 1.0
C      1  0.6317460000000  0.5270880000000  0.6809570000000 1.0
C      1  0.5675270000000  0.4002040000000  0.8178670000000 1.0
C      1  0.4297710000000  0.6058180000000  0.8802590000000 1.0
C      1  0.3021890000000  0.5193650000000  0.7036050000000 1.0
C      1  0.3230830000000  0.5246430000000  0.4637320000000 1.0
END
