TITL C-1525613-7943-4294 0.0392903738487051 3375 -9438.90397466249 0 0 60 (C1) n - 1
REM
REM in /home/nfs/bkarasulu/CARBON/AIRSS/Generating-Clusters/ReaxFF-fromJPCA2015/Units_Real/Try2-Higher-symm/Only-C60
REM
REM
REM
REM
REM
REM ./C.cell (863b2abdce7293c0672fb3ba77bf323a)
REM AIRSS Version 0.9.1 bugfix July 2018 build 013d7b7c2542+ Fri, 06 Jul 2018 19:26:36 +0100
REM compiler GCC version 9.2.1 20190827 (Red Hat 9.2.1-1)
REM options -cpp -mtune=generic -march=x86-64 -g -O0 -fpre-include=/usr/include/finclude/math-vector-fortran.h
REM seed 1342895930 934710980 1526242505 102191200 1427876081 521337035 -286705663 1162691806 1611254782 -466008184 -592106058 -693315420 577218890 2056922437 -22894709 -1072958003 -1631322556 -2004568119 -1900904896 -1726215727 1711518927 -1131822566 -1590676227 -1731991440 1140779947 19730921 -1396024420 848403898 -1832222553 -1212498550 1265644483 1980869744 1229822674
REM
CELL 1.54180   15.00000   15.00000   15.00000   90.00000   90.00000   90.00000
LATT -1
SFAC C  
C      1  0.5169570000000  0.6245110000000  0.7629140000000 1.0
C      1  0.5402480000000  0.7203140000000  0.6368460000000 1.0
C      1  0.5189680000000  0.7470790000000  0.4679450000000 1.0
C      1  0.5302870000000  0.6921660000000  0.3204480000000 1.0
C      1  0.5175250000000  0.5287670000000  0.2645710000000 1.0
C      1  0.5183430000000  0.3746200000000  0.2388130000000 1.0
C      1  0.5410960000000  0.2804570000000  0.3655960000000 1.0
C      1  0.5192290000000  0.2550980000000  0.5324850000000 1.0
C      1  0.5294640000000  0.3110580000000  0.6742750000000 1.0
C      1  0.5166520000000  0.4699190000000  0.7358890000000 1.0
C      1  0.4823480000000  0.3819240000000  0.7174600000000 1.0
C      1  0.4585280000000  0.5468350000000  0.7546760000000 1.0
C      1  0.4808210000000  0.6990570000000  0.7111370000000 1.0
C      1  0.4837390000000  0.7296370000000  0.5567490000000 1.0
C      1  0.4706960000000  0.7351970000000  0.3842440000000 1.0
C      1  0.4823720000000  0.6177790000000  0.2795190000000 1.0
C      1  0.4593340000000  0.4517240000000  0.2463930000000 1.0
C      1  0.4820790000000  0.3007660000000  0.2910550000000 1.0
C      1  0.4838950000000  0.2720280000000  0.4449320000000 1.0
C      1  0.4731620000000  0.2694590000000  0.6139350000000 1.0
C      1  0.3957830000000  0.3068110000000  0.4226090000000 1.0
C      1  0.3848780000000  0.2925770000000  0.6322360000000 1.0
C      1  0.3874050000000  0.3626440000000  0.7005900000000 1.0
C      1  0.3809240000000  0.5757400000000  0.7021620000000 1.0
C      1  0.3963640000000  0.6682700000000  0.6725740000000 1.0
C      1  0.3945700000000  0.6946530000000  0.5787290000000 1.0
C      1  0.3784720000000  0.7075640000000  0.3633940000000 1.0
C      1  0.3866010000000  0.6351610000000  0.2958470000000 1.0
C      1  0.3823210000000  0.4230540000000  0.2989160000000 1.0
C      1  0.3975070000000  0.3312280000000  0.3287300000000 1.0
C      1  0.2871530000000  0.4317540000000  0.4333370000000 1.0
C      1  0.3303790000000  0.3551030000000  0.4790780000000 1.0
C      1  0.3237630000000  0.3466150000000  0.5778100000000 1.0
C      1  0.3244010000000  0.4154480000000  0.6474110000000 1.0
C      1  0.3235810000000  0.5162050000000  0.6453090000000 1.0
C      1  0.3204350000000  0.5730540000000  0.5735120000000 1.0
C      1  0.3320820000000  0.6431700000000  0.5180460000000 1.0
C      1  0.3202790000000  0.6494140000000  0.4169950000000 1.0
C      1  0.3250380000000  0.5789200000000  0.3492390000000 1.0
C      1  0.3234060000000  0.4791550000000  0.3541290000000 1.0
C      1  0.6226790000000  0.7016370000000  0.3526880000000 1.0
C      1  0.6068930000000  0.4953500000000  0.2882010000000 1.0
C      1  0.6038200000000  0.3983680000000  0.2794420000000 1.0
C      1  0.6197120000000  0.3378870000000  0.3552790000000 1.0
C      1  0.6146940000000  0.2626160000000  0.5550190000000 1.0
C      1  0.6187550000000  0.3012830000000  0.6450660000000 1.0
C      1  0.6058250000000  0.5040990000000  0.7130030000000 1.0
C      1  0.6025960000000  0.6010670000000  0.7222420000000 1.0
C      1  0.6188060000000  0.6622790000000  0.6468590000000 1.0
C      1  0.6148960000000  0.7388870000000  0.4447990000000 1.0
C      1  0.6767140000000  0.6691960000000  0.4770500000000 1.0
C      1  0.6809850000000  0.6304800000000  0.3881300000000 1.0
C      1  0.6694330000000  0.5332530000000  0.3577580000000 1.0
C      1  0.6813440000000  0.4567370000000  0.4032410000000 1.0
C      1  0.6779860000000  0.3695620000000  0.4304670000000 1.0
C      1  0.6781530000000  0.3311100000000  0.5238370000000 1.0
C      1  0.6795570000000  0.3704070000000  0.6127030000000 1.0
C      1  0.6692550000000  0.4668350000000  0.6438210000000 1.0
C      1  0.6804790000000  0.5436210000000  0.5982660000000 1.0
C      1  0.6763350000000  0.6303860000000  0.5715940000000 1.0
END
