TITL C-1525613-7943-7457 0.0701982954602883 3375 -9125.10406212406 0 0 60 (Ci) n - 1
REM
REM in /home/nfs/bkarasulu/CARBON/AIRSS/Generating-Clusters/ReaxFF-fromJPCA2015/Units_Real/Try2-Higher-symm/Only-C60
REM
REM
REM
REM
REM
REM ./C.cell (863b2abdce7293c0672fb3ba77bf323a)
REM AIRSS Version 0.9.1 bugfix July 2018 build 013d7b7c2542+ Fri, 06 Jul 2018 19:26:36 +0100
REM compiler GCC version 9.2.1 20190827 (Red Hat 9.2.1-1)
REM options -cpp -mtune=generic -march=x86-64 -g -O0 -fpre-include=/usr/include/finclude/math-vector-fortran.h
REM seed -1382997370 -652996392 59099043 -325725580 1395903158 -1980646329 1754843786 857412241 -1775509487 7723508 639881252 -1117361973 -859974348 -1796445091 -1456072241 175885824 881677820 -465031657 -1564783733 -45363665 -1077098150 -391954477 137145348 2071576558 2070966643 724310040 71267853 1968803018 -586073144 1993618740 -1336919065 696590624 -753286364
REM
CELL 1.54180   15.00000   15.00000   15.00000   90.00000   90.00000   90.00000
LATT -1
SFAC C  
C      1  0.6688110000000  0.6814650000000  0.4990380000000 1.0
C      1  0.3234000000000  0.6479030000000  0.3965640000000 1.0
C      1  0.6672150000000  0.5585720000000  0.3270320000000 1.0
C      1  0.3388550000000  0.4464840000000  0.3311800000000 1.0
C      1  0.6623830000000  0.3551050000000  0.3880660000000 1.0
C      1  0.3311860000000  0.3185340000000  0.5009640000000 1.0
C      1  0.6765970000000  0.3520890000000  0.6034420000000 1.0
C      1  0.3328000000000  0.4414380000000  0.6729570000000 1.0
C      1  0.6611560000000  0.5535070000000  0.6688130000000 1.0
C      1  0.3374780000000  0.6448920000000  0.6117440000000 1.0
C      1  0.3484620000000  0.2851320000000  0.5848650000000 1.0
C      1  0.6334930000000  0.3838630000000  0.6792770000000 1.0
C      1  0.3701680000000  0.5051900000000  0.7194820000000 1.0
C      1  0.6319720000000  0.6414900000000  0.6639340000000 1.0
C      1  0.3771390000000  0.7088680000000  0.5646870000000 1.0
C      1  0.6515370000000  0.7148700000000  0.4151380000000 1.0
C      1  0.3665070000000  0.6161330000000  0.3207210000000 1.0
C      1  0.6298490000000  0.4949220000000  0.2804860000000 1.0
C      1  0.3681540000000  0.3585170000000  0.3360590000000 1.0
C      1  0.6228300000000  0.2911470000000  0.4352310000000 1.0
C      1  0.5840380000000  0.2409690000000  0.5027240000000 1.0
C      1  0.3825030000000  0.2865280000000  0.6648670000000 1.0
C      1  0.5642870000000  0.4237320000000  0.7246220000000 1.0
C      1  0.4094110000000  0.5799920000000  0.7547880000000 1.0
C      1  0.5734270000000  0.7083680000000  0.6358880000000 1.0
C      1  0.4159720000000  0.7590430000000  0.4972690000000 1.0
C      1  0.6174960000000  0.7134750000000  0.3351350000000 1.0
C      1  0.4357110000000  0.5762520000000  0.2753820000000 1.0
C      1  0.5907170000000  0.4199080000000  0.2452900000000 1.0
C      1  0.4265860000000  0.2916640000000  0.3640920000000 1.0
C      1  0.3975340000000  0.6577220000000  0.6913780000000 1.0
C      1  0.5848150000000  0.7194350000000  0.5366950000000 1.0
C      1  0.3891700000000  0.7221160000000  0.4068570000000 1.0
C      1  0.6029810000000  0.6312760000000  0.2922360000000 1.0
C      1  0.4198100000000  0.4773590000000  0.2799010000000 1.0
C      1  0.6022900000000  0.3423280000000  0.3087830000000 1.0
C      1  0.4151830000000  0.2805660000000  0.4632850000000 1.0
C      1  0.6108300000000  0.2778840000000  0.5931400000000 1.0
C      1  0.3970030000000  0.3687400000000  0.7077520000000 1.0
C      1  0.5801800000000  0.5226170000000  0.7201190000000 1.0
C      1  0.4919170000000  0.3668520000000  0.6806250000000 1.0
C      1  0.5103730000000  0.5875610000000  0.7394810000000 1.0
C      1  0.4958290000000  0.6671680000000  0.6853490000000 1.0
C      1  0.5120630000000  0.7363680000000  0.4749540000000 1.0
C      1  0.4849540000000  0.7056880000000  0.3849550000000 1.0
C      1  0.5080820000000  0.6331480000000  0.3193750000000 1.0
C      1  0.4896400000000  0.4124120000000  0.2605480000000 1.0
C      1  0.5042040000000  0.3327820000000  0.3147300000000 1.0
C      1  0.4879390000000  0.2636300000000  0.5250440000000 1.0
C      1  0.5150470000000  0.2943130000000  0.6150480000000 1.0
C      1  0.3077420000000  0.4165530000000  0.4985720000000 1.0
C      1  0.6934010000000  0.4327300000000  0.5429960000000 1.0
C      1  0.3084380000000  0.4716750000000  0.5778980000000 1.0
C      1  0.6912050000000  0.5233660000000  0.5766670000000 1.0
C      1  0.3101500000000  0.5633660000000  0.5526650000000 1.0
C      1  0.6922580000000  0.5834550000000  0.5014320000000 1.0
C      1  0.3066010000000  0.5672650000000  0.4569830000000 1.0
C      1  0.6915710000000  0.5283010000000  0.4221300000000 1.0
C      1  0.3087990000000  0.4766410000000  0.4233320000000 1.0
C      1  0.6898460000000  0.4366300000000  0.4473330000000 1.0
END
