TITL C-1525613-7943-7765 1.57610396600523e-05 3375 -8852.8737614576 0 0 60 (C1) n - 1
REM
REM in /home/nfs/bkarasulu/CARBON/AIRSS/Generating-Clusters/ReaxFF-fromJPCA2015/Units_Real/Try2-Higher-symm/Only-C60
REM
REM
REM
REM
REM
REM ./C.cell (863b2abdce7293c0672fb3ba77bf323a)
REM AIRSS Version 0.9.1 bugfix July 2018 build 013d7b7c2542+ Fri, 06 Jul 2018 19:26:36 +0100
REM compiler GCC version 9.2.1 20190827 (Red Hat 9.2.1-1)
REM options -cpp -mtune=generic -march=x86-64 -g -O0 -fpre-include=/usr/include/finclude/math-vector-fortran.h
REM seed -556710704 -1519549383 -973828641 -1546942148 -1467350209 2006595534 -2098553110 -1784148480 -117272288 1036105675 980263220 1170881167 -1627486292 -568468996 683853674 -664720119 322803831 -808535652 -2101189412 1177456759 2072191538 897699040 1691540129 92799999 -1073608323 -1045164782 -965020897 -1217158979 2110247294 -2047591577 824853217 -2086408940 -1727296828
REM
CELL 1.54180   15.00000   15.00000   15.00000   90.00000   90.00000   90.00000
LATT -1
SFAC C  
C      1  0.5739280000000  0.2812530000000  0.4665600000000 1.0
C      1  0.5442430000000  0.7138540000000  0.4299740000000 1.0
C      1  0.4924630000000  0.2854850000000  0.4155480000000 1.0
C      1  0.4490590000000  0.7156010000000  0.4396820000000 1.0
C      1  0.4208710000000  0.2830890000000  0.4803030000000 1.0
C      1  0.4263800000000  0.7185920000000  0.5329500000000 1.0
C      1  0.4555600000000  0.2860890000000  0.5700800000000 1.0
C      1  0.5075640000000  0.7145490000000  0.5839040000000 1.0
C      1  0.5518640000000  0.2840210000000  0.5610300000000 1.0
C      1  0.5790620000000  0.7170880000000  0.5193530000000 1.0
C      1  0.2796330000000  0.3423940000000  0.5293840000000 1.0
C      1  0.3381050000000  0.6591470000000  0.6530510000000 1.0
C      1  0.4741580000000  0.3402160000000  0.7207140000000 1.0
C      1  0.6105950000000  0.6573420000000  0.6934860000000 1.0
C      1  0.7013910000000  0.3459210000000  0.5929500000000 1.0
C      1  0.7216580000000  0.6574770000000  0.4716020000000 1.0
C      1  0.6611590000000  0.3406700000000  0.3467350000000 1.0
C      1  0.5252440000000  0.6593920000000  0.2803360000000 1.0
C      1  0.3893300000000  0.3426160000000  0.3063060000000 1.0
C      1  0.3027950000000  0.6489840000000  0.3987790000000 1.0
C      1  0.4326860000000  0.5215870000000  0.3725580000000 1.0
C      1  0.3711150000000  0.4812740000000  0.4370310000000 1.0
C      1  0.3599670000000  0.5215440000000  0.5245760000000 1.0
C      1  0.4040300000000  0.4846990000000  0.6036430000000 1.0
C      1  0.4829370000000  0.5176850000000  0.6410070000000 1.0
C      1  0.5666020000000  0.4799900000000  0.6268350000000 1.0
C      1  0.6288650000000  0.5189390000000  0.5629900000000 1.0
C      1  0.6395630000000  0.4784370000000  0.4751990000000 1.0
C      1  0.5955190000000  0.5153130000000  0.3961950000000 1.0
C      1  0.5161310000000  0.4832280000000  0.3583430000000 1.0
C      1  0.3184970000000  0.3705790000000  0.3158430000000 1.0
C      1  0.2445860000000  0.6236800000000  0.4565370000000 1.0
C      1  0.2887400000000  0.3662570000000  0.6098140000000 1.0
C      1  0.3948540000000  0.6333990000000  0.7106460000000 1.0
C      1  0.5374140000000  0.3686710000000  0.7539320000000 1.0
C      1  0.6815570000000  0.6295600000000  0.6841990000000 1.0
C      1  0.7543980000000  0.3757790000000  0.5451600000000 1.0
C      1  0.7101950000000  0.6335150000000  0.3911760000000 1.0
C      1  0.6051130000000  0.3668410000000  0.2890230000000 1.0
C      1  0.4615390000000  0.6315950000000  0.2494330000000 1.0
C      1  0.5237670000000  0.4100140000000  0.2989500000000 1.0
C      1  0.4055550000000  0.6009400000000  0.3234120000000 1.0
C      1  0.3148320000000  0.4004680000000  0.4086130000000 1.0
C      1  0.2972660000000  0.6022930000000  0.5344020000000 1.0
C      1  0.3614890000000  0.4087350000000  0.6483890000000 1.0
C      1  0.4761380000000  0.5902350000000  0.7010610000000 1.0
C      1  0.5914350000000  0.4010800000000  0.6804760000000 1.0
C      1  0.6856760000000  0.6000280000000  0.5914010000000 1.0
C      1  0.7032210000000  0.3982650000000  0.4651180000000 1.0
C      1  0.6378820000000  0.5913520000000  0.3517590000000 1.0
C      1  0.6708010000000  0.6863630000000  0.5414060000000 1.0
C      1  0.6619740000000  0.3116130000000  0.4328330000000 1.0
C      1  0.5904180000000  0.6800830000000  0.3480510000000 1.0
C      1  0.4818470000000  0.3215590000000  0.3229400000000 1.0
C      1  0.3867940000000  0.6787220000000  0.3749650000000 1.0
C      1  0.3288820000000  0.3140550000000  0.4586110000000 1.0
C      1  0.3386020000000  0.6886140000000  0.5668170000000 1.0
C      1  0.4095240000000  0.3202890000000  0.6519890000000 1.0
C      1  0.5181320000000  0.6784150000000  0.6763180000000 1.0
C      1  0.6163940000000  0.3205220000000  0.6256280000000 1.0
END
