TITL C-1525613-7943-1056 0.0274168135241962 3375 -8935.25851163667 0 0 60 (Ci) n - 1
REM
REM in /home/nfs/bkarasulu/CARBON/AIRSS/Generating-Clusters/ReaxFF-fromJPCA2015/Units_Real/Try2-Higher-symm/Only-C60
REM
REM
REM
REM
REM
REM ./C.cell (863b2abdce7293c0672fb3ba77bf323a)
REM AIRSS Version 0.9.1 bugfix July 2018 build 013d7b7c2542+ Fri, 06 Jul 2018 19:26:36 +0100
REM compiler GCC version 9.2.1 20190827 (Red Hat 9.2.1-1)
REM options -cpp -mtune=generic -march=x86-64 -g -O0 -fpre-include=/usr/include/finclude/math-vector-fortran.h
REM seed 257287290 -1556392722 -243872804 -1394712816 122820493 -2011371283 960586768 -1646211591 -1561533190 -531760491 1463914112 1819181005 370357303 -1022974537 1325974255 -1238546707 1200176178 -1311194091 776435908 -1867187776 1355927689 41897383 -1308247359 296593688 -195235774 275721535 1243253589 -473596295 -1989260773 -1340157429 592328539 -704831710 -1319388012
REM
CELL 1.54180   15.00000   15.00000   15.00000   90.00000   90.00000   90.00000
LATT -1
SFAC C  
C      1  0.5862730000000  0.3105940000000  0.6146130000000 1.0
C      1  0.4148220000000  0.4159870000000  0.7022250000000 1.0
C      1  0.5894280000000  0.5469780000000  0.7132630000000 1.0
C      1  0.4107920000000  0.6696860000000  0.6419400000000 1.0
C      1  0.5848050000000  0.7181600000000  0.5187060000000 1.0
C      1  0.4137300000000  0.6894030000000  0.3853860000000 1.0
C      1  0.5851740000000  0.5840010000000  0.2977770000000 1.0
C      1  0.4105460000000  0.4530290000000  0.2867300000000 1.0
C      1  0.5892190000000  0.3303100000000  0.3580680000000 1.0
C      1  0.4151930000000  0.2818440000000  0.4812880000000 1.0
C      1  0.2904660000000  0.5809870000000  0.4879670000000 1.0
C      1  0.7081680000000  0.5578910000000  0.4439800000000 1.0
C      1  0.2901910000000  0.5137100000000  0.4197900000000 1.0
C      1  0.7077310000000  0.4634990000000  0.4276150000000 1.0
C      1  0.2926740000000  0.4277300000000  0.4613280000000 1.0
C      1  0.7095480000000  0.4190170000000  0.5120280000000 1.0
C      1  0.2918220000000  0.4421060000000  0.5560180000000 1.0
C      1  0.7098880000000  0.4862990000000  0.5802170000000 1.0
C      1  0.2922610000000  0.5365090000000  0.5723820000000 1.0
C      1  0.7073390000000  0.5722760000000  0.5386650000000 1.0
C      1  0.5687920000000  0.5566720000000  0.4453060000000 1.0
C      1  0.4292840000000  0.5151230000000  0.4200320000000 1.0
C      1  0.5686820000000  0.4638240000000  0.4291010000000 1.0
C      1  0.4316350000000  0.4304650000000  0.4611350000000 1.0
C      1  0.5699310000000  0.4194590000000  0.5122890000000 1.0
C      1  0.4312220000000  0.4433290000000  0.5546970000000 1.0
C      1  0.5706580000000  0.4848840000000  0.5799190000000 1.0
C      1  0.4313260000000  0.5361720000000  0.5709050000000 1.0
C      1  0.5683460000000  0.5694820000000  0.5388890000000 1.0
C      1  0.4300520000000  0.5805890000000  0.4877550000000 1.0
C      1  0.5049610000000  0.2710750000000  0.4559890000000 1.0
C      1  0.4967910000000  0.2858250000000  0.5969980000000 1.0
C      1  0.5037030000000  0.3843170000000  0.7044040000000 1.0
C      1  0.5004720000000  0.5240380000000  0.7299610000000 1.0
C      1  0.5014240000000  0.6753420000000  0.6815670000000 1.0
C      1  0.4950480000000  0.7289150000000  0.5440050000000 1.0
C      1  0.5032070000000  0.7141850000000  0.4029820000000 1.0
C      1  0.4962920000000  0.6156730000000  0.2956080000000 1.0
C      1  0.4995290000000  0.4759490000000  0.2700660000000 1.0
C      1  0.4985830000000  0.3246590000000  0.3184380000000 1.0
C      1  0.4061360000000  0.2953920000000  0.5779060000000 1.0
C      1  0.5940860000000  0.3781780000000  0.6843910000000 1.0
C      1  0.4096410000000  0.5124080000000  0.7175320000000 1.0
C      1  0.5910990000000  0.6356520000000  0.6726150000000 1.0
C      1  0.4040320000000  0.7133120000000  0.5551560000000 1.0
C      1  0.5938700000000  0.7046080000000  0.4220870000000 1.0
C      1  0.4059100000000  0.6218210000000  0.3156160000000 1.0
C      1  0.5903490000000  0.4875820000000  0.2824680000000 1.0
C      1  0.4088980000000  0.3643560000000  0.3273860000000 1.0
C      1  0.5959700000000  0.2866870000000  0.4448420000000 1.0
C      1  0.3647650000000  0.5289640000000  0.3427650000000 1.0
C      1  0.6312210000000  0.4280290000000  0.3585960000000 1.0
C      1  0.3694110000000  0.3606100000000  0.4232550000000 1.0
C      1  0.6343120000000  0.3423260000000  0.5240410000000 1.0
C      1  0.3678360000000  0.3870730000000  0.6097090000000 1.0
C      1  0.6352030000000  0.4710510000000  0.6572200000000 1.0
C      1  0.3687900000000  0.5719700000000  0.6414050000000 1.0
C      1  0.6305970000000  0.6393980000000  0.5767400000000 1.0
C      1  0.3657010000000  0.6576680000000  0.4759570000000 1.0
C      1  0.6321670000000  0.6129220000000  0.3902840000000 1.0
END
