TITL C-1525613-7943-5414 0.0785876199632296 3375 -8450.96403484491 0 0 60 (C2) n - 1
REM
REM in /home/nfs/bkarasulu/CARBON/AIRSS/Generating-Clusters/ReaxFF-fromJPCA2015/Units_Real/Try2-Higher-symm/Only-C60
REM
REM
REM
REM
REM
REM ./C.cell (863b2abdce7293c0672fb3ba77bf323a)
REM AIRSS Version 0.9.1 bugfix July 2018 build 013d7b7c2542+ Fri, 06 Jul 2018 19:26:36 +0100
REM compiler GCC version 9.2.1 20190827 (Red Hat 9.2.1-1)
REM options -cpp -mtune=generic -march=x86-64 -g -O0 -fpre-include=/usr/include/finclude/math-vector-fortran.h
REM seed -144311006 101470663 122752664 -20035705 -475404522 -1645970908 59795210 303289338 -249339094 -703295002 2040436518 -1435752600 -1966598307 2091460620 1712465075 1232184191 -1643450620 -803573893 1294784781 -686721058 -1106431290 1326189300 -855097862 1407636000 794337563 -1044403423 -700012853 -429086205 1332154343 -623878335 -1068149187 1102064916 1439096439
REM
CELL 1.54180   15.00000   15.00000   15.00000   90.00000   90.00000   90.00000
LATT -1
SFAC C  
C      1  0.7413560000000  0.5062430000000  0.4397990000000 1.0
C      1  0.7204000000000  0.5011140000000  0.6131610000000 1.0
C      1  0.6506430000000  0.4966490000000  0.6927640000000 1.0
C      1  0.4677740000000  0.5003720000000  0.7389240000000 1.0
C      1  0.3682060000000  0.5039020000000  0.7029370000000 1.0
C      1  0.2586210000000  0.5062220000000  0.5602020000000 1.0
C      1  0.2796020000000  0.5011290000000  0.3868450000000 1.0
C      1  0.3493540000000  0.4966520000000  0.3072340000000 1.0
C      1  0.5322440000000  0.5003800000000  0.2610740000000 1.0
C      1  0.6317790000000  0.5039140000000  0.2970920000000 1.0
C      1  0.4846750000000  0.5919970000000  0.2638850000000 1.0
C      1  0.6662380000000  0.5955030000000  0.3249050000000 1.0
C      1  0.7246560000000  0.5940070000000  0.4026980000000 1.0
C      1  0.7362280000000  0.5983360000000  0.5822670000000 1.0
C      1  0.6083380000000  0.5904750000000  0.7105380000000 1.0
C      1  0.5153240000000  0.5919870000000  0.7361010000000 1.0
C      1  0.3337580000000  0.5955120000000  0.6751220000000 1.0
C      1  0.2753310000000  0.5940090000000  0.5972890000000 1.0
C      1  0.2637720000000  0.5983530000000  0.4177270000000 1.0
C      1  0.3916640000000  0.5904900000000  0.2894510000000 1.0
C      1  0.6467040000000  0.5002330000000  0.4640470000000 1.0
C      1  0.6381470000000  0.4968490000000  0.5528000000000 1.0
C      1  0.5804170000000  0.4918330000000  0.6173350000000 1.0
C      1  0.4934090000000  0.4925790000000  0.6362720000000 1.0
C      1  0.4093520000000  0.4970570000000  0.6084980000000 1.0
C      1  0.3533100000000  0.5002230000000  0.5359530000000 1.0
C      1  0.3618490000000  0.4968630000000  0.4472030000000 1.0
C      1  0.4195840000000  0.4918530000000  0.3826710000000 1.0
C      1  0.5065960000000  0.4925950000000  0.3637300000000 1.0
C      1  0.5906540000000  0.4970690000000  0.3914850000000 1.0
C      1  0.6590660000000  0.6518400000000  0.4525010000000 1.0
C      1  0.6580610000000  0.6479670000000  0.5540160000000 1.0
C      1  0.5896170000000  0.6480520000000  0.6328490000000 1.0
C      1  0.4941460000000  0.6513380000000  0.6592930000000 1.0
C      1  0.3980960000000  0.6516750000000  0.6266960000000 1.0
C      1  0.3409410000000  0.6518510000000  0.5474560000000 1.0
C      1  0.3419500000000  0.6479810000000  0.4459760000000 1.0
C      1  0.4103800000000  0.6480680000000  0.3671480000000 1.0
C      1  0.5058700000000  0.6513550000000  0.3407000000000 1.0
C      1  0.6019320000000  0.6516730000000  0.3732960000000 1.0
C      1  0.6332270000000  0.3927270000000  0.6991530000000 1.0
C      1  0.4868270000000  0.3951780000000  0.7401390000000 1.0
C      1  0.3486970000000  0.3939900000000  0.6889160000000 1.0
C      1  0.2548470000000  0.4082210000000  0.5686750000000 1.0
C      1  0.2753830000000  0.3904000000000  0.4166650000000 1.0
C      1  0.3667840000000  0.3927350000000  0.3008630000000 1.0
C      1  0.5131560000000  0.3951740000000  0.2598700000000 1.0
C      1  0.6512960000000  0.3940140000000  0.3110840000000 1.0
C      1  0.7451620000000  0.4082310000000  0.4313260000000 1.0
C      1  0.7246210000000  0.3903970000000  0.5833460000000 1.0
C      1  0.4437420000000  0.3618500000000  0.2925610000000 1.0
C      1  0.5774380000000  0.3569490000000  0.2985920000000 1.0
C      1  0.6858270000000  0.3694240000000  0.3769020000000 1.0
C      1  0.7214500000000  0.3676670000000  0.5087790000000 1.0
C      1  0.6664510000000  0.3554700000000  0.6310450000000 1.0
C      1  0.5562330000000  0.3618240000000  0.7074550000000 1.0
C      1  0.4225410000000  0.3569430000000  0.7014120000000 1.0
C      1  0.3141580000000  0.3694290000000  0.6230880000000 1.0
C      1  0.2785500000000  0.3676800000000  0.4912400000000 1.0
C      1  0.3335690000000  0.3554940000000  0.3689420000000 1.0
END
