TITL C-1525613-7943-7009 -0.0193281948129485 3375 -9168.81255448413 0 0 60 (C1) n - 1
REM
REM in /home/nfs/bkarasulu/CARBON/AIRSS/Generating-Clusters/ReaxFF-fromJPCA2015/Units_Real/Try2-Higher-symm/Only-C60
REM
REM
REM
REM
REM
REM ./C.cell (863b2abdce7293c0672fb3ba77bf323a)
REM AIRSS Version 0.9.1 bugfix July 2018 build 013d7b7c2542+ Fri, 06 Jul 2018 19:26:36 +0100
REM compiler GCC version 9.2.1 20190827 (Red Hat 9.2.1-1)
REM options -cpp -mtune=generic -march=x86-64 -g -O0 -fpre-include=/usr/include/finclude/math-vector-fortran.h
REM seed 1796318424 -422563701 -2012503915 -1449046335 -534216134 835535307 -292630967 -2013599476 1595594800 -153225706 1248887203 -32636049 -628804576 2088654540 2125286108 -156086507 -2108990207 -203334093 -656604652 1637893877 -895840720 1123016466 771751278 1167146674 466425116 -31161535 261953244 -2066874481 -739010562 -1591471552 -527530021 2096720494 -1015053916
REM
CELL 1.54180   15.00000   15.00000   15.00000   90.00000   90.00000   90.00000
LATT -1
SFAC C  
C      1  0.6883920000000  0.5409000000000  0.6105770000000 1.0
C      1  0.5058060000000  0.7173520000000  0.6300440000000 1.0
C      1  0.2769580000000  0.5896550000000  0.6539900000000 1.0
C      1  0.3492310000000  0.3424020000000  0.6343380000000 1.0
C      1  0.5866800000000  0.3132030000000  0.6167310000000 1.0
C      1  0.3123710000000  0.5419180000000  0.3918270000000 1.0
C      1  0.4943440000000  0.7180250000000  0.3696010000000 1.0
C      1  0.7234470000000  0.5880930000000  0.3467120000000 1.0
C      1  0.6534570000000  0.3405400000000  0.3648070000000 1.0
C      1  0.4173540000000  0.3140170000000  0.3818880000000 1.0
C      1  0.4884300000000  0.3248340000000  0.6069670000000 1.0
C      1  0.6558450000000  0.4479640000000  0.6009090000000 1.0
C      1  0.5792540000000  0.6590380000000  0.6033510000000 1.0
C      1  0.3515780000000  0.6409510000000  0.6563020000000 1.0
C      1  0.3147760000000  0.4352050000000  0.6344490000000 1.0
C      1  0.5147330000000  0.3307360000000  0.3940020000000 1.0
C      1  0.3413480000000  0.4474800000000  0.3989220000000 1.0
C      1  0.4215120000000  0.6597120000000  0.3967960000000 1.0
C      1  0.6487310000000  0.6401110000000  0.3409490000000 1.0
C      1  0.6848110000000  0.4352040000000  0.3682820000000 1.0
C      1  0.3678010000000  0.4146650000000  0.4876960000000 1.0
C      1  0.5365450000000  0.3873290000000  0.4730110000000 1.0
C      1  0.6580850000000  0.4822380000000  0.4502300000000 1.0
C      1  0.5519950000000  0.6222770000000  0.5130550000000 1.0
C      1  0.3957700000000  0.5595890000000  0.5276720000000 1.0
C      1  0.6236650000000  0.4180060000000  0.5134970000000 1.0
C      1  0.4595080000000  0.3792860000000  0.5281030000000 1.0
C      1  0.3361380000000  0.4848700000000  0.5496590000000 1.0
C      1  0.4485710000000  0.6242650000000  0.4886720000000 1.0
C      1  0.6033320000000  0.5600930000000  0.4666410000000 1.0
C      1  0.4335650000000  0.3455890000000  0.6842420000000 1.0
C      1  0.6149120000000  0.3932290000000  0.6678860000000 1.0
C      1  0.6218690000000  0.5925020000000  0.6605340000000 1.0
C      1  0.4371300000000  0.6629310000000  0.6833210000000 1.0
C      1  0.3202360000000  0.5067070000000  0.6976630000000 1.0
C      1  0.5689290000000  0.3461060000000  0.3150770000000 1.0
C      1  0.3859940000000  0.3941030000000  0.3328030000000 1.0
C      1  0.3789120000000  0.5923020000000  0.3408520000000 1.0
C      1  0.5629580000000  0.6637880000000  0.3153400000000 1.0
C      1  0.6797870000000  0.5059080000000  0.3033980000000 1.0
C      1  0.5300670000000  0.5810710000000  0.2695390000000 1.0
C      1  0.4397120000000  0.5459160000000  0.2803850000000 1.0
C      1  0.4438800000000  0.4480820000000  0.2751630000000 1.0
C      1  0.5373400000000  0.4232790000000  0.2636300000000 1.0
C      1  0.5909190000000  0.5053990000000  0.2610300000000 1.0
C      1  0.4701640000000  0.5809120000000  0.7301940000000 1.0
C      1  0.5605370000000  0.5458570000000  0.7199430000000 1.0
C      1  0.5570070000000  0.4477890000000  0.7251090000000 1.0
C      1  0.4636790000000  0.4234560000000  0.7355470000000 1.0
C      1  0.4095820000000  0.5054680000000  0.7392230000000 1.0
C      1  0.2716870000000  0.5821060000000  0.4704590000000 1.0
C      1  0.3739730000000  0.2818590000000  0.4620810000000 1.0
C      1  0.6519900000000  0.2957190000000  0.4517610000000 1.0
C      1  0.7353500000000  0.5977430000000  0.4430440000000 1.0
C      1  0.5003910000000  0.7571680000000  0.4546610000000 1.0
C      1  0.7246900000000  0.5763770000000  0.5287090000000 1.0
C      1  0.6324330000000  0.2855950000000  0.5364110000000 1.0
C      1  0.3505610000000  0.2924570000000  0.5488490000000 1.0
C      1  0.2612560000000  0.6040330000000  0.5583750000000 1.0
C      1  0.5000220000000  0.7565900000000  0.5450900000000 1.0
END
