TITL C-1525613-7943-6937 0.979196985286413 3375 -7213.50724143772 0 0 60 (Ci) n - 1
REM
REM in /home/nfs/bkarasulu/CARBON/AIRSS/Generating-Clusters/ReaxFF-fromJPCA2015/Units_Real/Try2-Higher-symm/Only-C60
REM
REM
REM
REM
REM
REM ./C.cell (863b2abdce7293c0672fb3ba77bf323a)
REM AIRSS Version 0.9.1 bugfix July 2018 build 013d7b7c2542+ Fri, 06 Jul 2018 19:26:36 +0100
REM compiler GCC version 9.2.1 20190827 (Red Hat 9.2.1-1)
REM options -cpp -mtune=generic -march=x86-64 -g -O0 -fpre-include=/usr/include/finclude/math-vector-fortran.h
REM seed 69404116 801000227 1632920108 -949636478 1102430642 -1276041173 234344349 952219615 -180894528 1060483710 -1768940418 -734644256 2127740349 486580531 -354728236 -344255706 -881537099 -2146085950 -373874529 -95067609 -502549318 -1223206904 -1428313683 179186090 47360992 424339596 -1134435070 974839904 -1539918205 2146337364 -120494971 1537154716 -242560616
REM
CELL 1.54180   15.00000   15.00000   15.00000   90.00000   90.00000   90.00000
LATT -1
SFAC C  
C      1  0.5490360000000  0.2671460000000  0.5328310000000 1.0
C      1  0.4046300000000  0.2827700000000  0.4713250000000 1.0
C      1  0.2980140000000  0.3757310000000  0.5236720000000 1.0
C      1  0.2627670000000  0.5185980000000  0.4752250000000 1.0
C      1  0.3201910000000  0.6544170000000  0.5276320000000 1.0
C      1  0.4509640000000  0.7328540000000  0.4671690000000 1.0
C      1  0.5953700000000  0.7172300000000  0.5286750000000 1.0
C      1  0.7019860000000  0.6242690000000  0.4763280000000 1.0
C      1  0.7372330000000  0.4814020000000  0.5247750000000 1.0
C      1  0.6798090000000  0.3455830000000  0.4723680000000 1.0
C      1  0.3407520000000  0.4140730000000  0.4382660000000 1.0
C      1  0.3192260000000  0.5214850000000  0.5607160000000 1.0
C      1  0.3675650000000  0.6250830000000  0.4404690000000 1.0
C      1  0.4646420000000  0.6857800000000  0.5602760000000 1.0
C      1  0.5797590000000  0.6711100000000  0.4387430000000 1.0
C      1  0.6592480000000  0.5859270000000  0.5617340000000 1.0
C      1  0.6807750000000  0.4785140000000  0.4392840000000 1.0
C      1  0.6324340000000  0.3749180000000  0.5595310000000 1.0
C      1  0.5353580000000  0.3142200000000  0.4397240000000 1.0
C      1  0.4202410000000  0.3288900000000  0.5612560000000 1.0
C      1  0.5480360000000  0.4307730000000  0.3286050000000 1.0
C      1  0.4984130000000  0.4161910000000  0.6714870000000 1.0
C      1  0.4489790000000  0.4332240000000  0.3275090000000 1.0
C      1  0.4191840000000  0.4757690000000  0.6721650000000 1.0
C      1  0.4199840000000  0.5276500000000  0.3281800000000 1.0
C      1  0.4519640000000  0.5692280000000  0.6713950000000 1.0
C      1  0.5015860000000  0.5838090000000  0.3285130000000 1.0
C      1  0.5510210000000  0.5667760000000  0.6724920000000 1.0
C      1  0.5808150000000  0.5242320000000  0.3278370000000 1.0
C      1  0.5800160000000  0.4723500000000  0.6718180000000 1.0
C      1  0.5630490000000  0.5536280000000  0.5695900000000 1.0
C      1  0.5829050000000  0.5063940000000  0.4313500000000 1.0
C      1  0.5707390000000  0.4573500000000  0.5690770000000 1.0
C      1  0.5320230000000  0.4225090000000  0.4313920000000 1.0
C      1  0.4804550000000  0.4191860000000  0.5687330000000 1.0
C      1  0.4369510000000  0.4463710000000  0.4304110000000 1.0
C      1  0.4170950000000  0.4936060000000  0.5686490000000 1.0
C      1  0.4292610000000  0.5426500000000  0.4309230000000 1.0
C      1  0.4679770000000  0.5774910000000  0.5686080000000 1.0
C      1  0.5195470000000  0.5808130000000  0.4312660000000 1.0
C      1  0.6688300000000  0.3905960000000  0.3863730000000 1.0
C      1  0.5717820000000  0.3113830000000  0.6150040000000 1.0
C      1  0.4456640000000  0.3072990000000  0.3890590000000 1.0
C      1  0.3423420000000  0.3751780000000  0.6096490000000 1.0
C      1  0.2996010000000  0.4942990000000  0.3892300000000 1.0
C      1  0.3311700000000  0.6094040000000  0.6136270000000 1.0
C      1  0.4282170000000  0.6886170000000  0.3849960000000 1.0
C      1  0.5543360000000  0.6927010000000  0.6109410000000 1.0
C      1  0.6576580000000  0.6248220000000  0.3903510000000 1.0
C      1  0.7003990000000  0.5057010000000  0.6107710000000 1.0
C      1  0.4858160000000  0.2695740000000  0.6018020000000 1.0
C      1  0.3494340000000  0.3239010000000  0.4077920000000 1.0
C      1  0.2738700000000  0.4416660000000  0.5879030000000 1.0
C      1  0.2834760000000  0.5877980000000  0.4131330000000 1.0
C      1  0.3736510000000  0.6929110000000  0.5956590000000 1.0
C      1  0.5141840000000  0.7304270000000  0.3981980000000 1.0
C      1  0.6505660000000  0.6760990000000  0.5922080000000 1.0
C      1  0.7261300000000  0.5583340000000  0.4120970000000 1.0
C      1  0.7165240000000  0.4122020000000  0.5868670000000 1.0
C      1  0.6263490000000  0.3070890000000  0.4043410000000 1.0
END
