TITL C-1525613-7943-4477 -0.000672652623909616 3375 -9580.86085113104 0 0 60 (D5h) n - 1
REM
REM in /home/nfs/bkarasulu/CARBON/AIRSS/Generating-Clusters/ReaxFF-fromJPCA2015/Units_Real/Try2-Higher-symm/Only-C60
REM
REM
REM
REM
REM
REM ./C.cell (863b2abdce7293c0672fb3ba77bf323a)
REM AIRSS Version 0.9.1 bugfix July 2018 build 013d7b7c2542+ Fri, 06 Jul 2018 19:26:36 +0100
REM compiler GCC version 9.2.1 20190827 (Red Hat 9.2.1-1)
REM options -cpp -mtune=generic -march=x86-64 -g -O0 -fpre-include=/usr/include/finclude/math-vector-fortran.h
REM seed 8798762 1717491610 -2053566710 -1575477908 -1321292696 1171902203 83449283 -587289013 548618005 741535948 1034080503 -1936591373 -1091576431 -41257109 -659893846 -1945486855 -85584290 2104084029 1994139915 -588292732 -387072252 -1456907343 -1749704623 -47090181 -1644784125 364807413 -1345031015 286667339 -1418137009 -305855288 41821008 -1139022913 1517785339
REM
CELL 1.54180   15.00000   15.00000   15.00000   90.00000   90.00000   90.00000
LATT -1
SFAC C  
C      1  0.5467390000000  0.7023260000000  0.3698250000000 1.0
C      1  0.5469640000000  0.6866190000000  0.6517430000000 1.0
C      1  0.5480770000000  0.4131990000000  0.7255910000000 1.0
C      1  0.5489670000000  0.2581340000000  0.4864500000000 1.0
C      1  0.5484230000000  0.4395300000000  0.2658490000000 1.0
C      1  0.4535720000000  0.7025520000000  0.3697530000000 1.0
C      1  0.4532480000000  0.6863300000000  0.6515770000000 1.0
C      1  0.4536610000000  0.4116770000000  0.7268730000000 1.0
C      1  0.4538950000000  0.2560200000000  0.4857080000000 1.0
C      1  0.4531430000000  0.4394600000000  0.2636930000000 1.0
C      1  0.3628630000000  0.6754300000000  0.5091920000000 1.0
C      1  0.3622780000000  0.5465050000000  0.6697840000000 1.0
C      1  0.3620130000000  0.3521270000000  0.5972800000000 1.0
C      1  0.3619460000000  0.3620520000000  0.3896490000000 1.0
C      1  0.3631420000000  0.5634290000000  0.3354800000000 1.0
C      1  0.6377560000000  0.6760960000000  0.5098050000000 1.0
C      1  0.6374540000000  0.5452250000000  0.6705310000000 1.0
C      1  0.6372430000000  0.3515380000000  0.5959640000000 1.0
C      1  0.6371710000000  0.3631760000000  0.3879680000000 1.0
C      1  0.6378600000000  0.5640410000000  0.3356160000000 1.0
C      1  0.5937190000000  0.2786080000000  0.4075300000000 1.0
C      1  0.5941230000000  0.5199410000000  0.2605170000000 1.0
C      1  0.5934190000000  0.7333930000000  0.4444220000000 1.0
C      1  0.5933000000000  0.6251260000000  0.7043850000000 1.0
C      1  0.5934450000000  0.3444170000000  0.6823560000000 1.0
C      1  0.4069180000000  0.2771910000000  0.4062350000000 1.0
C      1  0.4054300000000  0.5209960000000  0.2591370000000 1.0
C      1  0.4067130000000  0.7333680000000  0.4439800000000 1.0
C      1  0.4070410000000  0.6249770000000  0.7036180000000 1.0
C      1  0.4073710000000  0.3426760000000  0.6828590000000 1.0
C      1  0.6539390000000  0.4374660000000  0.4489070000000 1.0
C      1  0.6539220000000  0.5292670000000  0.4247330000000 1.0
C      1  0.6538930000000  0.5806340000000  0.5045080000000 1.0
C      1  0.6538180000000  0.5206710000000  0.5780520000000 1.0
C      1  0.6538910000000  0.4321460000000  0.5437280000000 1.0
C      1  0.3474290000000  0.4360310000000  0.4494370000000 1.0
C      1  0.3479800000000  0.5278820000000  0.4244860000000 1.0
C      1  0.3476800000000  0.5797130000000  0.5040300000000 1.0
C      1  0.3472820000000  0.5204970000000  0.5781250000000 1.0
C      1  0.3471860000000  0.4315440000000  0.5447150000000 1.0
C      1  0.4047900000000  0.4939000000000  0.7411540000000 1.0
C      1  0.4052630000000  0.2676940000000  0.5690590000000 1.0
C      1  0.4050650000000  0.3635100000000  0.3004240000000 1.0
C      1  0.4068670000000  0.6476020000000  0.3110970000000 1.0
C      1  0.4063260000000  0.7254300000000  0.5805360000000 1.0
C      1  0.5931220000000  0.4930470000000  0.7399480000000 1.0
C      1  0.5932700000000  0.2698320000000  0.5674310000000 1.0
C      1  0.5926620000000  0.3657690000000  0.3017790000000 1.0
C      1  0.5930450000000  0.6470370000000  0.3108620000000 1.0
C      1  0.5935620000000  0.7258520000000  0.5810190000000 1.0
C      1  0.5488820000000  0.7818240000000  0.5157310000000 1.0
C      1  0.5481920000000  0.5728680000000  0.7724620000000 1.0
C      1  0.5466880000000  0.2637310000000  0.6532160000000 1.0
C      1  0.5461180000000  0.2821350000000  0.3221410000000 1.0
C      1  0.5488410000000  0.6023000000000  0.2370660000000 1.0
C      1  0.4508730000000  0.7818200000000  0.5155550000000 1.0
C      1  0.4504470000000  0.5745390000000  0.7723740000000 1.0
C      1  0.4503480000000  0.2647040000000  0.6543370000000 1.0
C      1  0.4500010000000  0.2813420000000  0.3232660000000 1.0
C      1  0.4507240000000  0.6030540000000  0.2364510000000 1.0
END
