TITL C-1525613-7943-2581 -6.06993123144481e-05 3375 -9172.51728678052 0 0 60 (D5) n - 1
REM
REM in /home/nfs/bkarasulu/CARBON/AIRSS/Generating-Clusters/ReaxFF-fromJPCA2015/Units_Real/Try2-Higher-symm/Only-C60
REM
REM
REM
REM
REM
REM ./C.cell (863b2abdce7293c0672fb3ba77bf323a)
REM AIRSS Version 0.9.1 bugfix July 2018 build 013d7b7c2542+ Fri, 06 Jul 2018 19:26:36 +0100
REM compiler GCC version 9.2.1 20190827 (Red Hat 9.2.1-1)
REM options -cpp -mtune=generic -march=x86-64 -g -O0 -fpre-include=/usr/include/finclude/math-vector-fortran.h
REM seed -1905983787 2058524203 -1329518684 -196523346 -407229625 -627451576 -1218352674 -540258648 -1810307167 -1359384547 83347346 845472423 1130770827 -2040654459 261290377 177019379 -1378240241 -1300531081 1897375683 -1448691618 -2066027233 1302266502 912741660 -2111897285 1888535293 1613383101 -1420606948 288191016 -663169386 -1093066677 -931441350 1567617114 760903977
REM
CELL 1.54180   15.00000   15.00000   15.00000   90.00000   90.00000   90.00000
LATT -1
SFAC C  
C      1  0.3401230000000  0.3898350000000  0.5658360000000 1.0
C      1  0.3879820000000  0.3898350000000  0.3682920000000 1.0
C      1  0.5906470000000  0.3898350000000  0.3527640000000 1.0
C      1  0.6680410000000  0.3898360000000  0.5407110000000 1.0
C      1  0.5132090000000  0.3898350000000  0.6723970000000 1.0
C      1  0.6598770000000  0.6101650000000  0.5658360000000 1.0
C      1  0.6120180000000  0.6101650000000  0.3682920000000 1.0
C      1  0.4093530000000  0.6101650000000  0.3527640000000 1.0
C      1  0.3319590000000  0.6101640000000  0.5407110000000 1.0
C      1  0.4867910000000  0.6101650000000  0.6723970000000 1.0
C      1  0.6658910000000  0.6790000000000  0.4980090000000 1.0
C      1  0.5531560000000  0.6790000000000  0.6571570000000 1.0
C      1  0.3669600000000  0.6789990000000  0.5991190000000 1.0
C      1  0.3646200000000  0.6789990000000  0.4041020000000 1.0
C      1  0.5493700000000  0.6790000000000  0.3416130000000 1.0
C      1  0.3341090000000  0.3210000000000  0.4980090000000 1.0
C      1  0.4468440000000  0.3210000000000  0.6571570000000 1.0
C      1  0.6330400000000  0.3210010000000  0.5991190000000 1.0
C      1  0.6353800000000  0.3210010000000  0.4041020000000 1.0
C      1  0.4506300000000  0.3210000000000  0.3416130000000 1.0
C      1  0.4164560000000  0.2684410000000  0.4977030000000 1.0
C      1  0.4763680000000  0.2684420000000  0.4198350000000 1.0
C      1  0.5689400000000  0.2684420000000  0.4527520000000 1.0
C      1  0.5662400000000  0.2684420000000  0.5509640000000 1.0
C      1  0.4720000000000  0.2684410000000  0.5787460000000 1.0
C      1  0.5835440000000  0.7315590000000  0.4977030000000 1.0
C      1  0.5236320000000  0.7315580000000  0.4198350000000 1.0
C      1  0.4310600000000  0.7315580000000  0.4527520000000 1.0
C      1  0.4337600000000  0.7315580000000  0.5509640000000 1.0
C      1  0.5280000000000  0.7315590000000  0.5787460000000 1.0
C      1  0.5079430000000  0.4571490000000  0.2637230000000 1.0
C      1  0.7271680000000  0.4571490000000  0.4345410000000 1.0
C      1  0.6324540000000  0.4571490000000  0.6958210000000 1.0
C      1  0.3546940000000  0.4571480000000  0.6864840000000 1.0
C      1  0.2777410000000  0.4571480000000  0.4194320000000 1.0
C      1  0.4920570000000  0.5428510000000  0.2637230000000 1.0
C      1  0.2728320000000  0.5428510000000  0.4345410000000 1.0
C      1  0.3675460000000  0.5428510000000  0.6958210000000 1.0
C      1  0.6453060000000  0.5428520000000  0.6864840000000 1.0
C      1  0.7222590000000  0.5428520000000  0.4194320000000 1.0
C      1  0.3590320000000  0.3673160000000  0.6593660000000 1.0
C      1  0.3048720000000  0.3673160000000  0.4151780000000 1.0
C      1  0.5203730000000  0.3673170000000  0.2882110000000 1.0
C      1  0.7077190000000  0.3673170000000  0.4539290000000 1.0
C      1  0.6080050000000  0.3673170000000  0.6833160000000 1.0
C      1  0.6409680000000  0.6326840000000  0.6593660000000 1.0
C      1  0.6951280000000  0.6326840000000  0.4151780000000 1.0
C      1  0.4796270000000  0.6326830000000  0.2882110000000 1.0
C      1  0.2922810000000  0.6326830000000  0.4539290000000 1.0
C      1  0.3919950000000  0.6326830000000  0.6833160000000 1.0
C      1  0.5032840000000  0.4478890000000  0.5891450000000 1.0
C      1  0.4162330000000  0.4478880000000  0.5306700000000 1.0
C      1  0.4449460000000  0.4478880000000  0.4298110000000 1.0
C      1  0.5497420000000  0.4478890000000  0.4259500000000 1.0
C      1  0.5857970000000  0.4478890000000  0.5244240000000 1.0
C      1  0.4967160000000  0.5521110000000  0.5891450000000 1.0
C      1  0.5837670000000  0.5521120000000  0.5306700000000 1.0
C      1  0.5550540000000  0.5521120000000  0.4298110000000 1.0
C      1  0.4502580000000  0.5521110000000  0.4259500000000 1.0
C      1  0.4142030000000  0.5521110000000  0.5244240000000 1.0
END
