TITL C-1525613-7943-3488 0.0136113993945749 3375 -8399.95669212276 0 0 60 (C2) n - 1
REM
REM in /home/nfs/bkarasulu/CARBON/AIRSS/Generating-Clusters/ReaxFF-fromJPCA2015/Units_Real/Try2-Higher-symm/Only-C60
REM
REM
REM
REM
REM
REM ./C.cell (863b2abdce7293c0672fb3ba77bf323a)
REM AIRSS Version 0.9.1 bugfix July 2018 build 013d7b7c2542+ Fri, 06 Jul 2018 19:26:36 +0100
REM compiler GCC version 9.2.1 20190827 (Red Hat 9.2.1-1)
REM options -cpp -mtune=generic -march=x86-64 -g -O0 -fpre-include=/usr/include/finclude/math-vector-fortran.h
REM seed -54290512 299723788 -418991773 -908496777 1588845654 733119970 928039751 -1167825644 1883205785 1471744363 893112421 -211916426 200588543 -777898849 2141942537 -1950719622 1764767430 -565164932 -1302840830 -94622102 -769074057 -1158447059 -509844831 -1414171430 1167312553 1874309763 -1332025974 1052860264 -1987960335 -561570366 -2108202238 -420923070 1253173134
REM
CELL 1.54180   15.00000   15.00000   15.00000   90.00000   90.00000   90.00000
LATT -1
SFAC C  
C      1  0.3021610000000  0.5929540000000  0.6486840000000 1.0
C      1  0.4238220000000  0.5908370000000  0.7364210000000 1.0
C      1  0.5775310000000  0.5927180000000  0.7354550000000 1.0
C      1  0.7012480000000  0.5925800000000  0.6447700000000 1.0
C      1  0.7483090000000  0.5958970000000  0.5002830000000 1.0
C      1  0.6978410000000  0.5929560000000  0.3513150000000 1.0
C      1  0.5761770000000  0.5908370000000  0.2635780000000 1.0
C      1  0.4224680000000  0.5927170000000  0.2645450000000 1.0
C      1  0.2987520000000  0.5925790000000  0.3552300000000 1.0
C      1  0.2516920000000  0.5958970000000  0.4997180000000 1.0
C      1  0.4977230000000  0.4485600000000  0.2638390000000 1.0
C      1  0.3578490000000  0.4518970000000  0.3085800000000 1.0
C      1  0.2703890000000  0.4494290000000  0.4294400000000 1.0
C      1  0.2678870000000  0.4614240000000  0.5772720000000 1.0
C      1  0.3646050000000  0.4410230000000  0.6916590000000 1.0
C      1  0.5022780000000  0.4485480000000  0.7361580000000 1.0
C      1  0.6421520000000  0.4518970000000  0.6914200000000 1.0
C      1  0.7296100000000  0.4494280000000  0.5705600000000 1.0
C      1  0.7321120000000  0.4614260000000  0.4227270000000 1.0
C      1  0.6353910000000  0.4410180000000  0.3083440000000 1.0
C      1  0.3595730000000  0.4724540000000  0.5452320000000 1.0
C      1  0.4159860000000  0.4793470000000  0.6145600000000 1.0
C      1  0.5010470000000  0.4769020000000  0.6413610000000 1.0
C      1  0.5850260000000  0.4755260000000  0.6137920000000 1.0
C      1  0.6376380000000  0.4705150000000  0.5424240000000 1.0
C      1  0.6404290000000  0.4724570000000  0.4547650000000 1.0
C      1  0.5840120000000  0.4793460000000  0.3854400000000 1.0
C      1  0.4989550000000  0.4768940000000  0.3586340000000 1.0
C      1  0.4149710000000  0.4755270000000  0.3862080000000 1.0
C      1  0.3623650000000  0.4705140000000  0.4575780000000 1.0
C      1  0.4116640000000  0.3486520000000  0.6411000000000 1.0
C      1  0.5057070000000  0.3426630000000  0.6475330000000 1.0
C      1  0.5968440000000  0.3396410000000  0.6246600000000 1.0
C      1  0.6556030000000  0.3376970000000  0.5341920000000 1.0
C      1  0.6214310000000  0.3358570000000  0.4451890000000 1.0
C      1  0.5883310000000  0.3486470000000  0.3589050000000 1.0
C      1  0.4942980000000  0.3426620000000  0.3524730000000 1.0
C      1  0.4031550000000  0.3396430000000  0.3753360000000 1.0
C      1  0.3443970000000  0.3376970000000  0.4658100000000 1.0
C      1  0.3785700000000  0.3358610000000  0.5548070000000 1.0
C      1  0.2766750000000  0.4959520000000  0.3423970000000 1.0
C      1  0.2231050000000  0.5000250000000  0.5000650000000 1.0
C      1  0.2825410000000  0.4969970000000  0.6652510000000 1.0
C      1  0.4184380000000  0.4944190000000  0.7586990000000 1.0
C      1  0.5861120000000  0.4961420000000  0.7590630000000 1.0
C      1  0.7233250000000  0.4959520000000  0.6576030000000 1.0
C      1  0.7768950000000  0.5000250000000  0.4999380000000 1.0
C      1  0.7174640000000  0.4970010000000  0.3347470000000 1.0
C      1  0.5815580000000  0.4944200000000  0.2413000000000 1.0
C      1  0.4138890000000  0.4961400000000  0.2409390000000 1.0
C      1  0.6291670000000  0.6435440000000  0.6015850000000 1.0
C      1  0.6636110000000  0.6446090000000  0.5056090000000 1.0
C      1  0.6350660000000  0.6444100000000  0.4079150000000 1.0
C      1  0.5564450000000  0.6433400000000  0.3455530000000 1.0
C      1  0.4549880000000  0.6439980000000  0.3419710000000 1.0
C      1  0.3708330000000  0.6435440000000  0.3984150000000 1.0
C      1  0.3363900000000  0.6446090000000  0.4943920000000 1.0
C      1  0.3649350000000  0.6444100000000  0.5920850000000 1.0
C      1  0.4435550000000  0.6433410000000  0.6544450000000 1.0
C      1  0.5450110000000  0.6439980000000  0.6580290000000 1.0
END
