TITL C-1525613-7943-3804 0.0267130716905893 3375 -8725.72792705816 0 0 60 (C2) n - 1
REM
REM in /home/nfs/bkarasulu/CARBON/AIRSS/Generating-Clusters/ReaxFF-fromJPCA2015/Units_Real/Try2-Higher-symm/Only-C60
REM
REM
REM
REM
REM
REM ./C.cell (863b2abdce7293c0672fb3ba77bf323a)
REM AIRSS Version 0.9.1 bugfix July 2018 build 013d7b7c2542+ Fri, 06 Jul 2018 19:26:36 +0100
REM compiler GCC version 9.2.1 20190827 (Red Hat 9.2.1-1)
REM options -cpp -mtune=generic -march=x86-64 -g -O0 -fpre-include=/usr/include/finclude/math-vector-fortran.h
REM seed 1243672478 -321996613 124782563 -1090974305 693230604 1196601256 1883739244 -595347620 1879318796 -1470705825 -659073999 -474503374 1456486798 -14452173 2065466943 402697770 -1100171468 -865888618 -1721236621 -651268177 -497245539 -1987966900 -1582248894 159733502 645056894 -982031636 -1441056744 -1857224262 1796405723 -1930091843 1770755016 2066817263 1766915449
REM
CELL 1.54180   15.00000   15.00000   15.00000   90.00000   90.00000   90.00000
LATT -1
SFAC C  
C      1  0.7100460000000  0.3547870000000  0.4985030000000 1.0
C      1  0.7071110000000  0.6502960000000  0.5012990000000 1.0
C      1  0.4183800000000  0.7166690000000  0.5006310000000 1.0
C      1  0.2408800000000  0.5024310000000  0.4999420000000 1.0
C      1  0.4220940000000  0.2495710000000  0.5001650000000 1.0
C      1  0.2899270000000  0.3545540000000  0.5013100000000 1.0
C      1  0.2929550000000  0.6501500000000  0.4987650000000 1.0
C      1  0.5820620000000  0.7171810000000  0.4993900000000 1.0
C      1  0.7590560000000  0.5025780000000  0.5000190000000 1.0
C      1  0.5779400000000  0.2495560000000  0.4997990000000 1.0
C      1  0.2756100000000  0.4815160000000  0.4094060000000 1.0
C      1  0.4551150000000  0.2805940000000  0.4116010000000 1.0
C      1  0.6911170000000  0.3936220000000  0.4090930000000 1.0
C      1  0.6663830000000  0.6466140000000  0.4094530000000 1.0
C      1  0.4105540000000  0.7021310000000  0.4092400000000 1.0
C      1  0.7242880000000  0.4815900000000  0.5907350000000 1.0
C      1  0.5448640000000  0.2806050000000  0.5883600000000 1.0
C      1  0.3088140000000  0.3935660000000  0.5908780000000 1.0
C      1  0.3336690000000  0.6466170000000  0.5905730000000 1.0
C      1  0.5894800000000  0.7024310000000  0.5908460000000 1.0
C      1  0.3119080000000  0.3892990000000  0.4116940000000 1.0
C      1  0.5517020000000  0.2817330000000  0.4100230000000 1.0
C      1  0.7232960000000  0.4874860000000  0.4091810000000 1.0
C      1  0.5819730000000  0.7056750000000  0.4077160000000 1.0
C      1  0.3281320000000  0.6407330000000  0.4065940000000 1.0
C      1  0.6880880000000  0.3894540000000  0.5883470000000 1.0
C      1  0.4483050000000  0.2817590000000  0.5899630000000 1.0
C      1  0.2766020000000  0.4877170000000  0.5909790000000 1.0
C      1  0.4181980000000  0.7054750000000  0.5923290000000 1.0
C      1  0.6718620000000  0.6409200000000  0.5934900000000 1.0
C      1  0.4276210000000  0.5201390000000  0.5731310000000 1.0
C      1  0.4488900000000  0.4286820000000  0.5469130000000 1.0
C      1  0.5477280000000  0.4280200000000  0.5484280000000 1.0
C      1  0.5748880000000  0.5131430000000  0.5761840000000 1.0
C      1  0.5052910000000  0.5745110000000  0.5745950000000 1.0
C      1  0.5723410000000  0.5200020000000  0.4269130000000 1.0
C      1  0.5510900000000  0.4285950000000  0.4530840000000 1.0
C      1  0.4522060000000  0.4279060000000  0.4515330000000 1.0
C      1  0.4250110000000  0.5130040000000  0.4238700000000 1.0
C      1  0.4948770000000  0.5744130000000  0.4251220000000 1.0
C      1  0.5930070000000  0.3655950000000  0.6236790000000 1.0
C      1  0.6818140000000  0.5553250000000  0.6425190000000 1.0
C      1  0.5041750000000  0.6913290000000  0.6414230000000 1.0
C      1  0.3212590000000  0.5619180000000  0.6410400000000 1.0
C      1  0.4005460000000  0.3668420000000  0.6279300000000 1.0
C      1  0.4069380000000  0.3655680000000  0.3762850000000 1.0
C      1  0.3181940000000  0.5551300000000  0.3574810000000 1.0
C      1  0.4959760000000  0.6911960000000  0.3584070000000 1.0
C      1  0.6784660000000  0.5619320000000  0.3589960000000 1.0
C      1  0.5993160000000  0.3668550000000  0.3720450000000 1.0
C      1  0.5450940000000  0.4300170000000  0.6887680000000 1.0
C      1  0.5881500000000  0.5229090000000  0.6750540000000 1.0
C      1  0.5026630000000  0.5976830000000  0.6726960000000 1.0
C      1  0.4137030000000  0.5284260000000  0.6730360000000 1.0
C      1  0.4508910000000  0.4324810000000  0.6889360000000 1.0
C      1  0.4548510000000  0.4299850000000  0.3113190000000 1.0
C      1  0.4117920000000  0.5227650000000  0.3248890000000 1.0
C      1  0.4973310000000  0.5975750000000  0.3273710000000 1.0
C      1  0.5863910000000  0.5282880000000  0.3269050000000 1.0
C      1  0.5490870000000  0.4324520000000  0.3111280000000 1.0
END
