TITL C-1525613-7943-7639 0.520481019295315 3375 -7336.88787508386 0 0 60 (C2) n - 1
REM
REM in /home/nfs/bkarasulu/CARBON/AIRSS/Generating-Clusters/ReaxFF-fromJPCA2015/Units_Real/Try2-Higher-symm/Only-C60
REM
REM
REM
REM
REM
REM ./C.cell (863b2abdce7293c0672fb3ba77bf323a)
REM AIRSS Version 0.9.1 bugfix July 2018 build 013d7b7c2542+ Fri, 06 Jul 2018 19:26:36 +0100
REM compiler GCC version 9.2.1 20190827 (Red Hat 9.2.1-1)
REM options -cpp -mtune=generic -march=x86-64 -g -O0 -fpre-include=/usr/include/finclude/math-vector-fortran.h
REM seed 775639599 -1308211059 -1408880025 1865190131 -2056634874 27560515 -897371020 -630687503 1520690406 1601248093 515010905 1543274386 -875422814 288539662 232789101 549942050 1975723173 -1087543711 2053910908 892300724 -653077466 1087001663 -1342715952 -529771384 790226487 2074034800 -1264576895 -1362558865 -2007537621 -1342969843 291799479 517437547 675076400
REM
CELL 1.54180   15.00000   15.00000   15.00000   90.00000   90.00000   90.00000
LATT -1
SFAC C  
C      1  0.4806920000000  0.3426730000000  0.7464860000000 1.0
C      1  0.5769930000000  0.3614240000000  0.7464980000000 1.0
C      1  0.6438860000000  0.4330720000000  0.7464160000000 1.0
C      1  0.6558330000000  0.5303260000000  0.7464770000000 1.0
C      1  0.6082770000000  0.6159730000000  0.7464770000000 1.0
C      1  0.5193280000000  0.6573220000000  0.7465390000000 1.0
C      1  0.4230650000000  0.6385400000000  0.7466170000000 1.0
C      1  0.3562440000000  0.5669540000000  0.7466020000000 1.0
C      1  0.3442500000000  0.4696370000000  0.7466460000000 1.0
C      1  0.3917620000000  0.3840370000000  0.7465870000000 1.0
C      1  0.3815170000000  0.6331390000000  0.4953760000000 1.0
C      1  0.3258350000000  0.5380340000000  0.4943080000000 1.0
C      1  0.3368120000000  0.4285930000000  0.4977040000000 1.0
C      1  0.4101110000000  0.3462640000000  0.4949230000000 1.0
C      1  0.5176590000000  0.3225370000000  0.4963610000000 1.0
C      1  0.6184830000000  0.3668380000000  0.4955490000000 1.0
C      1  0.6741640000000  0.4619450000000  0.4944470000000 1.0
C      1  0.6631930000000  0.5713870000000  0.4978320000000 1.0
C      1  0.5898900000000  0.6537150000000  0.4950310000000 1.0
C      1  0.4823420000000  0.6774360000000  0.4963990000000 1.0
C      1  0.5265500000000  0.3129550000000  0.2596290000000 1.0
C      1  0.6215550000000  0.3340890000000  0.2772070000000 1.0
C      1  0.6703660000000  0.4594270000000  0.2778890000000 1.0
C      1  0.6804030000000  0.5930500000000  0.2624320000000 1.0
C      1  0.6054080000000  0.6575780000000  0.2765520000000 1.0
C      1  0.4734540000000  0.6870450000000  0.2596240000000 1.0
C      1  0.3784500000000  0.6658850000000  0.2772010000000 1.0
C      1  0.3296180000000  0.5406060000000  0.2778570000000 1.0
C      1  0.3195930000000  0.4069500000000  0.2623960000000 1.0
C      1  0.3946050000000  0.3424190000000  0.2765260000000 1.0
C      1  0.4799080000000  0.3448350000000  0.6491140000000 1.0
C      1  0.5749030000000  0.3626900000000  0.6490760000000 1.0
C      1  0.6414090000000  0.4329290000000  0.6490140000000 1.0
C      1  0.6538360000000  0.5288930000000  0.6490650000000 1.0
C      1  0.6073820000000  0.6138980000000  0.6490640000000 1.0
C      1  0.5200180000000  0.6552590000000  0.6491670000000 1.0
C      1  0.4250190000000  0.6374130000000  0.6491880000000 1.0
C      1  0.3585470000000  0.5671200000000  0.6491320000000 1.0
C      1  0.3461100000000  0.4710760000000  0.6491940000000 1.0
C      1  0.3925200000000  0.3861590000000  0.6491770000000 1.0
C      1  0.6999440000000  0.5283730000000  0.3281780000000 1.0
C      1  0.6517030000000  0.6112580000000  0.3473290000000 1.0
C      1  0.5305850000000  0.6717390000000  0.3360370000000 1.0
C      1  0.4351860000000  0.7014950000000  0.3418910000000 1.0
C      1  0.3528740000000  0.5952920000000  0.3282210000000 1.0
C      1  0.3000740000000  0.4716510000000  0.3281440000000 1.0
C      1  0.3482900000000  0.3887420000000  0.3473010000000 1.0
C      1  0.4694240000000  0.3282730000000  0.3360230000000 1.0
C      1  0.5648020000000  0.2985010000000  0.3418910000000 1.0
C      1  0.6471360000000  0.4046660000000  0.3282570000000 1.0
C      1  0.5007390000000  0.2412810000000  0.5017130000000 1.0
C      1  0.6531840000000  0.2916520000000  0.5018080000000 1.0
C      1  0.7463400000000  0.4210980000000  0.5003370000000 1.0
C      1  0.7455960000000  0.5808970000000  0.5027080000000 1.0
C      1  0.6507980000000  0.7098950000000  0.5010700000000 1.0
C      1  0.4992480000000  0.7586940000000  0.5017320000000 1.0
C      1  0.3468080000000  0.7083180000000  0.5017020000000 1.0
C      1  0.2536630000000  0.5788860000000  0.5002400000000 1.0
C      1  0.2544130000000  0.4190810000000  0.5026400000000 1.0
C      1  0.3492050000000  0.2900850000000  0.5010040000000 1.0
END
