TITL C-1525613-7943-7215 0.114736411654803 3375 -9101.46890596056 0 0 60 (D5) n - 1
REM
REM in /home/nfs/bkarasulu/CARBON/AIRSS/Generating-Clusters/ReaxFF-fromJPCA2015/Units_Real/Try2-Higher-symm/Only-C60
REM
REM
REM
REM
REM
REM ./C.cell (863b2abdce7293c0672fb3ba77bf323a)
REM AIRSS Version 0.9.1 bugfix July 2018 build 013d7b7c2542+ Fri, 06 Jul 2018 19:26:36 +0100
REM compiler GCC version 9.2.1 20190827 (Red Hat 9.2.1-1)
REM options -cpp -mtune=generic -march=x86-64 -g -O0 -fpre-include=/usr/include/finclude/math-vector-fortran.h
REM seed 2133011589 -1850979765 -1765868320 343901377 -7914785 747851747 -734744215 -1776058518 -1101492592 -1561163767 933532467 -1521212639 -1345896887 1164166259 1023514281 -455209034 1990391427 -970523968 -1187008294 981940790 -127456129 1899332836 -1695108797 -1002809170 -1255615413 157555874 -1988625004 730318163 -1203374320 -343383680 1791288766 108456247 620341334
REM
CELL 1.54180   15.00000   15.00000   15.00000   90.00000   90.00000   90.00000
LATT -1
SFAC C  
C      1  0.5949590000000  0.2922640000000  0.3616070000000 1.0
C      1  0.5953320000000  0.5673700000000  0.2598390000000 1.0
C      1  0.5954840000000  0.7490920000000  0.4899030000000 1.0
C      1  0.5949930000000  0.5868670000000  0.7340060000000 1.0
C      1  0.5956460000000  0.3041070000000  0.6547830000000 1.0
C      1  0.4050410000000  0.7077360000000  0.3616070000000 1.0
C      1  0.4046680000000  0.4326300000000  0.2598390000000 1.0
C      1  0.4045160000000  0.2509080000000  0.4899030000000 1.0
C      1  0.4050070000000  0.4131330000000  0.7340060000000 1.0
C      1  0.4043540000000  0.6958930000000  0.6547830000000 1.0
C      1  0.5023810000000  0.3045720000000  0.6881790000000 1.0
C      1  0.5019040000000  0.2606600000000  0.3722220000000 1.0
C      1  0.5021520000000  0.5474760000000  0.2328510000000 1.0
C      1  0.5024430000000  0.7686010000000  0.4625960000000 1.0
C      1  0.5018180000000  0.6185840000000  0.7438740000000 1.0
C      1  0.4976190000000  0.6954280000000  0.6881790000000 1.0
C      1  0.4980960000000  0.7393400000000  0.3722220000000 1.0
C      1  0.4978480000000  0.4525240000000  0.2328510000000 1.0
C      1  0.4975570000000  0.2313990000000  0.4625960000000 1.0
C      1  0.4981820000000  0.3814160000000  0.7438740000000 1.0
C      1  0.5865730000000  0.2501690000000  0.5039220000000 1.0
C      1  0.5867880000000  0.4191180000000  0.2636010000000 1.0
C      1  0.5871050000000  0.6995570000000  0.3499690000000 1.0
C      1  0.5864150000000  0.7045060000000  0.6435580000000 1.0
C      1  0.5871020000000  0.4264660000000  0.7387960000000 1.0
C      1  0.4134270000000  0.7498310000000  0.5039220000000 1.0
C      1  0.4132120000000  0.5808820000000  0.2636010000000 1.0
C      1  0.4128950000000  0.3004430000000  0.3499690000000 1.0
C      1  0.4135850000000  0.2954940000000  0.6435580000000 1.0
C      1  0.4128980000000  0.5735340000000  0.7387960000000 1.0
C      1  0.6093910000000  0.4216290000000  0.5278640000000 1.0
C      1  0.6092510000000  0.4491120000000  0.4341790000000 1.0
C      1  0.6092150000000  0.5469160000000  0.4313480000000 1.0
C      1  0.6092850000000  0.5796640000000  0.5237980000000 1.0
C      1  0.6093770000000  0.5020410000000  0.5831030000000 1.0
C      1  0.3906090000000  0.5783710000000  0.5278640000000 1.0
C      1  0.3907490000000  0.5508880000000  0.4341790000000 1.0
C      1  0.3907850000000  0.4530840000000  0.4313480000000 1.0
C      1  0.3907150000000  0.4203360000000  0.5237980000000 1.0
C      1  0.3906230000000  0.4979590000000  0.5831030000000 1.0
C      1  0.6523900000000  0.4880980000000  0.2332360000000 1.0
C      1  0.6526980000000  0.7496840000000  0.4064450000000 1.0
C      1  0.6519780000000  0.6666610000000  0.7088980000000 1.0
C      1  0.6526600000000  0.3530060000000  0.7228370000000 1.0
C      1  0.6520640000000  0.2424130000000  0.4286900000000 1.0
C      1  0.3476100000000  0.5119020000000  0.2332360000000 1.0
C      1  0.3473020000000  0.2503160000000  0.4064450000000 1.0
C      1  0.3480220000000  0.3333390000000  0.7088980000000 1.0
C      1  0.3473400000000  0.6469940000000  0.7228370000000 1.0
C      1  0.3479360000000  0.7575870000000  0.4286900000000 1.0
C      1  0.6046400000000  0.5047630000000  0.6799650000000 1.0
C      1  0.6046900000000  0.3302970000000  0.5599100000000 1.0
C      1  0.6043870000000  0.3903470000000  0.3571730000000 1.0
C      1  0.6044260000000  0.6018670000000  0.3516300000000 1.0
C      1  0.6043230000000  0.6725920000000  0.5512180000000 1.0
C      1  0.3953600000000  0.4952370000000  0.6799650000000 1.0
C      1  0.3953100000000  0.6697030000000  0.5599100000000 1.0
C      1  0.3956130000000  0.6096530000000  0.3571730000000 1.0
C      1  0.3955740000000  0.3981330000000  0.3516300000000 1.0
C      1  0.3956770000000  0.3274080000000  0.5512180000000 1.0
END
