TITL C-1525613-7943-7724 0.0461770086464766 3375 -8737.67417249703 0 0 60 (C1) n - 1
REM
REM in /home/nfs/bkarasulu/CARBON/AIRSS/Generating-Clusters/ReaxFF-fromJPCA2015/Units_Real/Try2-Higher-symm/Only-C60
REM
REM
REM
REM
REM
REM ./C.cell (863b2abdce7293c0672fb3ba77bf323a)
REM AIRSS Version 0.9.1 bugfix July 2018 build 013d7b7c2542+ Fri, 06 Jul 2018 19:26:36 +0100
REM compiler GCC version 9.2.1 20190827 (Red Hat 9.2.1-1)
REM options -cpp -mtune=generic -march=x86-64 -g -O0 -fpre-include=/usr/include/finclude/math-vector-fortran.h
REM seed -1654008030 659018300 -500116214 -586096498 -2088066687 -2061675851 -692648591 -55645588 -971338001 605898038 732490487 -116474842 -1528929289 -1969418618 -2122501049 1797932266 -339855123 215299984 -147280869 78056209 -107967049 353496951 -2028063792 1309854561 -496213807 -1654027526 -1942294562 -1644872897 12763165 1259499525 -534168618 -1377659261 -191445947
REM
CELL 1.54180   15.00000   15.00000   15.00000   90.00000   90.00000   90.00000
LATT -1
SFAC C  
C      1  0.6370840000000  0.3098050000000  0.4666970000000 1.0
C      1  0.3443740000000  0.2937910000000  0.4526000000000 1.0
C      1  0.2866280000000  0.5354160000000  0.4144020000000 1.0
C      1  0.5042770000000  0.7635970000000  0.4546520000000 1.0
C      1  0.6950640000000  0.6020010000000  0.4435470000000 1.0
C      1  0.6424600000000  0.3590490000000  0.5501590000000 1.0
C      1  0.3419480000000  0.2900370000000  0.5470940000000 1.0
C      1  0.2820320000000  0.5337110000000  0.5864250000000 1.0
C      1  0.5072930000000  0.7610990000000  0.5536990000000 1.0
C      1  0.7450860000000  0.5869450000000  0.5259620000000 1.0
C      1  0.3884230000000  0.3932960000000  0.6938630000000 1.0
C      1  0.3704860000000  0.5881450000000  0.7099550000000 1.0
C      1  0.5186060000000  0.6544720000000  0.7005530000000 1.0
C      1  0.6639680000000  0.5267280000000  0.6910650000000 1.0
C      1  0.5651380000000  0.3458030000000  0.7051060000000 1.0
C      1  0.3977320000000  0.3983440000000  0.3100260000000 1.0
C      1  0.3750050000000  0.5928880000000  0.2941040000000 1.0
C      1  0.5281880000000  0.6493090000000  0.3158500000000 1.0
C      1  0.6792300000000  0.5246660000000  0.2841900000000 1.0
C      1  0.5785420000000  0.3606900000000  0.3042280000000 1.0
C      1  0.4460670000000  0.4462480000000  0.2450500000000 1.0
C      1  0.4361610000000  0.5471110000000  0.2349680000000 1.0
C      1  0.5268990000000  0.5897770000000  0.2424090000000 1.0
C      1  0.5980890000000  0.5152390000000  0.2368000000000 1.0
C      1  0.5475060000000  0.4261470000000  0.2438460000000 1.0
C      1  0.4392650000000  0.4407230000000  0.7572240000000 1.0
C      1  0.4298020000000  0.5409970000000  0.7697030000000 1.0
C      1  0.5210630000000  0.5834630000000  0.7629530000000 1.0
C      1  0.5928350000000  0.5101100000000  0.7512880000000 1.0
C      1  0.5412830000000  0.4210310000000  0.7552500000000 1.0
C      1  0.1969740000000  0.5713990000000  0.5483600000000 1.0
C      1  0.5706920000000  0.8313270000000  0.5487340000000 1.0
C      1  0.8273800000000  0.5497850000000  0.5053490000000 1.0
C      1  0.5814820000000  0.2286470000000  0.5721310000000 1.0
C      1  0.2499400000000  0.2486620000000  0.5474710000000 1.0
C      1  0.1999730000000  0.5731000000000  0.4487690000000 1.0
C      1  0.5687380000000  0.8339660000000  0.4596030000000 1.0
C      1  0.8134750000000  0.5213430000000  0.4200250000000 1.0
C      1  0.6225050000000  0.2095340000000  0.4852350000000 1.0
C      1  0.2524310000000  0.2532640000000  0.4443230000000 1.0
C      1  0.6547060000000  0.4525250000000  0.5309720000000 1.0
C      1  0.4766110000000  0.3711430000000  0.5477460000000 1.0
C      1  0.3203670000000  0.4546050000000  0.5458490000000 1.0
C      1  0.4267130000000  0.6193200000000  0.5504440000000 1.0
C      1  0.5967500000000  0.6130400000000  0.5580320000000 1.0
C      1  0.6463750000000  0.4498710000000  0.4382040000000 1.0
C      1  0.4832480000000  0.3805900000000  0.4583740000000 1.0
C      1  0.3237290000000  0.4561320000000  0.4554940000000 1.0
C      1  0.4297390000000  0.6200400000000  0.4571250000000 1.0
C      1  0.6058180000000  0.6287800000000  0.4685740000000 1.0
C      1  0.5133060000000  0.6606330000000  0.5974990000000 1.0
C      1  0.6659580000000  0.5442430000000  0.5890900000000 1.0
C      1  0.5565070000000  0.3258540000000  0.6022950000000 1.0
C      1  0.3821820000000  0.3789200000000  0.5918070000000 1.0
C      1  0.3545780000000  0.5968100000000  0.6111050000000 1.0
C      1  0.5170990000000  0.6644480000000  0.4157170000000 1.0
C      1  0.7035840000000  0.5166340000000  0.3845650000000 1.0
C      1  0.5788480000000  0.3725240000000  0.4087070000000 1.0
C      1  0.3902770000000  0.3829910000000  0.4115000000000 1.0
C      1  0.3594830000000  0.5992270000000  0.3932330000000 1.0
END
