TITL C-1525613-7943-4994 0.0898454248655402 3375 -9132.30653327746 0 0 60 (C1) n - 1
REM
REM in /home/nfs/bkarasulu/CARBON/AIRSS/Generating-Clusters/ReaxFF-fromJPCA2015/Units_Real/Try2-Higher-symm/Only-C60
REM
REM
REM
REM
REM
REM ./C.cell (863b2abdce7293c0672fb3ba77bf323a)
REM AIRSS Version 0.9.1 bugfix July 2018 build 013d7b7c2542+ Fri, 06 Jul 2018 19:26:36 +0100
REM compiler GCC version 9.2.1 20190827 (Red Hat 9.2.1-1)
REM options -cpp -mtune=generic -march=x86-64 -g -O0 -fpre-include=/usr/include/finclude/math-vector-fortran.h
REM seed 389896881 -617735007 439933885 442772290 -1106707035 233981077 104656670 -794600999 -1487620568 1288697494 -207251375 918383150 -927763675 -1377269601 1113964989 693801207 -1496845024 -1256908682 -828426435 -556421559 -389259123 -1412846172 247899527 1062788705 147822575 474846963 -1679291197 -1964496287 61421830 -511548 1777528323 787272250 1156874933
REM
CELL 1.54180   15.00000   15.00000   15.00000   90.00000   90.00000   90.00000
LATT -1
SFAC C  
C      1  0.4070630000000  0.2775850000000  0.5656430000000 1.0
C      1  0.4792530000000  0.2806690000000  0.6095620000000 1.0
C      1  0.5609390000000  0.2929390000000  0.6236010000000 1.0
C      1  0.6481870000000  0.3145700000000  0.5974350000000 1.0
C      1  0.6289400000000  0.2944970000000  0.5070230000000 1.0
C      1  0.5804450000000  0.2919340000000  0.4375190000000 1.0
C      1  0.5139950000000  0.3014420000000  0.3858350000000 1.0
C      1  0.4331400000000  0.3227010000000  0.3456650000000 1.0
C      1  0.3524140000000  0.3209280000000  0.4057820000000 1.0
C      1  0.3700640000000  0.2943100000000  0.4930860000000 1.0
C      1  0.2575390000000  0.4701970000000  0.6150270000000 1.0
C      1  0.3594210000000  0.4726580000000  0.7269070000000 1.0
C      1  0.5170190000000  0.4511260000000  0.7466960000000 1.0
C      1  0.6686460000000  0.4574930000000  0.6963520000000 1.0
C      1  0.7456680000000  0.4497610000000  0.5591830000000 1.0
C      1  0.7248490000000  0.4608600000000  0.3856840000000 1.0
C      1  0.6563190000000  0.4836590000000  0.2443430000000 1.0
C      1  0.5002510000000  0.4557850000000  0.2630460000000 1.0
C      1  0.3428320000000  0.4478250000000  0.3155740000000 1.0
C      1  0.2542310000000  0.4516010000000  0.4566010000000 1.0
C      1  0.6733410000000  0.4213950000000  0.3098050000000 1.0
C      1  0.5905170000000  0.4227890000000  0.2620630000000 1.0
C      1  0.4258350000000  0.4046290000000  0.2935780000000 1.0
C      1  0.3005140000000  0.4006340000000  0.3869620000000 1.0
C      1  0.2655590000000  0.4309310000000  0.5430270000000 1.0
C      1  0.3170820000000  0.4319450000000  0.6629140000000 1.0
C      1  0.4370580000000  0.4383840000000  0.7241270000000 1.0
C      1  0.5918910000000  0.4247830000000  0.7098780000000 1.0
C      1  0.6956540000000  0.3970750000000  0.6286990000000 1.0
C      1  0.7357790000000  0.4282200000000  0.4709080000000 1.0
C      1  0.7476570000000  0.5514050000000  0.5601760000000 1.0
C      1  0.7333950000000  0.5608890000000  0.3959180000000 1.0
C      1  0.6442210000000  0.5783110000000  0.2643810000000 1.0
C      1  0.4860440000000  0.5503210000000  0.2500840000000 1.0
C      1  0.3360890000000  0.5443150000000  0.3093380000000 1.0
C      1  0.2482830000000  0.5510020000000  0.4452630000000 1.0
C      1  0.2529630000000  0.5700580000000  0.6072350000000 1.0
C      1  0.3564220000000  0.5730950000000  0.7287640000000 1.0
C      1  0.5139720000000  0.5489970000000  0.7566390000000 1.0
C      1  0.6721980000000  0.5579500000000  0.6994180000000 1.0
C      1  0.3650330000000  0.6535030000000  0.4187430000000 1.0
C      1  0.3422430000000  0.6589180000000  0.5125160000000 1.0
C      1  0.3793890000000  0.6647370000000  0.6016360000000 1.0
C      1  0.4630820000000  0.6586180000000  0.6506470000000 1.0
C      1  0.5594000000000  0.6561350000000  0.6446150000000 1.0
C      1  0.6329800000000  0.6573170000000  0.5827250000000 1.0
C      1  0.6519010000000  0.6555870000000  0.4883060000000 1.0
C      1  0.6172130000000  0.6643540000000  0.3983050000000 1.0
C      1  0.5351000000000  0.6624810000000  0.3471460000000 1.0
C      1  0.4391000000000  0.6535670000000  0.3566240000000 1.0
C      1  0.2642300000000  0.6049410000000  0.5205050000000 1.0
C      1  0.3170560000000  0.6183580000000  0.6559720000000 1.0
C      1  0.4436590000000  0.6058660000000  0.7265310000000 1.0
C      1  0.5886500000000  0.5991730000000  0.7169570000000 1.0
C      1  0.7000290000000  0.6012330000000  0.6225490000000 1.0
C      1  0.7268290000000  0.5970200000000  0.4811600000000 1.0
C      1  0.6786280000000  0.6149080000000  0.3452280000000 1.0
C      1  0.5546780000000  0.6097200000000  0.2701330000000 1.0
C      1  0.4131660000000  0.5913030000000  0.2891670000000 1.0
C      1  0.3019480000000  0.5925940000000  0.3807970000000 1.0
END
