TITL C-1525613-7943-1387 -0.00281653325241602 3375 -9411.15542657568 0 0 60 (C5) n - 1
REM
REM in /home/nfs/bkarasulu/CARBON/AIRSS/Generating-Clusters/ReaxFF-fromJPCA2015/Units_Real/Try2-Higher-symm/Only-C60
REM
REM
REM
REM
REM
REM ./C.cell (863b2abdce7293c0672fb3ba77bf323a)
REM AIRSS Version 0.9.1 bugfix July 2018 build 013d7b7c2542+ Fri, 06 Jul 2018 19:26:36 +0100
REM compiler GCC version 9.2.1 20190827 (Red Hat 9.2.1-1)
REM options -cpp -mtune=generic -march=x86-64 -g -O0 -fpre-include=/usr/include/finclude/math-vector-fortran.h
REM seed -1355200687 857274629 1308743358 -115568944 -1963793657 -2003003783 927808840 -701682709 1203873419 -1319109236 415974483 535460946 -1974748913 1358207469 734885667 206278847 233031774 916928741 -1519044272 1180437907 -856062425 1283160901 211531355 315986111 2038850306 -208401208 1623678263 1618959616 861636897 -1638123004 -1836347371 -188205963 877450438
REM
CELL 1.54180   15.00000   15.00000   15.00000   90.00000   90.00000   90.00000
LATT -1
SFAC C  
C      1  0.6245870000000  0.7170860000000  0.4537730000000 1.0
C      1  0.6245850000000  0.6110360000000  0.6921850000000 1.0
C      1  0.6245760000000  0.3515340000000  0.6650210000000 1.0
C      1  0.6245720000000  0.2972150000000  0.4097990000000 1.0
C      1  0.6246000000000  0.5231180000000  0.2792430000000 1.0
C      1  0.6245770000000  0.7170710000000  0.5462270000000 1.0
C      1  0.6245940000000  0.6110440000000  0.3078190000000 1.0
C      1  0.6246010000000  0.3515360000000  0.3349870000000 1.0
C      1  0.6245540000000  0.2972160000000  0.5902080000000 1.0
C      1  0.6245950000000  0.5231150000000  0.7207760000000 1.0
C      1  0.4621370000000  0.6161430000000  0.7017780000000 1.0
C      1  0.4621300000000  0.3440170000000  0.6728620000000 1.0
C      1  0.4621240000000  0.2874820000000  0.4050280000000 1.0
C      1  0.4621620000000  0.5246150000000  0.2684710000000 1.0
C      1  0.4621430000000  0.7277760000000  0.4518690000000 1.0
C      1  0.4621410000000  0.6161430000000  0.2982440000000 1.0
C      1  0.4621570000000  0.3439880000000  0.3271070000000 1.0
C      1  0.4621060000000  0.2875050000000  0.5949530000000 1.0
C      1  0.4621520000000  0.5246150000000  0.7315640000000 1.0
C      1  0.4621340000000  0.7277450000000  0.5481100000000 1.0
C      1  0.3800280000000  0.6593170000000  0.3246520000000 1.0
C      1  0.3800010000000  0.7159440000000  0.5973550000000 1.0
C      1  0.3800210000000  0.4741410000000  0.7356190000000 1.0
C      1  0.3799730000000  0.2681460000000  0.5481770000000 1.0
C      1  0.3800420000000  0.3824350000000  0.2941340000000 1.0
C      1  0.3800130000000  0.6593130000000  0.6753540000000 1.0
C      1  0.3800210000000  0.7160100000000  0.4026140000000 1.0
C      1  0.3800310000000  0.4741190000000  0.2644150000000 1.0
C      1  0.3799820000000  0.2681320000000  0.4517860000000 1.0
C      1  0.3800150000000  0.3824740000000  0.7058270000000 1.0
C      1  0.6945870000000  0.3495210000000  0.5484230000000 1.0
C      1  0.6946290000000  0.4074480000000  0.3718420000000 1.0
C      1  0.6946180000000  0.5932820000000  0.3723810000000 1.0
C      1  0.6946040000000  0.6501850000000  0.5492870000000 1.0
C      1  0.6946230000000  0.4995340000000  0.6580990000000 1.0
C      1  0.6945960000000  0.3495240000000  0.4515960000000 1.0
C      1  0.6946150000000  0.4074400000000  0.6281780000000 1.0
C      1  0.6946050000000  0.5932730000000  0.6276250000000 1.0
C      1  0.6946230000000  0.6501990000000  0.4507190000000 1.0
C      1  0.6946240000000  0.4995400000000  0.3419210000000 1.0
C      1  0.2946520000000  0.2785070000000  0.5998510000000 1.0
C      1  0.2947130000000  0.3364900000000  0.3199210000000 1.0
C      1  0.2946880000000  0.6205640000000  0.2889730000000 1.0
C      1  0.2946720000000  0.7379230000000  0.5494560000000 1.0
C      1  0.2947030000000  0.5264840000000  0.7417370000000 1.0
C      1  0.2946750000000  0.2784660000000  0.4000940000000 1.0
C      1  0.2946790000000  0.3365580000000  0.6799970000000 1.0
C      1  0.2946930000000  0.6205890000000  0.7110950000000 1.0
C      1  0.2946830000000  0.7380010000000  0.4504980000000 1.0
C      1  0.2946980000000  0.5264520000000  0.2583530000000 1.0
C      1  0.5439580000000  0.7103500000000  0.5944370000000 1.0
C      1  0.5439810000000  0.4751820000000  0.7293140000000 1.0
C      1  0.5439290000000  0.2743410000000  0.5472520000000 1.0
C      1  0.5439960000000  0.3853010000000  0.2998890000000 1.0
C      1  0.5439670000000  0.6548140000000  0.3290970000000 1.0
C      1  0.5439690000000  0.7103760000000  0.4055560000000 1.0
C      1  0.5439950000000  0.4751780000000  0.2707040000000 1.0
C      1  0.5439400000000  0.2743350000000  0.4527430000000 1.0
C      1  0.5439680000000  0.3853070000000  0.7001070000000 1.0
C      1  0.5439630000000  0.6548070000000  0.6709010000000 1.0
END
