TITL C-1525613-7943-7186 0.0622290634647496 3375 -8410.80527769329 0 0 60 (C1) n - 1
REM
REM in /home/nfs/bkarasulu/CARBON/AIRSS/Generating-Clusters/ReaxFF-fromJPCA2015/Units_Real/Try2-Higher-symm/Only-C60
REM
REM
REM
REM
REM
REM ./C.cell (863b2abdce7293c0672fb3ba77bf323a)
REM AIRSS Version 0.9.1 bugfix July 2018 build 013d7b7c2542+ Fri, 06 Jul 2018 19:26:36 +0100
REM compiler GCC version 9.2.1 20190827 (Red Hat 9.2.1-1)
REM options -cpp -mtune=generic -march=x86-64 -g -O0 -fpre-include=/usr/include/finclude/math-vector-fortran.h
REM seed -1797482797 245040803 -1886906031 764613437 1625720679 -1348749164 -1521507675 -349857891 1295875164 -954617691 -107652965 -936084046 1695784216 389393542 1423457082 -2092292915 -706527335 -406310406 1917513803 1095183741 345033306 -1695829900 -583659594 345922761 926546038 -767770704 -352555019 1484814178 -641005222 -2141618434 2135350651 -1379292315 -1398768899
REM
CELL 1.54180   15.00000   15.00000   15.00000   90.00000   90.00000   90.00000
LATT -1
SFAC C  
C      1  0.5177160000000  0.6598110000000  0.4014560000000 1.0
C      1  0.4288590000000  0.6333310000000  0.4198010000000 1.0
C      1  0.3535490000000  0.5772760000000  0.4049030000000 1.0
C      1  0.3760720000000  0.4854630000000  0.4231580000000 1.0
C      1  0.4205440000000  0.4122730000000  0.4183370000000 1.0
C      1  0.4817520000000  0.3395830000000  0.4003100000000 1.0
C      1  0.5705990000000  0.3658020000000  0.4190280000000 1.0
C      1  0.6460500000000  0.4219410000000  0.4048020000000 1.0
C      1  0.6233590000000  0.5136330000000  0.4236070000000 1.0
C      1  0.5787510000000  0.5868180000000  0.4191270000000 1.0
C      1  0.7406570000000  0.6797860000000  0.5293590000000 1.0
C      1  0.5942210000000  0.7891020000000  0.5299760000000 1.0
C      1  0.4051920000000  0.8147140000000  0.5441150000000 1.0
C      1  0.2318210000000  0.6738420000000  0.5473610000000 1.0
C      1  0.1807530000000  0.4734440000000  0.5548930000000 1.0
C      1  0.2588910000000  0.3120660000000  0.5353680000000 1.0
C      1  0.3974020000000  0.1853800000000  0.5490760000000 1.0
C      1  0.6165930000000  0.1936590000000  0.5430050000000 1.0
C      1  0.7720270000000  0.3398790000000  0.5559800000000 1.0
C      1  0.8052970000000  0.5134900000000  0.5347050000000 1.0
C      1  0.5665020000000  0.6397330000000  0.6175960000000 1.0
C      1  0.4717550000000  0.6553770000000  0.6138800000000 1.0
C      1  0.3910350000000  0.6048980000000  0.6052950000000 1.0
C      1  0.3507220000000  0.5222180000000  0.6017600000000 1.0
C      1  0.3640930000000  0.4289810000000  0.6075020000000 1.0
C      1  0.4336130000000  0.3588710000000  0.6093830000000 1.0
C      1  0.5272780000000  0.3508910000000  0.6010350000000 1.0
C      1  0.6074550000000  0.3959910000000  0.6032580000000 1.0
C      1  0.6522510000000  0.4791760000000  0.6100310000000 1.0
C      1  0.6356010000000  0.5735720000000  0.6123690000000 1.0
C      1  0.3337940000000  0.7627300000000  0.5439810000000 1.0
C      1  0.1879150000000  0.6049460000000  0.5471680000000 1.0
C      1  0.1858920000000  0.3835950000000  0.5577000000000 1.0
C      1  0.3085000000000  0.2397220000000  0.5720190000000 1.0
C      1  0.4843750000000  0.1834050000000  0.5439500000000 1.0
C      1  0.6845870000000  0.2378890000000  0.5480030000000 1.0
C      1  0.8233810000000  0.4150330000000  0.5576980000000 1.0
C      1  0.7975740000000  0.6062960000000  0.5586430000000 1.0
C      1  0.6856860000000  0.7556440000000  0.5529020000000 1.0
C      1  0.5090460000000  0.8196370000000  0.5624530000000 1.0
C      1  0.5903080000000  0.3786440000000  0.2834850000000 1.0
C      1  0.6521490000000  0.4476040000000  0.3025060000000 1.0
C      1  0.6131940000000  0.5345790000000  0.2850420000000 1.0
C      1  0.5662280000000  0.6067310000000  0.2805030000000 1.0
C      1  0.4923270000000  0.6655980000000  0.2988010000000 1.0
C      1  0.4094500000000  0.6213920000000  0.2840810000000 1.0
C      1  0.3475670000000  0.5523260000000  0.3024250000000 1.0
C      1  0.3864900000000  0.4654470000000  0.2845170000000 1.0
C      1  0.4334480000000  0.3932340000000  0.2796660000000 1.0
C      1  0.5074690000000  0.3344010000000  0.2976660000000 1.0
C      1  0.7526890000000  0.4704350000000  0.6015220000000 1.0
C      1  0.7171810000000  0.6223190000000  0.5990700000000 1.0
C      1  0.6105040000000  0.7275920000000  0.6048900000000 1.0
C      1  0.4564860000000  0.7556820000000  0.6089840000000 1.0
C      1  0.3194260000000  0.6801470000000  0.5731800000000 1.0
C      1  0.2422770000000  0.5365610000000  0.5736770000000 1.0
C      1  0.2758340000000  0.3805910000000  0.6005070000000 1.0
C      1  0.3913020000000  0.2664730000000  0.6095840000000 1.0
C      1  0.5467530000000  0.2441540000000  0.5696640000000 1.0
C      1  0.6877590000000  0.3261950000000  0.5752340000000 1.0
END
