TITL C-1525613-7943-7403 -0.000146561634244383 3375 -9532.32939820788 0 0 60 (D5d) n - 1
REM
REM in /home/nfs/bkarasulu/CARBON/AIRSS/Generating-Clusters/ReaxFF-fromJPCA2015/Units_Real/Try2-Higher-symm/Only-C60
REM
REM
REM
REM
REM
REM ./C.cell (863b2abdce7293c0672fb3ba77bf323a)
REM AIRSS Version 0.9.1 bugfix July 2018 build 013d7b7c2542+ Fri, 06 Jul 2018 19:26:36 +0100
REM compiler GCC version 9.2.1 20190827 (Red Hat 9.2.1-1)
REM options -cpp -mtune=generic -march=x86-64 -g -O0 -fpre-include=/usr/include/finclude/math-vector-fortran.h
REM seed 55328134 -392039417 -1258034303 637652731 1149148528 -1898253793 403769564 -352106457 219133815 -1857097259 894038048 -1018954340 959024712 1290502205 -306833406 -334139595 -806810127 -2071392909 -1755587137 -1011680623 1825953882 2102629840 748342340 -77201028 1288014011 -989776176 357742458 -55531861 225843396 359450374 343611550 1860178465 -709131378
REM
CELL 1.54180   15.00000   15.00000   15.00000   90.00000   90.00000   90.00000
LATT -1
SFAC C  
C      1  0.2708250000000  0.4520890000000  0.4594590000000 1.0
C      1  0.4744230000000  0.2680540000000  0.4592970000000 1.0
C      1  0.7132490000000  0.4049660000000  0.4589910000000 1.0
C      1  0.6568990000000  0.6735480000000  0.4591630000000 1.0
C      1  0.3835940000000  0.7029460000000  0.4591380000000 1.0
C      1  0.2710390000000  0.5481860000000  0.4591760000000 1.0
C      1  0.4748740000000  0.7325990000000  0.4591340000000 1.0
C      1  0.7135660000000  0.5959370000000  0.4594470000000 1.0
C      1  0.6570320000000  0.3273830000000  0.4592920000000 1.0
C      1  0.3833430000000  0.2977820000000  0.4590000000000 1.0
C      1  0.7286770000000  0.5479360000000  0.5409250000000 1.0
C      1  0.5249750000000  0.7327190000000  0.5409660000000 1.0
C      1  0.2866140000000  0.5958650000000  0.5409030000000 1.0
C      1  0.3422560000000  0.3266520000000  0.5403370000000 1.0
C      1  0.6160460000000  0.2978130000000  0.5412810000000 1.0
C      1  0.7295180000000  0.4524760000000  0.5403280000000 1.0
C      1  0.5249680000000  0.2682180000000  0.5412840000000 1.0
C      1  0.2868240000000  0.4043740000000  0.5409340000000 1.0
C      1  0.3429970000000  0.6735970000000  0.5409730000000 1.0
C      1  0.6162800000000  0.7029720000000  0.5408900000000 1.0
C      1  0.5935640000000  0.6271940000000  0.3103420000000 1.0
C      1  0.4077480000000  0.6278220000000  0.3103910000000 1.0
C      1  0.3493810000000  0.4514170000000  0.3101400000000 1.0
C      1  0.4993140000000  0.3417310000000  0.3098960000000 1.0
C      1  0.6500960000000  0.4503310000000  0.3103230000000 1.0
C      1  0.5935930000000  0.3723500000000  0.3098880000000 1.0
C      1  0.4077700000000  0.3716180000000  0.3103420000000 1.0
C      1  0.3495050000000  0.5479180000000  0.3103420000000 1.0
C      1  0.4994800000000  0.6576120000000  0.3103890000000 1.0
C      1  0.6504050000000  0.5492100000000  0.3101330000000 1.0
C      1  0.7059930000000  0.4082700000000  0.6225950000000 1.0
C      1  0.6496420000000  0.6657020000000  0.6215120000000 1.0
C      1  0.3881200000000  0.6941370000000  0.6216310000000 1.0
C      1  0.2820680000000  0.4533280000000  0.6211070000000 1.0
C      1  0.4775710000000  0.2785650000000  0.6218670000000 1.0
C      1  0.7037530000000  0.5903410000000  0.6210970000000 1.0
C      1  0.6483100000000  0.3340440000000  0.6218600000000 1.0
C      1  0.3872740000000  0.3047120000000  0.6226040000000 1.0
C      1  0.2815450000000  0.5461020000000  0.6215240000000 1.0
C      1  0.4764070000000  0.7228220000000  0.6216270000000 1.0
C      1  0.6118000000000  0.3061830000000  0.3785340000000 1.0
C      1  0.7193360000000  0.5463770000000  0.3783290000000 1.0
C      1  0.5235710000000  0.7223730000000  0.3784890000000 1.0
C      1  0.2955710000000  0.5910280000000  0.3785720000000 1.0
C      1  0.3503010000000  0.3338530000000  0.3787550000000 1.0
C      1  0.6118650000000  0.6937780000000  0.3785620000000 1.0
C      1  0.7187830000000  0.4535660000000  0.3787410000000 1.0
C      1  0.5234730000000  0.2774920000000  0.3785380000000 1.0
C      1  0.2952880000000  0.4086050000000  0.3783400000000 1.0
C      1  0.3502000000000  0.6660550000000  0.3784970000000 1.0
C      1  0.5005790000000  0.6582200000000  0.6899190000000 1.0
C      1  0.3502720000000  0.5492890000000  0.6895960000000 1.0
C      1  0.4079770000000  0.3725040000000  0.6909820000000 1.0
C      1  0.5908280000000  0.3718940000000  0.6871480000000 1.0
C      1  0.6495240000000  0.5474600000000  0.6894140000000 1.0
C      1  0.5018280000000  0.3429730000000  0.6871530000000 1.0
C      1  0.3511500000000  0.4505120000000  0.6894170000000 1.0
C      1  0.4065440000000  0.6276660000000  0.6899240000000 1.0
C      1  0.5921730000000  0.6278880000000  0.6895900000000 1.0
C      1  0.6493990000000  0.4509480000000  0.6909730000000 1.0
END
