TITL C-1525613-7943-537 0.013174320197782 3375 -9027.79955884015 0 0 60 (C1) n - 1
REM
REM in /home/nfs/bkarasulu/CARBON/AIRSS/Generating-Clusters/ReaxFF-fromJPCA2015/Units_Real/Try2-Higher-symm/Only-C60
REM
REM
REM
REM
REM
REM ./C.cell (863b2abdce7293c0672fb3ba77bf323a)
REM AIRSS Version 0.9.1 bugfix July 2018 build 013d7b7c2542+ Fri, 06 Jul 2018 19:26:36 +0100
REM compiler GCC version 9.2.1 20190827 (Red Hat 9.2.1-1)
REM options -cpp -mtune=generic -march=x86-64 -g -O0 -fpre-include=/usr/include/finclude/math-vector-fortran.h
REM seed -1757705538 -945416467 -1200408035 -1100516261 1391220129 -1555671109 775413336 1615714205 521788837 -1575282237 1779397049 -1424219622 -1926480793 415577045 1366688214 828312184 -578422039 199356331 833673904 -513985879 -564934037 -1295047077 1568848984 -1637958604 810497866 1016296159 1040940833 -2051964339 1925907646 2034959015 -78862273 2053772514 1474594698
REM
CELL 1.54180   15.00000   15.00000   15.00000   90.00000   90.00000   90.00000
LATT -1
SFAC C  
C      1  0.6226740000000  0.6287410000000  0.3545640000000 1.0
C      1  0.6190600000000  0.4834900000000  0.2892750000000 1.0
C      1  0.6077820000000  0.3859780000000  0.2840240000000 1.0
C      1  0.6220050000000  0.3387070000000  0.3708200000000 1.0
C      1  0.6291190000000  0.3210500000000  0.5641450000000 1.0
C      1  0.6231970000000  0.3716180000000  0.6447160000000 1.0
C      1  0.6189820000000  0.5166040000000  0.7100410000000 1.0
C      1  0.6083760000000  0.6140300000000  0.7160090000000 1.0
C      1  0.6230800000000  0.6610840000000  0.6292820000000 1.0
C      1  0.6280220000000  0.6784490000000  0.4357010000000 1.0
C      1  0.5457030000000  0.7072050000000  0.4838980000000 1.0
C      1  0.5428340000000  0.6268990000000  0.3060230000000 1.0
C      1  0.5407210000000  0.5328180000000  0.2720950000000 1.0
C      1  0.5316890000000  0.3487980000000  0.2316450000000 1.0
C      1  0.5436790000000  0.3056990000000  0.4192590000000 1.0
C      1  0.5469680000000  0.2914030000000  0.5158360000000 1.0
C      1  0.5433940000000  0.3740570000000  0.6932040000000 1.0
C      1  0.5408590000000  0.4675900000000  0.7284950000000 1.0
C      1  0.5321410000000  0.6515950000000  0.7683900000000 1.0
C      1  0.5440900000000  0.6924510000000  0.5806280000000 1.0
C      1  0.3029160000000  0.6452420000000  0.5600750000000 1.0
C      1  0.3004340000000  0.6583890000000  0.4640650000000 1.0
C      1  0.2987340000000  0.6093350000000  0.3772230000000 1.0
C      1  0.3090900000000  0.5121640000000  0.3562970000000 1.0
C      1  0.2847280000000  0.4102030000000  0.3596570000000 1.0
C      1  0.2980170000000  0.3513190000000  0.4369760000000 1.0
C      1  0.3041960000000  0.3445330000000  0.5335910000000 1.0
C      1  0.3003700000000  0.3921010000000  0.6212590000000 1.0
C      1  0.3067800000000  0.4879410000000  0.6478120000000 1.0
C      1  0.2849610000000  0.5899850000000  0.6391460000000 1.0
C      1  0.4603480000000  0.3219980000000  0.3729530000000 1.0
C      1  0.4690580000000  0.2816230000000  0.5717620000000 1.0
C      1  0.4655080000000  0.3219490000000  0.6604590000000 1.0
C      1  0.4542890000000  0.5151750000000  0.7210120000000 1.0
C      1  0.4486570000000  0.6232950000000  0.7176540000000 1.0
C      1  0.4615750000000  0.6747450000000  0.6270620000000 1.0
C      1  0.4678630000000  0.7179590000000  0.4279240000000 1.0
C      1  0.4646910000000  0.6785740000000  0.3388920000000 1.0
C      1  0.4555250000000  0.4844010000000  0.2851440000000 1.0
C      1  0.4487270000000  0.3760360000000  0.2846200000000 1.0
C      1  0.7120790000000  0.6505490000000  0.4828450000000 1.0
C      1  0.7390820000000  0.5904470000000  0.4170380000000 1.0
C      1  0.7019640000000  0.5441990000000  0.3367730000000 1.0
C      1  0.7171480000000  0.4614900000000  0.3872090000000 1.0
C      1  0.7008260000000  0.3747140000000  0.4161930000000 1.0
C      1  0.7127270000000  0.3496270000000  0.5168970000000 1.0
C      1  0.7394230000000  0.4103340000000  0.5823130000000 1.0
C      1  0.7025770000000  0.4562060000000  0.6628890000000 1.0
C      1  0.7184950000000  0.5391610000000  0.6133500000000 1.0
C      1  0.7021220000000  0.6258800000000  0.5837970000000 1.0
C      1  0.3675980000000  0.7000810000000  0.6164780000000 1.0
C      1  0.3664080000000  0.7230450000000  0.4274390000000 1.0
C      1  0.3646650000000  0.6761140000000  0.3404400000000 1.0
C      1  0.3866320000000  0.5211140000000  0.3211230000000 1.0
C      1  0.3418290000000  0.3532070000000  0.3045080000000 1.0
C      1  0.3655650000000  0.2986350000000  0.3816600000000 1.0
C      1  0.3677650000000  0.2781520000000  0.5711020000000 1.0
C      1  0.3656060000000  0.3248910000000  0.6583350000000 1.0
C      1  0.3848510000000  0.4796350000000  0.6838840000000 1.0
C      1  0.3417950000000  0.6472830000000  0.6940990000000 1.0
END
