TITL C-1525613-7943-6925 0.0636410992580295 3375 -8119.36944684615 0 0 60 (C1) n - 1
REM
REM in /home/nfs/bkarasulu/CARBON/AIRSS/Generating-Clusters/ReaxFF-fromJPCA2015/Units_Real/Try2-Higher-symm/Only-C60
REM
REM
REM
REM
REM
REM ./C.cell (863b2abdce7293c0672fb3ba77bf323a)
REM AIRSS Version 0.9.1 bugfix July 2018 build 013d7b7c2542+ Fri, 06 Jul 2018 19:26:36 +0100
REM compiler GCC version 9.2.1 20190827 (Red Hat 9.2.1-1)
REM options -cpp -mtune=generic -march=x86-64 -g -O0 -fpre-include=/usr/include/finclude/math-vector-fortran.h
REM seed 1615431317 -166777405 1202047663 -446395393 1729009950 -1354620821 202075285 585477325 -1986154970 1189736450 -991160039 1408769799 -553787055 -1632256472 610209437 1697419077 1882032275 -1382570513 -1314692195 -1391570053 2042746475 1555566185 -947360769 1734056365 488865507 1191285177 699876239 2046734182 88800344 1119270686 -1001487851 1760090487 1542467294
REM
CELL 1.54180   15.00000   15.00000   15.00000   90.00000   90.00000   90.00000
LATT -1
SFAC C  
C      1  0.2802870000000  0.5641200000000  0.7194100000000 1.0
C      1  0.4728200000000  0.6762570000000  0.6904600000000 1.0
C      1  0.7155550000000  0.5779570000000  0.7103590000000 1.0
C      1  0.6248360000000  0.3463200000000  0.6984760000000 1.0
C      1  0.3866300000000  0.3454110000000  0.6904620000000 1.0
C      1  0.2791110000000  0.5625400000000  0.2789440000000 1.0
C      1  0.4760080000000  0.6662300000000  0.3077180000000 1.0
C      1  0.7275120000000  0.5861700000000  0.2861550000000 1.0
C      1  0.6141230000000  0.3699190000000  0.3160260000000 1.0
C      1  0.3874500000000  0.3449360000000  0.3110220000000 1.0
C      1  0.5496820000000  0.3332890000000  0.7505850000000 1.0
C      1  0.3422760000000  0.4014440000000  0.7498000000000 1.0
C      1  0.3613990000000  0.6102010000000  0.7299180000000 1.0
C      1  0.5593680000000  0.6641300000000  0.7279290000000 1.0
C      1  0.6971460000000  0.4997340000000  0.7582430000000 1.0
C      1  0.5498820000000  0.3439680000000  0.2554990000000 1.0
C      1  0.3427430000000  0.4002100000000  0.2513910000000 1.0
C      1  0.3612740000000  0.6062780000000  0.2679560000000 1.0
C      1  0.5632360000000  0.6583240000000  0.2704220000000 1.0
C      1  0.6981320000000  0.5068450000000  0.2440590000000 1.0
C      1  0.2894260000000  0.4623490000000  0.2905490000000 1.0
C      1  0.4213720000000  0.5848960000000  0.3303260000000 1.0
C      1  0.6466740000000  0.6488410000000  0.3039280000000 1.0
C      1  0.6576340000000  0.4676100000000  0.3127360000000 1.0
C      1  0.4843850000000  0.3054890000000  0.3090160000000 1.0
C      1  0.2909290000000  0.4637650000000  0.7085560000000 1.0
C      1  0.4216930000000  0.5921820000000  0.6667320000000 1.0
C      1  0.6433460000000  0.6512830000000  0.6931270000000 1.0
C      1  0.6778980000000  0.4374520000000  0.6951790000000 1.0
C      1  0.4830230000000  0.3054210000000  0.6928010000000 1.0
C      1  0.7443420000000  0.5026030000000  0.4467120000000 1.0
C      1  0.5851670000000  0.2544090000000  0.4546280000000 1.0
C      1  0.2900430000000  0.3836310000000  0.4544340000000 1.0
C      1  0.3109260000000  0.6347860000000  0.4500190000000 1.0
C      1  0.5845440000000  0.7295710000000  0.4469600000000 1.0
C      1  0.7575370000000  0.5015120000000  0.5432760000000 1.0
C      1  0.5825220000000  0.2485000000000  0.5478620000000 1.0
C      1  0.2900470000000  0.3846870000000  0.5456080000000 1.0
C      1  0.3102530000000  0.6356820000000  0.5473310000000 1.0
C      1  0.5812010000000  0.7415540000000  0.5432420000000 1.0
C      1  0.5187950000000  0.6769830000000  0.3994430000000 1.0
C      1  0.7537260000000  0.5692880000000  0.3794960000000 1.0
C      1  0.6005140000000  0.3331940000000  0.4060960000000 1.0
C      1  0.3644400000000  0.3717280000000  0.4006290000000 1.0
C      1  0.2706310000000  0.5920920000000  0.3728250000000 1.0
C      1  0.5152310000000  0.6965950000000  0.6004930000000 1.0
C      1  0.7263070000000  0.5641010000000  0.6124380000000 1.0
C      1  0.6103220000000  0.3160820000000  0.6063880000000 1.0
C      1  0.3650080000000  0.3715630000000  0.6002730000000 1.0
C      1  0.2709500000000  0.5925930000000  0.6250260000000 1.0
C      1  0.6134880000000  0.6449850000000  0.3999350000000 1.0
C      1  0.6719870000000  0.5250290000000  0.3958870000000 1.0
C      1  0.5166410000000  0.2896080000000  0.4007730000000 1.0
C      1  0.3103910000000  0.4529640000000  0.3930380000000 1.0
C      1  0.3598960000000  0.5569520000000  0.4098930000000 1.0
C      1  0.6077520000000  0.6652500000000  0.5992520000000 1.0
C      1  0.6869310000000  0.4752210000000  0.6030770000000 1.0
C      1  0.5190180000000  0.2913930000000  0.6020910000000 1.0
C      1  0.3140480000000  0.4541700000000  0.6067970000000 1.0
C      1  0.3614880000000  0.5597020000000  0.5882940000000 1.0
END
