TITL C-1525613-7943-4570 0.0352339710756059 3375 -8563.4057482801 0 0 60 (C5) n - 1
REM
REM in /home/nfs/bkarasulu/CARBON/AIRSS/Generating-Clusters/ReaxFF-fromJPCA2015/Units_Real/Try2-Higher-symm/Only-C60
REM
REM
REM
REM
REM
REM ./C.cell (863b2abdce7293c0672fb3ba77bf323a)
REM AIRSS Version 0.9.1 bugfix July 2018 build 013d7b7c2542+ Fri, 06 Jul 2018 19:26:36 +0100
REM compiler GCC version 9.2.1 20190827 (Red Hat 9.2.1-1)
REM options -cpp -mtune=generic -march=x86-64 -g -O0 -fpre-include=/usr/include/finclude/math-vector-fortran.h
REM seed 1496184618 -1788364622 980208098 1895361871 -1572467205 94731646 -1086198535 -1395584725 1996233112 -551612782 -800525104 -1005919787 2069699283 -270732526 1920522700 473043615 -367712834 576218728 -906257384 545237739 -506503803 1976382506 390480927 764275231 -1215427320 -356785492 -44058027 -417576336 1531061093 181395589 -231136521 800936498 1084413599
REM
CELL 1.54180   15.00000   15.00000   15.00000   90.00000   90.00000   90.00000
LATT -1
SFAC C  
C      1  0.5860580000000  0.5308920000000  0.5877460000000 1.0
C      1  0.5860240000000  0.4261230000000  0.5564690000000 1.0
C      1  0.5859780000000  0.4234650000000  0.4472200000000 1.0
C      1  0.5859460000000  0.5265570000000  0.4109480000000 1.0
C      1  0.5860440000000  0.5930020000000  0.4977510000000 1.0
C      1  0.4139420000000  0.5308920000000  0.5877460000000 1.0
C      1  0.4139760000000  0.4261230000000  0.5564690000000 1.0
C      1  0.4140220000000  0.4234650000000  0.4472200000000 1.0
C      1  0.4140540000000  0.5265570000000  0.4109480000000 1.0
C      1  0.4139560000000  0.5930020000000  0.4977510000000 1.0
C      1  0.3208930000000  0.3855470000000  0.4347560000000 1.0
C      1  0.3208680000000  0.5266570000000  0.3710100000000 1.0
C      1  0.3208770000000  0.6308760000000  0.4855260000000 1.0
C      1  0.3208940000000  0.5542290000000  0.6200220000000 1.0
C      1  0.3208890000000  0.4025890000000  0.5886640000000 1.0
C      1  0.6791070000000  0.3855470000000  0.4347560000000 1.0
C      1  0.6791320000000  0.5266570000000  0.3710100000000 1.0
C      1  0.6791230000000  0.6308760000000  0.4855260000000 1.0
C      1  0.6791060000000  0.5542290000000  0.6200220000000 1.0
C      1  0.6791110000000  0.4025890000000  0.5886640000000 1.0
C      1  0.5420650000000  0.7130150000000  0.3461160000000 1.0
C      1  0.5420660000000  0.7121970000000  0.6550980000000 1.0
C      1  0.5420740000000  0.4180860000000  0.7497480000000 1.0
C      1  0.5420180000000  0.2371420000000  0.4992350000000 1.0
C      1  0.5420410000000  0.4194880000000  0.2498090000000 1.0
C      1  0.4579350000000  0.7130150000000  0.3461160000000 1.0
C      1  0.4579340000000  0.7121970000000  0.6550980000000 1.0
C      1  0.4579260000000  0.4180860000000  0.7497480000000 1.0
C      1  0.4579820000000  0.2371420000000  0.4992350000000 1.0
C      1  0.4579590000000  0.4194880000000  0.2498090000000 1.0
C      1  0.5487430000000  0.5786190000000  0.3320440000000 1.0
C      1  0.5487170000000  0.6839900000000  0.5228580000000 1.0
C      1  0.5487180000000  0.5351490000000  0.6820260000000 1.0
C      1  0.5487220000000  0.3377350000000  0.5896970000000 1.0
C      1  0.5487310000000  0.3645620000000  0.3733730000000 1.0
C      1  0.4512570000000  0.5786190000000  0.3320440000000 1.0
C      1  0.4512830000000  0.6839900000000  0.5228580000000 1.0
C      1  0.4512820000000  0.5351490000000  0.6820260000000 1.0
C      1  0.4512780000000  0.3377350000000  0.5896970000000 1.0
C      1  0.4512690000000  0.3645620000000  0.3733730000000 1.0
C      1  0.6128950000000  0.2808300000000  0.5407870000000 1.0
C      1  0.6128980000000  0.3934480000000  0.3041660000000 1.0
C      1  0.6128500000000  0.6533940000000  0.3381690000000 1.0
C      1  0.6129490000000  0.7013040000000  0.5957860000000 1.0
C      1  0.6129510000000  0.4711170000000  0.7210390000000 1.0
C      1  0.3871050000000  0.2808300000000  0.5407870000000 1.0
C      1  0.3871020000000  0.3934480000000  0.3041660000000 1.0
C      1  0.3871500000000  0.6533940000000  0.3381690000000 1.0
C      1  0.3870510000000  0.7013040000000  0.5957860000000 1.0
C      1  0.3870490000000  0.4711170000000  0.7210390000000 1.0
C      1  0.3065740000000  0.6418030000000  0.5808760000000 1.0
C      1  0.3065420000000  0.4669040000000  0.6599030000000 1.0
C      1  0.3065850000000  0.3376830000000  0.5179230000000 1.0
C      1  0.3065110000000  0.4327420000000  0.3511240000000 1.0
C      1  0.3065870000000  0.6208550000000  0.3901100000000 1.0
C      1  0.6934260000000  0.6418030000000  0.5808760000000 1.0
C      1  0.6934580000000  0.4669040000000  0.6599030000000 1.0
C      1  0.6934150000000  0.3376830000000  0.5179230000000 1.0
C      1  0.6934890000000  0.4327420000000  0.3511240000000 1.0
C      1  0.6934130000000  0.6208550000000  0.3901100000000 1.0
END
