TITL C-1525613-7943-2760 0.0229311784381935 3375 -8136.06660420883 0 0 60 (C1) n - 1
REM
REM in /home/nfs/bkarasulu/CARBON/AIRSS/Generating-Clusters/ReaxFF-fromJPCA2015/Units_Real/Try2-Higher-symm/Only-C60
REM
REM
REM
REM
REM
REM ./C.cell (863b2abdce7293c0672fb3ba77bf323a)
REM AIRSS Version 0.9.1 bugfix July 2018 build 013d7b7c2542+ Fri, 06 Jul 2018 19:26:36 +0100
REM compiler GCC version 9.2.1 20190827 (Red Hat 9.2.1-1)
REM options -cpp -mtune=generic -march=x86-64 -g -O0 -fpre-include=/usr/include/finclude/math-vector-fortran.h
REM seed 1037976296 1752276045 -1959497920 350027010 1247710788 977337238 -1275458926 -1545010149 1302665299 738130597 67712415 986892106 -1119727339 -1422985060 -1678530729 -2050848642 -1042944618 -803247920 1980526605 -1125698927 -1628844747 -209207175 -2014921152 31379037 648654305 -762206402 636463678 1163874406 -1636849505 1304929838 1839162479 -306891932 2055944546
REM
CELL 1.54180   15.00000   15.00000   15.00000   90.00000   90.00000   90.00000
LATT -1
SFAC C  
C      1  0.3353710000000  0.6431110000000  0.3607540000000 1.0
C      1  0.5850630000000  0.6912520000000  0.3634520000000 1.0
C      1  0.7238040000000  0.4839720000000  0.3557060000000 1.0
C      1  0.5489060000000  0.2975590000000  0.3911870000000 1.0
C      1  0.3044200000000  0.3959850000000  0.3599020000000 1.0
C      1  0.6639030000000  0.6433910000000  0.3605300000000 1.0
C      1  0.4151830000000  0.6899660000000  0.3653030000000 1.0
C      1  0.2758600000000  0.4836890000000  0.3553240000000 1.0
C      1  0.4507320000000  0.2973720000000  0.3908610000000 1.0
C      1  0.6951560000000  0.3963310000000  0.3608410000000 1.0
C      1  0.4528140000000  0.3586130000000  0.3150600000000 1.0
C      1  0.3428330000000  0.5001160000000  0.2839130000000 1.0
C      1  0.4528660000000  0.6467690000000  0.2906120000000 1.0
C      1  0.6279880000000  0.5922800000000  0.2833470000000 1.0
C      1  0.6251640000000  0.4082870000000  0.2981920000000 1.0
C      1  0.5470610000000  0.3586290000000  0.3152670000000 1.0
C      1  0.6571190000000  0.4999240000000  0.2839650000000 1.0
C      1  0.5475060000000  0.6478930000000  0.2885820000000 1.0
C      1  0.3719820000000  0.5923580000000  0.2832200000000 1.0
C      1  0.3747130000000  0.4083350000000  0.2976510000000 1.0
C      1  0.2198270000000  0.5562350000000  0.5139740000000 1.0
C      1  0.4633540000000  0.7623050000000  0.5118480000000 1.0
C      1  0.7516160000000  0.6250010000000  0.5161960000000 1.0
C      1  0.7423160000000  0.2978570000000  0.4987530000000 1.0
C      1  0.3195070000000  0.2539670000000  0.5029680000000 1.0
C      1  0.7805450000000  0.5568750000000  0.5127510000000 1.0
C      1  0.5394590000000  0.7591440000000  0.5074800000000 1.0
C      1  0.2493590000000  0.6241380000000  0.5171610000000 1.0
C      1  0.2564420000000  0.2964880000000  0.4967260000000 1.0
C      1  0.6792640000000  0.2552680000000  0.5047430000000 1.0
C      1  0.4579870000000  0.3442420000000  0.6816720000000 1.0
C      1  0.3505370000000  0.5028520000000  0.6900770000000 1.0
C      1  0.4440330000000  0.6508040000000  0.6914480000000 1.0
C      1  0.6248900000000  0.5870930000000  0.6914350000000 1.0
C      1  0.6217750000000  0.4091440000000  0.6871840000000 1.0
C      1  0.5501250000000  0.3562070000000  0.6832650000000 1.0
C      1  0.6518660000000  0.5021490000000  0.6905500000000 1.0
C      1  0.5573480000000  0.6508910000000  0.6915310000000 1.0
C      1  0.3771780000000  0.5853020000000  0.6910870000000 1.0
C      1  0.3663220000000  0.4106140000000  0.6872910000000 1.0
C      1  0.2828460000000  0.3826920000000  0.6902160000000 1.0
C      1  0.3131790000000  0.7014650000000  0.6948440000000 1.0
C      1  0.6094500000000  0.7234740000000  0.6940110000000 1.0
C      1  0.7553130000000  0.4553550000000  0.6934630000000 1.0
C      1  0.5349150000000  0.2261630000000  0.6766000000000 1.0
C      1  0.7328460000000  0.3861560000000  0.6910300000000 1.0
C      1  0.6889040000000  0.7015310000000  0.6948440000000 1.0
C      1  0.3926690000000  0.7223130000000  0.6941300000000 1.0
C      1  0.2306740000000  0.4461090000000  0.6938150000000 1.0
C      1  0.4576290000000  0.2549550000000  0.6774130000000 1.0
C      1  0.6656210000000  0.6037770000000  0.4503100000000 1.0
C      1  0.6829240000000  0.3786940000000  0.4514120000000 1.0
C      1  0.3894310000000  0.3155180000000  0.4652970000000 1.0
C      1  0.2961480000000  0.5138990000000  0.4469260000000 1.0
C      1  0.4511650000000  0.6761340000000  0.4510950000000 1.0
C      1  0.3338450000000  0.6028110000000  0.4502020000000 1.0
C      1  0.3160900000000  0.3777580000000  0.4504540000000 1.0
C      1  0.6095840000000  0.3163860000000  0.4659840000000 1.0
C      1  0.7035090000000  0.5147650000000  0.4471190000000 1.0
C      1  0.5510610000000  0.6776350000000  0.4490280000000 1.0
END
