TITL C-1525613-7943-1466 0.301119868451959 3375 -8851.3773470366 0 0 60 (C1) n - 1
REM
REM in /home/nfs/bkarasulu/CARBON/AIRSS/Generating-Clusters/ReaxFF-fromJPCA2015/Units_Real/Try2-Higher-symm/Only-C60
REM
REM
REM
REM
REM
REM ./C.cell (863b2abdce7293c0672fb3ba77bf323a)
REM AIRSS Version 0.9.1 bugfix July 2018 build 013d7b7c2542+ Fri, 06 Jul 2018 19:26:36 +0100
REM compiler GCC version 9.2.1 20190827 (Red Hat 9.2.1-1)
REM options -cpp -mtune=generic -march=x86-64 -g -O0 -fpre-include=/usr/include/finclude/math-vector-fortran.h
REM seed 620470183 2130875383 -1826359383 -1317090353 -2123862300 675030814 -1535536221 -704315052 206789516 -1335510837 606056147 306532352 770143647 185469290 -538842732 -1558082751 -1178467404 1155013766 -926066993 -2033297979 -2057327191 -241832759 -507273029 -1285798076 -47967153 -287117076 -1133930311 93306010 1921107711 -1276232120 84905707 -1731327290 1423390839
REM
CELL 1.54180   15.00000   15.00000   15.00000   90.00000   90.00000   90.00000
LATT -1
SFAC C  
C      1  0.2741110000000  0.5620460000000  0.5750660000000 1.0
C      1  0.3992240000000  0.6473260000000  0.4107430000000 1.0
C      1  0.4858010000000  0.7433960000000  0.5767380000000 1.0
C      1  0.6333630000000  0.7014320000000  0.4197700000000 1.0
C      1  0.7248060000000  0.5864230000000  0.5757880000000 1.0
C      1  0.6765020000000  0.4560340000000  0.4004960000000 1.0
C      1  0.6083060000000  0.3531780000000  0.5945290000000 1.0
C      1  0.5128150000000  0.2631710000000  0.4227170000000 1.0
C      1  0.3711410000000  0.2997750000000  0.5797430000000 1.0
C      1  0.2789800000000  0.4177500000000  0.4306980000000 1.0
C      1  0.4195340000000  0.5010700000000  0.2454310000000 1.0
C      1  0.4295520000000  0.5417760000000  0.7630170000000 1.0
C      1  0.4783040000000  0.5802930000000  0.2363260000000 1.0
C      1  0.5218620000000  0.5740990000000  0.7583460000000 1.0
C      1  0.5712670000000  0.5507060000000  0.2389840000000 1.0
C      1  0.5818310000000  0.4970520000000  0.7569980000000 1.0
C      1  0.5700260000000  0.4524690000000  0.2330310000000 1.0
C      1  0.5260050000000  0.4165300000000  0.7688680000000 1.0
C      1  0.4767470000000  0.4226470000000  0.2407750000000 1.0
C      1  0.4318550000000  0.4443740000000  0.7669760000000 1.0
C      1  0.6759510000000  0.5021560000000  0.7241590000000 1.0
C      1  0.6433320000000  0.3925000000000  0.2591190000000 1.0
C      1  0.5505330000000  0.3258350000000  0.7402910000000 1.0
C      1  0.4487360000000  0.3330680000000  0.2754670000000 1.0
C      1  0.3567640000000  0.3901460000000  0.7295840000000 1.0
C      1  0.3257900000000  0.4986050000000  0.2802530000000 1.0
C      1  0.3532920000000  0.5959670000000  0.7276270000000 1.0
C      1  0.4532090000000  0.6718100000000  0.2625300000000 1.0
C      1  0.5475960000000  0.6643650000000  0.7238270000000 1.0
C      1  0.6474280000000  0.6094870000000  0.2674450000000 1.0
C      1  0.4132390000000  0.3631770000000  0.5185710000000 1.0
C      1  0.3539230000000  0.4411430000000  0.4896870000000 1.0
C      1  0.3534920000000  0.5354500000000  0.5247080000000 1.0
C      1  0.4130650000000  0.6133890000000  0.4877420000000 1.0
C      1  0.4967860000000  0.6659270000000  0.5177030000000 1.0
C      1  0.5923520000000  0.6437560000000  0.4870060000000 1.0
C      1  0.6488530000000  0.5652800000000  0.5171750000000 1.0
C      1  0.6428060000000  0.4701530000000  0.4795230000000 1.0
C      1  0.5916480000000  0.3855980000000  0.5170520000000 1.0
C      1  0.5061940000000  0.3389420000000  0.4840460000000 1.0
C      1  0.6311030000000  0.6377080000000  0.6955260000000 1.0
C      1  0.7014580000000  0.5383290000000  0.2929380000000 1.0
C      1  0.6784670000000  0.4132100000000  0.6964640000000 1.0
C      1  0.5902500000000  0.3252510000000  0.2920320000000 1.0
C      1  0.4676440000000  0.3021960000000  0.7090190000000 1.0
C      1  0.3675090000000  0.3626280000000  0.3076340000000 1.0
C      1  0.3089680000000  0.4629970000000  0.6985080000000 1.0
C      1  0.3266710000000  0.5868120000000  0.3097290000000 1.0
C      1  0.4067820000000  0.6655640000000  0.6976520000000 1.0
C      1  0.5362220000000  0.6968750000000  0.2921840000000 1.0
C      1  0.3803560000000  0.3022150000000  0.6801990000000 1.0
C      1  0.2947170000000  0.4125000000000  0.3310990000000 1.0
C      1  0.2794080000000  0.5462840000000  0.6755880000000 1.0
C      1  0.3695110000000  0.6697210000000  0.3242950000000 1.0
C      1  0.4754840000000  0.7212840000000  0.6754580000000 1.0
C      1  0.6235740000000  0.6972470000000  0.3198440000000 1.0
C      1  0.7058460000000  0.5895160000000  0.6751550000000 1.0
C      1  0.7128390000000  0.4469340000000  0.3144570000000 1.0
C      1  0.6362200000000  0.3299440000000  0.6810480000000 1.0
C      1  0.5199520000000  0.2744860000000  0.3226150000000 1.0
END
