TITL C-1525613-7943-1918 -0.00261374794002119 3375 -9574.38946639517 0 0 60 (D10) n - 1
REM
REM in /home/nfs/bkarasulu/CARBON/AIRSS/Generating-Clusters/ReaxFF-fromJPCA2015/Units_Real/Try2-Higher-symm/Only-C60
REM
REM
REM
REM
REM
REM ./C.cell (863b2abdce7293c0672fb3ba77bf323a)
REM AIRSS Version 0.9.1 bugfix July 2018 build 013d7b7c2542+ Fri, 06 Jul 2018 19:26:36 +0100
REM compiler GCC version 9.2.1 20190827 (Red Hat 9.2.1-1)
REM options -cpp -mtune=generic -march=x86-64 -g -O0 -fpre-include=/usr/include/finclude/math-vector-fortran.h
REM seed -811946838 1822942245 250856803 177973151 20988866 508634628 1938169333 1874216110 -372731618 359548289 -1498989085 836019353 -1611225735 568546559 1029202936 1010587131 63620117 -212405322 2538454 300367348 1688533774 -2037529600 218409711 -1562417525 -477907055 -2060217819 13544668 -1623395580 -63106525 -19160535 1791297569 2048175850 767129582
REM
CELL 1.54180   15.00000   15.00000   15.00000   90.00000   90.00000   90.00000
LATT -1
SFAC C  
C      1  0.4266660000000  0.3619710000000  0.3560600000000 1.0
C      1  0.5218980000000  0.3451180000000  0.3559620000000 1.0
C      1  0.6088500000000  0.3874570000000  0.3560090000000 1.0
C      1  0.6540160000000  0.4729920000000  0.3560270000000 1.0
C      1  0.6405100000000  0.5687790000000  0.3558880000000 1.0
C      1  0.5734750000000  0.6384870000000  0.3560110000000 1.0
C      1  0.4781860000000  0.6550580000000  0.3560220000000 1.0
C      1  0.3912780000000  0.6125790000000  0.3560420000000 1.0
C      1  0.3457900000000  0.5272250000000  0.3560910000000 1.0
C      1  0.3594100000000  0.4314680000000  0.3560270000000 1.0
C      1  0.3087890000000  0.3152260000000  0.5492630000000 1.0
C      1  0.4539810000000  0.2381200000000  0.5492470000000 1.0
C      1  0.6167130000000  0.2612180000000  0.5491920000000 1.0
C      1  0.7335720000000  0.3758120000000  0.5495900000000 1.0
C      1  0.7631060000000  0.5371260000000  0.5483030000000 1.0
C      1  0.6911430000000  0.6850950000000  0.5493010000000 1.0
C      1  0.5460410000000  0.7606390000000  0.5496810000000 1.0
C      1  0.3835220000000  0.7386700000000  0.5482000000000 1.0
C      1  0.2662850000000  0.6239380000000  0.5496540000000 1.0
C      1  0.2367810000000  0.4629690000000  0.5492490000000 1.0
C      1  0.3087940000000  0.3151940000000  0.4506210000000 1.0
C      1  0.4539460000000  0.2380970000000  0.4506060000000 1.0
C      1  0.6166360000000  0.2608880000000  0.4505750000000 1.0
C      1  0.7347020000000  0.3755220000000  0.4516080000000 1.0
C      1  0.7619940000000  0.5372180000000  0.4503220000000 1.0
C      1  0.6914240000000  0.6847990000000  0.4507180000000 1.0
C      1  0.5460310000000  0.7618080000000  0.4517060000000 1.0
C      1  0.3839760000000  0.7377920000000  0.4503840000000 1.0
C      1  0.2653440000000  0.6247530000000  0.4516980000000 1.0
C      1  0.2365510000000  0.4627520000000  0.4506340000000 1.0
C      1  0.6644880000000  0.3297380000000  0.4071550000000 1.0
C      1  0.7329380000000  0.4597110000000  0.4076530000000 1.0
C      1  0.7127060000000  0.6035340000000  0.4074120000000 1.0
C      1  0.6112370000000  0.7091630000000  0.4072270000000 1.0
C      1  0.4664860000000  0.7342480000000  0.4076840000000 1.0
C      1  0.3360140000000  0.6705210000000  0.4076550000000 1.0
C      1  0.2667980000000  0.5409600000000  0.4072190000000 1.0
C      1  0.2872870000000  0.3961270000000  0.4070090000000 1.0
C      1  0.3890040000000  0.2910270000000  0.4070560000000 1.0
C      1  0.5330230000000  0.2655730000000  0.4069520000000 1.0
C      1  0.6540980000000  0.4730400000000  0.6439760000000 1.0
C      1  0.6408430000000  0.5688440000000  0.6440490000000 1.0
C      1  0.5734890000000  0.6382380000000  0.6441910000000 1.0
C      1  0.4782230000000  0.6549930000000  0.6440380000000 1.0
C      1  0.3913230000000  0.6125310000000  0.6440460000000 1.0
C      1  0.3460230000000  0.5270740000000  0.6441170000000 1.0
C      1  0.3593840000000  0.4313050000000  0.6440450000000 1.0
C      1  0.4265880000000  0.3617750000000  0.6439990000000 1.0
C      1  0.5218330000000  0.3450630000000  0.6440040000000 1.0
C      1  0.6086430000000  0.3876510000000  0.6440370000000 1.0
C      1  0.4675780000000  0.7342490000000  0.5923180000000 1.0
C      1  0.3353110000000  0.6696280000000  0.5923270000000 1.0
C      1  0.2672110000000  0.5412990000000  0.5925020000000 1.0
C      1  0.2872770000000  0.3961580000000  0.5928740000000 1.0
C      1  0.3889690000000  0.2909450000000  0.5928120000000 1.0
C      1  0.5330900000000  0.2656440000000  0.5928290000000 1.0
C      1  0.6645500000000  0.3303070000000  0.5924420000000 1.0
C      1  0.7327590000000  0.4585890000000  0.5922770000000 1.0
C      1  0.7127540000000  0.6041200000000  0.5927910000000 1.0
C      1  0.6106650000000  0.7091750000000  0.5926100000000 1.0
END
