TITL C-1525613-7943-1471 -0.0136613209678401 3375 -8627.41869405503 0 0 60 (C1) n - 1
REM
REM in /home/nfs/bkarasulu/CARBON/AIRSS/Generating-Clusters/ReaxFF-fromJPCA2015/Units_Real/Try2-Higher-symm/Only-C60
REM
REM
REM
REM
REM
REM ./C.cell (863b2abdce7293c0672fb3ba77bf323a)
REM AIRSS Version 0.9.1 bugfix July 2018 build 013d7b7c2542+ Fri, 06 Jul 2018 19:26:36 +0100
REM compiler GCC version 9.2.1 20190827 (Red Hat 9.2.1-1)
REM options -cpp -mtune=generic -march=x86-64 -g -O0 -fpre-include=/usr/include/finclude/math-vector-fortran.h
REM seed -909934451 -2060325204 838399720 -71259725 -541941116 -151295100 41370522 1168884919 -1342239137 2123892131 1111762961 -1701774880 906225302 1779768481 -1048144606 423287155 -1431106500 97432471 -59978812 -1779239231 -868026749 1004236717 1760326649 669706846 298723599 97148880 -1738904076 -535066165 -1699822898 266665692 2017925732 -252816827 -827701953
REM
CELL 1.54180   15.00000   15.00000   15.00000   90.00000   90.00000   90.00000
LATT -1
SFAC C  
C      1  0.3832120000000  0.3096010000000  0.3818930000000 1.0
C      1  0.3462490000000  0.3092140000000  0.5729060000000 1.0
C      1  0.5055140000000  0.3083450000000  0.6819290000000 1.0
C      1  0.6963910000000  0.3117180000000  0.4951610000000 1.0
C      1  0.5747220000000  0.3091280000000  0.3491890000000 1.0
C      1  0.3832410000000  0.6903380000000  0.3818850000000 1.0
C      1  0.3461870000000  0.6908720000000  0.5728350000000 1.0
C      1  0.5054890000000  0.6915500000000  0.6819370000000 1.0
C      1  0.6889530000000  0.6763860000000  0.4917410000000 1.0
C      1  0.5744430000000  0.6905220000000  0.3485840000000 1.0
C      1  0.2991580000000  0.5484010000000  0.4010490000000 1.0
C      1  0.3417120000000  0.5482330000000  0.6586220000000 1.0
C      1  0.6014510000000  0.5486440000000  0.6948010000000 1.0
C      1  0.7260380000000  0.5514050000000  0.4588220000000 1.0
C      1  0.5315180000000  0.5485960000000  0.2793080000000 1.0
C      1  0.2989160000000  0.4512880000000  0.4008160000000 1.0
C      1  0.3418350000000  0.4518200000000  0.6585310000000 1.0
C      1  0.6014570000000  0.4512920000000  0.6944690000000 1.0
C      1  0.7214790000000  0.4545320000000  0.4577800000000 1.0
C      1  0.5312780000000  0.4515160000000  0.2793260000000 1.0
C      1  0.5783010000000  0.2920240000000  0.6205090000000 1.0
C      1  0.6161670000000  0.2962830000000  0.4383670000000 1.0
C      1  0.4797370000000  0.2988990000000  0.3700810000000 1.0
C      1  0.3779220000000  0.3027600000000  0.4803020000000 1.0
C      1  0.4372930000000  0.3015370000000  0.6084590000000 1.0
C      1  0.5780050000000  0.7078160000000  0.6203070000000 1.0
C      1  0.6196790000000  0.7051730000000  0.4370910000000 1.0
C      1  0.4800810000000  0.7010170000000  0.3707750000000 1.0
C      1  0.3779920000000  0.6970940000000  0.4802630000000 1.0
C      1  0.4371940000000  0.6985720000000  0.6084620000000 1.0
C      1  0.5722960000000  0.6174750000000  0.4608140000000 1.0
C      1  0.4860840000000  0.6142870000000  0.4208010000000 1.0
C      1  0.4226630000000  0.6069240000000  0.4912430000000 1.0
C      1  0.4704940000000  0.6083530000000  0.5746340000000 1.0
C      1  0.5680240000000  0.6155820000000  0.5596780000000 1.0
C      1  0.5721230000000  0.3837500000000  0.4614540000000 1.0
C      1  0.4848740000000  0.3858130000000  0.4202410000000 1.0
C      1  0.4225320000000  0.3928930000000  0.4912050000000 1.0
C      1  0.4707160000000  0.3916730000000  0.5744960000000 1.0
C      1  0.5680640000000  0.3846300000000  0.5610500000000 1.0
C      1  0.5203650000000  0.5980490000000  0.7142230000000 1.0
C      1  0.7148490000000  0.6020310000000  0.5418210000000 1.0
C      1  0.6017360000000  0.6025480000000  0.3176040000000 1.0
C      1  0.3576560000000  0.6026230000000  0.3466060000000 1.0
C      1  0.3062320000000  0.6024750000000  0.5873080000000 1.0
C      1  0.5205570000000  0.4019840000000  0.7140670000000 1.0
C      1  0.7118420000000  0.4001770000000  0.5380790000000 1.0
C      1  0.6013900000000  0.3975470000000  0.3175530000000 1.0
C      1  0.3574230000000  0.3971890000000  0.3463870000000 1.0
C      1  0.3063570000000  0.3976380000000  0.5871520000000 1.0
C      1  0.6419820000000  0.5559410000000  0.6023780000000 1.0
C      1  0.6408150000000  0.5533490000000  0.3977070000000 1.0
C      1  0.4441400000000  0.5528510000000  0.3310640000000 1.0
C      1  0.3204230000000  0.5527960000000  0.5005990000000 1.0
C      1  0.4443240000000  0.5522810000000  0.6686520000000 1.0
C      1  0.6419670000000  0.4444500000000  0.6015850000000 1.0
C      1  0.6400050000000  0.4477550000000  0.3960440000000 1.0
C      1  0.4436410000000  0.4472900000000  0.3305740000000 1.0
C      1  0.3204080000000  0.4473950000000  0.5003760000000 1.0
C      1  0.4444040000000  0.4476760000000  0.6684040000000 1.0
END
