TITL C-1525613-7943-1835 0.218070118177828 3375 -8919.95690304053 0 0 60 (Ci) n - 1
REM
REM in /home/nfs/bkarasulu/CARBON/AIRSS/Generating-Clusters/ReaxFF-fromJPCA2015/Units_Real/Try2-Higher-symm/Only-C60
REM
REM
REM
REM
REM
REM ./C.cell (863b2abdce7293c0672fb3ba77bf323a)
REM AIRSS Version 0.9.1 bugfix July 2018 build 013d7b7c2542+ Fri, 06 Jul 2018 19:26:36 +0100
REM compiler GCC version 9.2.1 20190827 (Red Hat 9.2.1-1)
REM options -cpp -mtune=generic -march=x86-64 -g -O0 -fpre-include=/usr/include/finclude/math-vector-fortran.h
REM seed -1155281940 -1355595985 -1271625253 -683195208 -365662672 -1889611371 1176450201 809680507 579234585 562770900 -772016089 -722890053 -994878949 -804618265 789864116 2012239711 -1621617051 -1611255997 817628567 1617179516 -1344153376 338992076 -1770481795 -1125038807 1369229586 -1972227048 -922144846 203932911 1520236463 -111290396 935534487 879173152 1541145578
REM
CELL 1.54180   15.00000   15.00000   15.00000   90.00000   90.00000   90.00000
LATT -1
SFAC C  
C      1  0.4813300000000  0.6519330000000  0.5287590000000 1.0
C      1  0.5193710000000  0.6340570000000  0.4360800000000 1.0
C      1  0.4806740000000  0.5711180000000  0.3682580000000 1.0
C      1  0.5173430000000  0.4791860000000  0.3452980000000 1.0
C      1  0.4826370000000  0.3910820000000  0.3849530000000 1.0
C      1  0.5186850000000  0.3480450000000  0.4714340000000 1.0
C      1  0.4806030000000  0.3656650000000  0.5641330000000 1.0
C      1  0.5191640000000  0.4287580000000  0.6319560000000 1.0
C      1  0.4826830000000  0.5208050000000  0.6547440000000 1.0
C      1  0.5173670000000  0.6089960000000  0.6152510000000 1.0
C      1  0.7490950000000  0.4288690000000  0.3422500000000 1.0
C      1  0.2526100000000  0.3484990000000  0.4180080000000 1.0
C      1  0.7493210000000  0.3297870000000  0.5216190000000 1.0
C      1  0.2478080000000  0.3711860000000  0.6163240000000 1.0
C      1  0.7507840000000  0.4660330000000  0.6679010000000 1.0
C      1  0.2509440000000  0.5711820000000  0.6577430000000 1.0
C      1  0.7473910000000  0.6513260000000  0.5819410000000 1.0
C      1  0.2510200000000  0.6704670000000  0.4782420000000 1.0
C      1  0.7520850000000  0.6286520000000  0.3836960000000 1.0
C      1  0.2494810000000  0.5339960000000  0.3320230000000 1.0
C      1  0.2077600000000  0.5333300000000  0.5758560000000 1.0
C      1  0.7904060000000  0.5731360000000  0.5407070000000 1.0
C      1  0.2106160000000  0.5816200000000  0.4918800000000 1.0
C      1  0.7957250000000  0.5629970000000  0.4439960000000 1.0
C      1  0.2062230000000  0.5159550000000  0.4197240000000 1.0
C      1  0.7927440000000  0.4666540000000  0.4239280000000 1.0
C      1  0.2099000000000  0.4268400000000  0.4593110000000 1.0
C      1  0.7901330000000  0.4183370000000  0.5081200000000 1.0
C      1  0.2044110000000  0.4368950000000  0.5559770000000 1.0
C      1  0.7943630000000  0.4840230000000  0.5803680000000 1.0
C      1  0.3101710000000  0.7081790000000  0.5528310000000 1.0
C      1  0.6947290000000  0.7034000000000  0.4243060000000 1.0
C      1  0.3041180000000  0.6202710000000  0.3203150000000 1.0
C      1  0.6895510000000  0.4909440000000  0.2836990000000 1.0
C      1  0.3099420000000  0.3635480000000  0.3349320000000 1.0
C      1  0.6898770000000  0.2921150000000  0.4472340000000 1.0
C      1  0.3050360000000  0.2963480000000  0.5755630000000 1.0
C      1  0.6959080000000  0.3800680000000  0.6797820000000 1.0
C      1  0.3101140000000  0.5089850000000  0.7164550000000 1.0
C      1  0.6898530000000  0.6362860000000  0.6648950000000 1.0
C      1  0.7166990000000  0.5672840000000  0.3263930000000 1.0
C      1  0.2847770000000  0.4506980000000  0.3223690000000 1.0
C      1  0.7148910000000  0.3546490000000  0.3850570000000 1.0
C      1  0.2772820000000  0.2766250000000  0.4826120000000 1.0
C      1  0.7260930000000  0.3100920000000  0.6164430000000 1.0
C      1  0.2829240000000  0.4325480000000  0.6738010000000 1.0
C      1  0.7150960000000  0.5491450000000  0.6774670000000 1.0
C      1  0.2849300000000  0.6455740000000  0.6149730000000 1.0
C      1  0.7222760000000  0.7230110000000  0.5173250000000 1.0
C      1  0.2738150000000  0.6903270000000  0.3833060000000 1.0
C      1  0.4100520000000  0.7160780000000  0.5371980000000 1.0
C      1  0.5983690000000  0.6851100000000  0.4126530000000 1.0
C      1  0.4008690000000  0.6013980000000  0.3223760000000 1.0
C      1  0.5903420000000  0.4746540000000  0.2820290000000 1.0
C      1  0.4102020000000  0.3473140000000  0.3396700000000 1.0
C      1  0.5899580000000  0.2839850000000  0.4628500000000 1.0
C      1  0.4014340000000  0.3147750000000  0.5870070000000 1.0
C      1  0.5991290000000  0.3988340000000  0.6778550000000 1.0
C      1  0.4092500000000  0.5252760000000  0.7174950000000 1.0
C      1  0.5896340000000  0.6530500000000  0.6606290000000 1.0
END
