TITL C-1525613-7943-5611 -0.0729619339592748 3375 -8875.15597633515 0 0 60 (C5) n - 1
REM
REM in /home/nfs/bkarasulu/CARBON/AIRSS/Generating-Clusters/ReaxFF-fromJPCA2015/Units_Real/Try2-Higher-symm/Only-C60
REM
REM
REM
REM
REM
REM ./C.cell (863b2abdce7293c0672fb3ba77bf323a)
REM AIRSS Version 0.9.1 bugfix July 2018 build 013d7b7c2542+ Fri, 06 Jul 2018 19:26:36 +0100
REM compiler GCC version 9.2.1 20190827 (Red Hat 9.2.1-1)
REM options -cpp -mtune=generic -march=x86-64 -g -O0 -fpre-include=/usr/include/finclude/math-vector-fortran.h
REM seed 1557319891 -819264405 -539449406 -541505801 -1543697030 1320520994 1246178243 1859912485 -1815698286 1155792289 -1405957970 -1606053498 503925179 -2002753212 1230283455 -1785811052 -287413499 1161460440 -1886657660 -2144792838 827946827 -1138172172 -1538797224 1948724 -1555480153 1642799219 1986237777 -925317782 -1542878692 -1733298558 -1570698404 1165706745 146562096
REM
CELL 1.54180   15.00000   15.00000   15.00000   90.00000   90.00000   90.00000
LATT -1
SFAC C  
C      1  0.3525250000000  0.3579260000000  0.6025270000000 1.0
C      1  0.5895120000000  0.3149240000000  0.6027120000000 1.0
C      1  0.7015650000000  0.5287090000000  0.6025770000000 1.0
C      1  0.5365690000000  0.7038780000000  0.6025230000000 1.0
C      1  0.3205410000000  0.5944960000000  0.6012160000000 1.0
C      1  0.3525100000000  0.3576290000000  0.3971700000000 1.0
C      1  0.5895240000000  0.3150670000000  0.3974420000000 1.0
C      1  0.7017740000000  0.5287110000000  0.3977890000000 1.0
C      1  0.5366500000000  0.7039670000000  0.3972720000000 1.0
C      1  0.3201820000000  0.5947640000000  0.3981960000000 1.0
C      1  0.4871120000000  0.3243600000000  0.2763050000000 1.0
C      1  0.6621440000000  0.4340220000000  0.2767890000000 1.0
C      1  0.6133100000000  0.6350010000000  0.2762850000000 1.0
C      1  0.4073390000000  0.6492910000000  0.2779430000000 1.0
C      1  0.3292610000000  0.4577210000000  0.2760370000000 1.0
C      1  0.4872330000000  0.3241100000000  0.7239240000000 1.0
C      1  0.6623070000000  0.4338120000000  0.7237560000000 1.0
C      1  0.6137360000000  0.6350150000000  0.7243890000000 1.0
C      1  0.4078000000000  0.6491670000000  0.7216690000000 1.0
C      1  0.3295370000000  0.4576530000000  0.7239770000000 1.0
C      1  0.4477230000000  0.3947080000000  0.7251470000000 1.0
C      1  0.5831570000000  0.4176700000000  0.7250800000000 1.0
C      1  0.6035820000000  0.5540520000000  0.7253900000000 1.0
C      1  0.4811140000000  0.6161420000000  0.7240790000000 1.0
C      1  0.3852960000000  0.5172180000000  0.7245010000000 1.0
C      1  0.4475090000000  0.3949240000000  0.2749900000000 1.0
C      1  0.5829670000000  0.4179870000000  0.2753830000000 1.0
C      1  0.6032580000000  0.5542580000000  0.2753070000000 1.0
C      1  0.4806410000000  0.6161810000000  0.2760400000000 1.0
C      1  0.3847250000000  0.5173170000000  0.2754420000000 1.0
C      1  0.3010760000000  0.4197880000000  0.4504280000000 1.0
C      1  0.5142350000000  0.2861080000000  0.4507240000000 1.0
C      1  0.7051460000000  0.4481510000000  0.4509680000000 1.0
C      1  0.6142590000000  0.6820290000000  0.4507180000000 1.0
C      1  0.3666520000000  0.6610800000000  0.4506140000000 1.0
C      1  0.3010260000000  0.4198280000000  0.5490020000000 1.0
C      1  0.5141940000000  0.2862030000000  0.5493610000000 1.0
C      1  0.7051250000000  0.4481340000000  0.5494480000000 1.0
C      1  0.6142790000000  0.6821570000000  0.5492870000000 1.0
C      1  0.3666900000000  0.6609280000000  0.5487130000000 1.0
C      1  0.6829880000000  0.6072280000000  0.4507570000000 1.0
C      1  0.4560900000000  0.7098080000000  0.4504090000000 1.0
C      1  0.2870230000000  0.5204270000000  0.4503580000000 1.0
C      1  0.4147580000000  0.3066730000000  0.4505980000000 1.0
C      1  0.6573150000000  0.3584770000000  0.4507940000000 1.0
C      1  0.6828400000000  0.6071390000000  0.5494470000000 1.0
C      1  0.4561770000000  0.7095250000000  0.5491040000000 1.0
C      1  0.2869550000000  0.5204260000000  0.5489800000000 1.0
C      1  0.4146880000000  0.3067170000000  0.5492890000000 1.0
C      1  0.6573220000000  0.3584030000000  0.5495180000000 1.0
C      1  0.5390620000000  0.6916220000000  0.7039480000000 1.0
C      1  0.3310840000000  0.5947260000000  0.7027050000000 1.0
C      1  0.3567830000000  0.3678160000000  0.7041160000000 1.0
C      1  0.5810640000000  0.3227770000000  0.7043270000000 1.0
C      1  0.6928540000000  0.5227080000000  0.7042610000000 1.0
C      1  0.5385470000000  0.6917770000000  0.2958680000000 1.0
C      1  0.3304890000000  0.5949430000000  0.2966910000000 1.0
C      1  0.3565490000000  0.3678200000000  0.2956110000000 1.0
C      1  0.5809400000000  0.3230000000000  0.2958930000000 1.0
C      1  0.6926910000000  0.5229010000000  0.2962060000000 1.0
END
