TITL C-1525613-7943-1116 -0.0205493335788261 3375 -9576.37073820859 0 0 60 (D5d) n - 1
REM
REM in /home/nfs/bkarasulu/CARBON/AIRSS/Generating-Clusters/ReaxFF-fromJPCA2015/Units_Real/Try2-Higher-symm/Only-C60
REM
REM
REM
REM
REM
REM ./C.cell (863b2abdce7293c0672fb3ba77bf323a)
REM AIRSS Version 0.9.1 bugfix July 2018 build 013d7b7c2542+ Fri, 06 Jul 2018 19:26:36 +0100
REM compiler GCC version 9.2.1 20190827 (Red Hat 9.2.1-1)
REM options -cpp -mtune=generic -march=x86-64 -g -O0 -fpre-include=/usr/include/finclude/math-vector-fortran.h
REM seed 581121137 -536439465 -206804389 -1116785135 -546004579 -1945999308 907696758 398705939 -1965443454 -169233312 330415806 -925458278 -1227397206 -1524306750 905193542 -1028140393 1159049394 -1356717197 -919527915 156412882 -207643157 400258085 -1296225780 1439555063 2111939137 371524877 1849648663 -1340111136 -183136560 -888173405 -733119851 647325218 -1617125479
REM
CELL 1.54180   15.00000   15.00000   15.00000   90.00000   90.00000   90.00000
LATT -1
SFAC C  
C      1  0.4286170000000  0.6563950000000  0.5379800000000 1.0
C      1  0.4646650000000  0.3435410000000  0.5727170000000 1.0
C      1  0.5140620000000  0.6564870000000  0.5795870000000 1.0
C      1  0.5582400000000  0.3436300000000  0.5561510000000 1.0
C      1  0.5800250000000  0.6565200000000  0.5111630000000 1.0
C      1  0.5713840000000  0.3436000000000  0.4620250000000 1.0
C      1  0.5353400000000  0.6564360000000  0.4272720000000 1.0
C      1  0.4859330000000  0.3435090000000  0.4204230000000 1.0
C      1  0.4417580000000  0.6563550000000  0.4438560000000 1.0
C      1  0.4199720000000  0.3434680000000  0.4888440000000 1.0
C      1  0.4613590000000  0.4060320000000  0.7355750000000 1.0
C      1  0.6071210000000  0.5941760000000  0.7133130000000 1.0
C      1  0.7120800000000  0.4061630000000  0.6096030000000 1.0
C      1  0.7359470000000  0.5941700000000  0.4640060000000 1.0
C      1  0.6697640000000  0.4060340000000  0.3322140000000 1.0
C      1  0.5386420000000  0.5939600000000  0.2644230000000 1.0
C      1  0.3928770000000  0.4058320000000  0.2866860000000 1.0
C      1  0.2879170000000  0.5938390000000  0.3903860000000 1.0
C      1  0.2640660000000  0.4058230000000  0.5359890000000 1.0
C      1  0.3302320000000  0.5939670000000  0.6677880000000 1.0
C      1  0.7391260000000  0.4614100000000  0.3726210000000 1.0
C      1  0.6185680000000  0.5386900000000  0.2563520000000 1.0
C      1  0.4527330000000  0.4611690000000  0.2331680000000 1.0
C      1  0.3049220000000  0.5385220000000  0.3119060000000 1.0
C      1  0.2316550000000  0.4611170000000  0.4625060000000 1.0
C      1  0.2608750000000  0.5385840000000  0.6273790000000 1.0
C      1  0.3814350000000  0.4612990000000  0.7436450000000 1.0
C      1  0.5472660000000  0.5388280000000  0.7668300000000 1.0
C      1  0.6950720000000  0.4614820000000  0.6880880000000 1.0
C      1  0.7683490000000  0.5388870000000  0.5374930000000 1.0
C      1  0.2512630000000  0.5562570000000  0.4652230000000 1.0
C      1  0.2783900000000  0.4434630000000  0.6180860000000 1.0
C      1  0.3900800000000  0.5564370000000  0.7258090000000 1.0
C      1  0.5438360000000  0.4436950000000  0.7473410000000 1.0
C      1  0.6807960000000  0.5566130000000  0.6743240000000 1.0
C      1  0.7487390000000  0.4437530000000  0.5347750000000 1.0
C      1  0.7216140000000  0.5565410000000  0.3819130000000 1.0
C      1  0.6099210000000  0.4435720000000  0.2741890000000 1.0
C      1  0.4561650000000  0.5563130000000  0.2526550000000 1.0
C      1  0.3191990000000  0.4433980000000  0.3256710000000 1.0
C      1  0.7170610000000  0.5942010000000  0.5992860000000 1.0
C      1  0.7339780000000  0.4061170000000  0.4527790000000 1.0
C      1  0.6614590000000  0.5940650000000  0.3241950000000 1.0
C      1  0.5273790000000  0.4059070000000  0.2628850000000 1.0
C      1  0.3827070000000  0.5938610000000  0.2920450000000 1.0
C      1  0.2829520000000  0.4057960000000  0.4007140000000 1.0
C      1  0.2660260000000  0.5938850000000  0.5472280000000 1.0
C      1  0.3385440000000  0.4059260000000  0.6758030000000 1.0
C      1  0.4726180000000  0.5940970000000  0.7371180000000 1.0
C      1  0.6172890000000  0.4061370000000  0.7079470000000 1.0
C      1  0.3248690000000  0.3598660000000  0.4755420000000 1.0
C      1  0.3438750000000  0.6398970000000  0.5831130000000 1.0
C      1  0.4226680000000  0.3600070000000  0.6590740000000 1.0
C      1  0.5308090000000  0.6400650000000  0.6741410000000 1.0
C      1  0.6273460000000  0.3601810000000  0.6227840000000 1.0
C      1  0.6751190000000  0.6401540000000  0.5244540000000 1.0
C      1  0.6561220000000  0.3601100000000  0.4168910000000 1.0
C      1  0.5773260000000  0.6399880000000  0.3409420000000 1.0
C      1  0.4691880000000  0.3599430000000  0.3258660000000 1.0
C      1  0.3726580000000  0.6398290000000  0.3772190000000 1.0
END
