TITL C-1525613-7943-2475 0.179047745971357 3375 -8937.8645947296 0 0 60 (C5) n - 1
REM
REM in /home/nfs/bkarasulu/CARBON/AIRSS/Generating-Clusters/ReaxFF-fromJPCA2015/Units_Real/Try2-Higher-symm/Only-C60
REM
REM
REM
REM
REM
REM ./C.cell (863b2abdce7293c0672fb3ba77bf323a)
REM AIRSS Version 0.9.1 bugfix July 2018 build 013d7b7c2542+ Fri, 06 Jul 2018 19:26:36 +0100
REM compiler GCC version 9.2.1 20190827 (Red Hat 9.2.1-1)
REM options -cpp -mtune=generic -march=x86-64 -g -O0 -fpre-include=/usr/include/finclude/math-vector-fortran.h
REM seed -1182059350 -866621438 670913477 -1765407617 430376633 1248811650 878378845 2128949732 -928655858 466889930 -93273134 -1428245736 298400150 -1136938444 -1291550237 1318686489 1483307804 1649588826 1461127744 -1716217565 1090285917 443720528 870769307 1218568890 -1489044343 545115221 751617553 -142148299 -669449814 1850447788 1732275675 -1240504738 1034600595
REM
CELL 1.54180   15.00000   15.00000   15.00000   90.00000   90.00000   90.00000
LATT -1
SFAC C  
C      1  0.3808180000000  0.3908280000000  0.6472850000000 1.0
C      1  0.3246000000000  0.3903680000000  0.4289550000000 1.0
C      1  0.5088340000000  0.3893000000000  0.3122330000000 1.0
C      1  0.6838290000000  0.3908580000000  0.4542130000000 1.0
C      1  0.6007430000000  0.3910930000000  0.6607950000000 1.0
C      1  0.3810640000000  0.3907000000000  0.3525500000000 1.0
C      1  0.3247720000000  0.3903540000000  0.5710660000000 1.0
C      1  0.5092860000000  0.3893570000000  0.6874690000000 1.0
C      1  0.6825150000000  0.3885670000000  0.5475110000000 1.0
C      1  0.6003810000000  0.3899800000000  0.3390590000000 1.0
C      1  0.3781200000000  0.5397530000000  0.2831040000000 1.0
C      1  0.6697150000000  0.5404840000000  0.3156740000000 1.0
C      1  0.7264060000000  0.5398110000000  0.6036150000000 1.0
C      1  0.4712440000000  0.5395300000000  0.7469400000000 1.0
C      1  0.2553880000000  0.5397740000000  0.5491460000000 1.0
C      1  0.3782690000000  0.5398530000000  0.7169650000000 1.0
C      1  0.6698570000000  0.5404660000000  0.6835290000000 1.0
C      1  0.7276680000000  0.5406860000000  0.3954430000000 1.0
C      1  0.4712730000000  0.5394850000000  0.2530710000000 1.0
C      1  0.2553860000000  0.5398120000000  0.4508150000000 1.0
C      1  0.5921170000000  0.2998080000000  0.6277420000000 1.0
C      1  0.4072950000000  0.2988860000000  0.6262020000000 1.0
C      1  0.3501870000000  0.2991390000000  0.4521650000000 1.0
C      1  0.5004740000000  0.2987610000000  0.3459060000000 1.0
C      1  0.6493770000000  0.2994230000000  0.4517430000000 1.0
C      1  0.5919060000000  0.3006120000000  0.3732270000000 1.0
C      1  0.4074320000000  0.2988960000000  0.3742180000000 1.0
C      1  0.3499960000000  0.2991670000000  0.5475810000000 1.0
C      1  0.4993890000000  0.2981390000000  0.6548080000000 1.0
C      1  0.6477440000000  0.2992300000000  0.5483060000000 1.0
C      1  0.2886320000000  0.6210200000000  0.4074990000000 1.0
C      1  0.5224410000000  0.6210050000000  0.2706420000000 1.0
C      1  0.7254550000000  0.6215910000000  0.4505470000000 1.0
C      1  0.6166380000000  0.6213720000000  0.6988580000000 1.0
C      1  0.3469520000000  0.6208470000000  0.6724510000000 1.0
C      1  0.2886560000000  0.6210300000000  0.5925140000000 1.0
C      1  0.5225710000000  0.6209360000000  0.7293420000000 1.0
C      1  0.7252590000000  0.6210160000000  0.5494870000000 1.0
C      1  0.6165850000000  0.6214520000000  0.3009120000000 1.0
C      1  0.3469610000000  0.6208760000000  0.3275730000000 1.0
C      1  0.3267990000000  0.4623790000000  0.3147340000000 1.0
C      1  0.6242740000000  0.4634880000000  0.2776440000000 1.0
C      1  0.7496660000000  0.4614510000000  0.5486480000000 1.0
C      1  0.5310290000000  0.4616280000000  0.7526930000000 1.0
C      1  0.2705960000000  0.4629170000000  0.6059140000000 1.0
C      1  0.3269330000000  0.4621870000000  0.6853200000000 1.0
C      1  0.6242920000000  0.4630450000000  0.7218940000000 1.0
C      1  0.7493700000000  0.4636430000000  0.4503250000000 1.0
C      1  0.5312750000000  0.4617980000000  0.2475240000000 1.0
C      1  0.2706800000000  0.4628260000000  0.3939940000000 1.0
C      1  0.4991960000000  0.6870720000000  0.3411990000000 1.0
C      1  0.6509190000000  0.6871080000000  0.4502750000000 1.0
C      1  0.5939200000000  0.6871520000000  0.6281320000000 1.0
C      1  0.4070750000000  0.6869760000000  0.6288670000000 1.0
C      1  0.3483430000000  0.6869450000000  0.4515230000000 1.0
C      1  0.4991920000000  0.6870220000000  0.6588850000000 1.0
C      1  0.6509020000000  0.6870950000000  0.5497370000000 1.0
C      1  0.5939020000000  0.6870730000000  0.3718560000000 1.0
C      1  0.4070730000000  0.6869940000000  0.3711720000000 1.0
C      1  0.3483310000000  0.6869350000000  0.5485040000000 1.0
END
