TITL C-1525613-7943-4335 0.26312624780028 3375 -8288.97106630858 0 0 60 (C10) n - 1
REM
REM in /home/nfs/bkarasulu/CARBON/AIRSS/Generating-Clusters/ReaxFF-fromJPCA2015/Units_Real/Try2-Higher-symm/Only-C60
REM
REM
REM
REM
REM
REM ./C.cell (863b2abdce7293c0672fb3ba77bf323a)
REM AIRSS Version 0.9.1 bugfix July 2018 build 013d7b7c2542+ Fri, 06 Jul 2018 19:26:36 +0100
REM compiler GCC version 9.2.1 20190827 (Red Hat 9.2.1-1)
REM options -cpp -mtune=generic -march=x86-64 -g -O0 -fpre-include=/usr/include/finclude/math-vector-fortran.h
REM seed -293625871 641378494 1666863439 -2147081175 -2111325717 -951447227 1506262416 -1212600573 1948746356 -58504742 301430366 68213217 -32621561 -1061838619 1265205164 1700494215 1193953389 626295101 -1104126533 -416890541 197702063 -376575568 -35684432 -1404413036 52834421 2115271922 -238281574 1557509969 1727556236 1848367324 -672596235 1988948729 205189983
REM
CELL 1.54180   15.00000   15.00000   15.00000   90.00000   90.00000   90.00000
LATT -1
SFAC C  
C      1  0.3971930000000  0.3351790000000  0.3800760000000 1.0
C      1  0.3453580000000  0.3377550000000  0.4625170000000 1.0
C      1  0.3531530000000  0.3377620000000  0.5602170000000 1.0
C      1  0.4164740000000  0.3378080000000  0.6355110000000 1.0
C      1  0.5124880000000  0.3384720000000  0.6590470000000 1.0
C      1  0.6023170000000  0.3352540000000  0.6202650000000 1.0
C      1  0.6548950000000  0.3376150000000  0.5374220000000 1.0
C      1  0.6465630000000  0.3377690000000  0.4394810000000 1.0
C      1  0.5839140000000  0.3377750000000  0.3648210000000 1.0
C      1  0.4874340000000  0.3385320000000  0.3408560000000 1.0
C      1  0.3587320000000  0.4354000000000  0.5602640000000 1.0
C      1  0.4212210000000  0.4361900000000  0.6326980000000 1.0
C      1  0.5137100000000  0.4362670000000  0.6519960000000 1.0
C      1  0.6020620000000  0.4342740000000  0.6174630000000 1.0
C      1  0.6499720000000  0.4357380000000  0.5344180000000 1.0
C      1  0.6413920000000  0.4355860000000  0.4399720000000 1.0
C      1  0.5789080000000  0.4362040000000  0.3672160000000 1.0
C      1  0.4859910000000  0.4365200000000  0.3480530000000 1.0
C      1  0.3983280000000  0.4338970000000  0.3824640000000 1.0
C      1  0.3498710000000  0.4359060000000  0.4653690000000 1.0
C      1  0.4849090000000  0.6077890000000  0.2515470000000 1.0
C      1  0.3419350000000  0.6076070000000  0.3081540000000 1.0
C      1  0.2588590000000  0.6078370000000  0.4375840000000 1.0
C      1  0.2684830000000  0.6076980000000  0.5911100000000 1.0
C      1  0.3661830000000  0.6077610000000  0.7099030000000 1.0
C      1  0.5150920000000  0.6077850000000  0.7484580000000 1.0
C      1  0.6580690000000  0.6075990000000  0.6918490000000 1.0
C      1  0.7411500000000  0.6078370000000  0.5624180000000 1.0
C      1  0.7315230000000  0.6076990000000  0.4088880000000 1.0
C      1  0.6338180000000  0.6077640000000  0.2900950000000 1.0
C      1  0.4209370000000  0.6376880000000  0.2987610000000 1.0
C      1  0.3173590000000  0.6378390000000  0.3835350000000 1.0
C      1  0.2838100000000  0.6377880000000  0.5130170000000 1.0
C      1  0.3329190000000  0.6377280000000  0.6374960000000 1.0
C      1  0.4455480000000  0.6378720000000  0.7097200000000 1.0
C      1  0.5790620000000  0.6376950000000  0.7012390000000 1.0
C      1  0.6826390000000  0.6378470000000  0.6164720000000 1.0
C      1  0.7161940000000  0.6377930000000  0.4869680000000 1.0
C      1  0.6670750000000  0.6377300000000  0.3624940000000 1.0
C      1  0.5544380000000  0.6378690000000  0.2902780000000 1.0
C      1  0.2737820000000  0.4709020000000  0.6884250000000 1.0
C      1  0.4275900000000  0.4711230000000  0.7857430000000 1.0
C      1  0.6090190000000  0.4708130000000  0.7733770000000 1.0
C      1  0.7489420000000  0.4707230000000  0.6567470000000 1.0
C      1  0.7938920000000  0.4709680000000  0.4805200000000 1.0
C      1  0.7262150000000  0.4709140000000  0.3115590000000 1.0
C      1  0.5724220000000  0.4711290000000  0.2142610000000 1.0
C      1  0.3909860000000  0.4708200000000  0.2266030000000 1.0
C      1  0.2510320000000  0.4707260000000  0.3432570000000 1.0
C      1  0.2061210000000  0.4709530000000  0.5194760000000 1.0
C      1  0.7641160000000  0.5105650000000  0.3946650000000 1.0
C      1  0.6518760000000  0.5106600000000  0.2593790000000 1.0
C      1  0.4815980000000  0.5107440000000  0.2159330000000 1.0
C      1  0.3186800000000  0.5103280000000  0.2818060000000 1.0
C      1  0.2243460000000  0.5106270000000  0.4299650000000 1.0
C      1  0.2359070000000  0.5105580000000  0.6053320000000 1.0
C      1  0.3481180000000  0.5106780000000  0.7406360000000 1.0
C      1  0.5183920000000  0.5107300000000  0.7840490000000 1.0
C      1  0.6812840000000  0.5102750000000  0.7181300000000 1.0
C      1  0.7757000000000  0.5106370000000  0.5700240000000 1.0
END
