TITL C-1525613-7943-3940 -0.000137866664200602 3375 -9639.70808226779 0 0 60 (D5h) n - 1
REM
REM in /home/nfs/bkarasulu/CARBON/AIRSS/Generating-Clusters/ReaxFF-fromJPCA2015/Units_Real/Try2-Higher-symm/Only-C60
REM
REM
REM
REM
REM
REM ./C.cell (863b2abdce7293c0672fb3ba77bf323a)
REM AIRSS Version 0.9.1 bugfix July 2018 build 013d7b7c2542+ Fri, 06 Jul 2018 19:26:36 +0100
REM compiler GCC version 9.2.1 20190827 (Red Hat 9.2.1-1)
REM options -cpp -mtune=generic -march=x86-64 -g -O0 -fpre-include=/usr/include/finclude/math-vector-fortran.h
REM seed 919003664 -1683459666 -1431687515 -1893139729 515061482 1852194071 1882178702 1569513023 -385531314 406900735 725467224 -520166369 -1396736018 1461979454 -960128686 2084592053 -895214398 568086350 1827957986 -1526120652 -1878923934 -2072794901 1776519104 672823466 -321513533 -816518046 1080076544 -185771762 396114067 1391833119 1059644436 1802297720 -216096818
REM
CELL 1.54180   15.00000   15.00000   15.00000   90.00000   90.00000   90.00000
LATT -1
SFAC C  
C      1  0.6867040000000  0.4505300000000  0.3145550000000 1.0
C      1  0.3813290000000  0.4505260000000  0.2651280000000 1.0
C      1  0.2399520000000  0.4505150000000  0.5402830000000 1.0
C      1  0.4579550000000  0.4505140000000  0.7597680000000 1.0
C      1  0.7340640000000  0.4505230000000  0.6202590000000 1.0
C      1  0.6867020000000  0.5494870000000  0.3145580000000 1.0
C      1  0.3813270000000  0.5494820000000  0.2651300000000 1.0
C      1  0.2399500000000  0.5494720000000  0.5402860000000 1.0
C      1  0.4579530000000  0.5494710000000  0.7597710000000 1.0
C      1  0.7340610000000  0.5494800000000  0.6202620000000 1.0
C      1  0.5565950000000  0.4505160000000  0.7569910000000 1.0
C      1  0.7619050000000  0.4505260000000  0.5255890000000 1.0
C      1  0.6052710000000  0.4505300000000  0.2588220000000 1.0
C      1  0.3031600000000  0.4505220000000  0.3253540000000 1.0
C      1  0.2730750000000  0.4505140000000  0.6332370000000 1.0
C      1  0.5565930000000  0.5494730000000  0.7569940000000 1.0
C      1  0.7619030000000  0.5494830000000  0.5255910000000 1.0
C      1  0.6052690000000  0.5494870000000  0.2588250000000 1.0
C      1  0.3031580000000  0.5494790000000  0.3253560000000 1.0
C      1  0.2730730000000  0.5494700000000  0.6332390000000 1.0
C      1  0.5022520000000  0.7093590000000  0.5801360000000 1.0
C      1  0.5769020000000  0.7093620000000  0.5226220000000 1.0
C      1  0.5452700000000  0.7093650000000  0.4338530000000 1.0
C      1  0.4510710000000  0.7093630000000  0.4365050000000 1.0
C      1  0.4244840000000  0.7093590000000  0.5269130000000 1.0
C      1  0.5022610000000  0.2906370000000  0.5801250000000 1.0
C      1  0.5769100000000  0.2906400000000  0.5226110000000 1.0
C      1  0.5452780000000  0.2906400000000  0.4338420000000 1.0
C      1  0.4510790000000  0.2906390000000  0.4364940000000 1.0
C      1  0.4244930000000  0.2906360000000  0.5269020000000 1.0
C      1  0.5853130000000  0.3855620000000  0.6897120000000 1.0
C      1  0.7067950000000  0.3855690000000  0.4774870000000 1.0
C      1  0.5424960000000  0.3855700000000  0.2963700000000 1.0
C      1  0.3194730000000  0.3855630000000  0.3966590000000 1.0
C      1  0.3459340000000  0.3855580000000  0.6397570000000 1.0
C      1  0.5853080000000  0.6144320000000  0.6897180000000 1.0
C      1  0.7067910000000  0.6144400000000  0.4774930000000 1.0
C      1  0.5424920000000  0.6144430000000  0.2963760000000 1.0
C      1  0.3194680000000  0.6144350000000  0.3966650000000 1.0
C      1  0.3459300000000  0.6144290000000  0.6397630000000 1.0
C      1  0.2922700000000  0.3855600000000  0.4891570000000 1.0
C      1  0.4255000000000  0.3855580000000  0.6942120000000 1.0
C      1  0.6616890000000  0.3855650000000  0.6308680000000 1.0
C      1  0.6744320000000  0.3855710000000  0.3866650000000 1.0
C      1  0.4461190000000  0.3855680000000  0.2990830000000 1.0
C      1  0.2922660000000  0.6144320000000  0.4891630000000 1.0
C      1  0.4254960000000  0.6144280000000  0.6942180000000 1.0
C      1  0.6616850000000  0.6144350000000  0.6308740000000 1.0
C      1  0.6744270000000  0.6144420000000  0.3866720000000 1.0
C      1  0.4461140000000  0.6144410000000  0.2990890000000 1.0
C      1  0.3484040000000  0.3411110000000  0.5540150000000 1.0
C      1  0.5045320000000  0.3411120000000  0.6608670000000 1.0
C      1  0.6544010000000  0.3411170000000  0.5454010000000 1.0
C      1  0.5908970000000  0.3411200000000  0.3671860000000 1.0
C      1  0.4017810000000  0.3411160000000  0.3725100000000 1.0
C      1  0.3483980000000  0.6588800000000  0.5540240000000 1.0
C      1  0.5045260000000  0.6588800000000  0.6608760000000 1.0
C      1  0.6543950000000  0.6588870000000  0.5454090000000 1.0
C      1  0.5908910000000  0.6588910000000  0.3671940000000 1.0
C      1  0.4017750000000  0.6588870000000  0.3725180000000 1.0
END
