TITL C-1525613-7943-6975 0.0141044523122978 3375 -8424.94637852118 0 0 60 (C1) n - 1
REM
REM in /home/nfs/bkarasulu/CARBON/AIRSS/Generating-Clusters/ReaxFF-fromJPCA2015/Units_Real/Try2-Higher-symm/Only-C60
REM
REM
REM
REM
REM
REM ./C.cell (863b2abdce7293c0672fb3ba77bf323a)
REM AIRSS Version 0.9.1 bugfix July 2018 build 013d7b7c2542+ Fri, 06 Jul 2018 19:26:36 +0100
REM compiler GCC version 9.2.1 20190827 (Red Hat 9.2.1-1)
REM options -cpp -mtune=generic -march=x86-64 -g -O0 -fpre-include=/usr/include/finclude/math-vector-fortran.h
REM seed 154212772 -951250748 1234381351 904408816 -282840375 -568807183 1306407393 -1440051283 -304264698 -1739868778 -543719163 1376179018 -1642363911 617649296 -2028035304 -427764932 26338458 -2075596721 1304600645 -853837470 1407725953 1764350131 -1821960257 -1409525557 -8308998 515672162 125710003 -142801064 808499168 1267993361 -796900391 -238868956 445911383
REM
CELL 1.54180   15.00000   15.00000   15.00000   90.00000   90.00000   90.00000
LATT -1
SFAC C  
C      1  0.5181960000000  0.5826800000000  0.5514740000000 1.0
C      1  0.4280940000000  0.5478280000000  0.5495480000000 1.0
C      1  0.4339940000000  0.4440250000000  0.5516080000000 1.0
C      1  0.5335730000000  0.4150010000000  0.5502350000000 1.0
C      1  0.5847020000000  0.5060270000000  0.5533020000000 1.0
C      1  0.5182220000000  0.5837470000000  0.4515430000000 1.0
C      1  0.4266930000000  0.5496880000000  0.4540060000000 1.0
C      1  0.4314740000000  0.4423700000000  0.4515790000000 1.0
C      1  0.5346190000000  0.4131260000000  0.4525200000000 1.0
C      1  0.5853580000000  0.5059570000000  0.4482180000000 1.0
C      1  0.2807240000000  0.3820100000000  0.4497250000000 1.0
C      1  0.5540590000000  0.2480630000000  0.4500310000000 1.0
C      1  0.7426770000000  0.4919590000000  0.4491780000000 1.0
C      1  0.5930760000000  0.7287710000000  0.4502890000000 1.0
C      1  0.3230340000000  0.6790600000000  0.4503370000000 1.0
C      1  0.2810320000000  0.3826380000000  0.5495700000000 1.0
C      1  0.5538270000000  0.2482610000000  0.5499370000000 1.0
C      1  0.7425820000000  0.4919460000000  0.5505670000000 1.0
C      1  0.5929710000000  0.7281330000000  0.5507900000000 1.0
C      1  0.3227340000000  0.6778420000000  0.5491830000000 1.0
C      1  0.5648190000000  0.5368050000000  0.3015860000000 1.0
C      1  0.4700210000000  0.5677040000000  0.3036160000000 1.0
C      1  0.4113940000000  0.4891600000000  0.3159480000000 1.0
C      1  0.4732850000000  0.4091390000000  0.3180290000000 1.0
C      1  0.5675330000000  0.4394750000000  0.3167060000000 1.0
C      1  0.5651820000000  0.5372940000000  0.6976360000000 1.0
C      1  0.4708310000000  0.5675700000000  0.6961370000000 1.0
C      1  0.4121770000000  0.4895840000000  0.6829730000000 1.0
C      1  0.4732650000000  0.4092420000000  0.6811300000000 1.0
C      1  0.5676950000000  0.4400140000000  0.6828160000000 1.0
C      1  0.4375980000000  0.3254900000000  0.3678130000000 1.0
C      1  0.6404230000000  0.3899140000000  0.3678890000000 1.0
C      1  0.6258730000000  0.6007380000000  0.3443770000000 1.0
C      1  0.4503600000000  0.6518340000000  0.3474760000000 1.0
C      1  0.3297510000000  0.5126220000000  0.3678980000000 1.0
C      1  0.4373820000000  0.3264250000000  0.6311380000000 1.0
C      1  0.6401360000000  0.3901920000000  0.6316510000000 1.0
C      1  0.6264620000000  0.6018470000000  0.6551860000000 1.0
C      1  0.4510550000000  0.6517750000000  0.6515660000000 1.0
C      1  0.3316130000000  0.5130880000000  0.6297190000000 1.0
C      1  0.5748530000000  0.3342990000000  0.4077770000000 1.0
C      1  0.6691300000000  0.5355350000000  0.4009830000000 1.0
C      1  0.5456530000000  0.6630300000000  0.3848940000000 1.0
C      1  0.3649610000000  0.6040210000000  0.3899790000000 1.0
C      1  0.3650080000000  0.3772100000000  0.3998070000000 1.0
C      1  0.5740140000000  0.3347960000000  0.5922470000000 1.0
C      1  0.6687530000000  0.5353810000000  0.5987650000000 1.0
C      1  0.5450800000000  0.6604010000000  0.6138620000000 1.0
C      1  0.3660450000000  0.6020720000000  0.6080360000000 1.0
C      1  0.3663780000000  0.3808500000000  0.5994250000000 1.0
C      1  0.6999120000000  0.4052030000000  0.5509210000000 1.0
C      1  0.6654840000000  0.6675300000000  0.5472300000000 1.0
C      1  0.4108480000000  0.7138960000000  0.5479380000000 1.0
C      1  0.2801250000000  0.4795890000000  0.5514890000000 1.0
C      1  0.4592400000000  0.2699350000000  0.5509340000000 1.0
C      1  0.6999650000000  0.4051410000000  0.4487410000000 1.0
C      1  0.6660860000000  0.6680190000000  0.4527820000000 1.0
C      1  0.4115240000000  0.7146950000000  0.4535500000000 1.0
C      1  0.2790280000000  0.4794820000000  0.4470980000000 1.0
C      1  0.4594180000000  0.2698690000000  0.4486100000000 1.0
END
