TITL C-1525613-7943-3968 -0.081657525340532 3375 -8274.4174296154 0 0 60 (C1) n - 1
REM
REM in /home/nfs/bkarasulu/CARBON/AIRSS/Generating-Clusters/ReaxFF-fromJPCA2015/Units_Real/Try2-Higher-symm/Only-C60
REM
REM
REM
REM
REM
REM ./C.cell (863b2abdce7293c0672fb3ba77bf323a)
REM AIRSS Version 0.9.1 bugfix July 2018 build 013d7b7c2542+ Fri, 06 Jul 2018 19:26:36 +0100
REM compiler GCC version 9.2.1 20190827 (Red Hat 9.2.1-1)
REM options -cpp -mtune=generic -march=x86-64 -g -O0 -fpre-include=/usr/include/finclude/math-vector-fortran.h
REM seed 1731607071 -1847053618 -1456821722 344197345 -269102018 1587463552 -1707773364 1508245869 -1331756615 -219237768 -1183408356 2049099951 1752589053 -1021417143 -2134636096 1745763658 -1298501915 1964733304 -1735050739 -2018058312 1833825178 2092116638 -2090979146 -1583178877 1759292467 -647478627 1015813274 26000751 1008454738 2036379538 -1514764455 -152782518 733454679
REM
CELL 1.54180   15.00000   15.00000   15.00000   90.00000   90.00000   90.00000
LATT -1
SFAC C  
C      1  0.5467520000000  0.3395160000000  0.5391570000000 1.0
C      1  0.5485220000000  0.4231030000000  0.3596090000000 1.0
C      1  0.5484820000000  0.6047360000000  0.3801240000000 1.0
C      1  0.5481740000000  0.6461510000000  0.5640930000000 1.0
C      1  0.5470970000000  0.4853700000000  0.6633380000000 1.0
C      1  0.4534580000000  0.3386140000000  0.5396290000000 1.0
C      1  0.4513040000000  0.4226290000000  0.3593050000000 1.0
C      1  0.4505340000000  0.6048900000000  0.3814850000000 1.0
C      1  0.4504340000000  0.6449560000000  0.5608020000000 1.0
C      1  0.4542120000000  0.4841220000000  0.6634400000000 1.0
C      1  0.2744680000000  0.4214800000000  0.4760480000000 1.0
C      1  0.2754680000000  0.4998070000000  0.4167690000000 1.0
C      1  0.2747190000000  0.5798000000000  0.4718720000000 1.0
C      1  0.2723880000000  0.5522780000000  0.5660120000000 1.0
C      1  0.2735060000000  0.4535130000000  0.5694000000000 1.0
C      1  0.7249230000000  0.4213020000000  0.4759380000000 1.0
C      1  0.7246620000000  0.4990790000000  0.4162190000000 1.0
C      1  0.7260860000000  0.5797570000000  0.4716630000000 1.0
C      1  0.7271270000000  0.5517830000000  0.5666960000000 1.0
C      1  0.7262830000000  0.4532550000000  0.5695020000000 1.0
C      1  0.3104990000000  0.6672890000000  0.4461490000000 1.0
C      1  0.3064370000000  0.6041150000000  0.6421090000000 1.0
C      1  0.3092580000000  0.3979780000000  0.6417810000000 1.0
C      1  0.3089870000000  0.3345090000000  0.4458650000000 1.0
C      1  0.3111370000000  0.5014930000000  0.3259620000000 1.0
C      1  0.6926440000000  0.6683570000000  0.4452910000000 1.0
C      1  0.6927410000000  0.6031710000000  0.6424100000000 1.0
C      1  0.6908160000000  0.3980510000000  0.6422310000000 1.0
C      1  0.6904150000000  0.3343440000000  0.4456910000000 1.0
C      1  0.6887770000000  0.5017720000000  0.3256880000000 1.0
C      1  0.4510930000000  0.4343500000000  0.7488510000000 1.0
C      1  0.4506100000000  0.2428230000000  0.5162660000000 1.0
C      1  0.4506970000000  0.4086220000000  0.2601170000000 1.0
C      1  0.4497710000000  0.6952340000000  0.3385630000000 1.0
C      1  0.4513810000000  0.7105970000000  0.6348520000000 1.0
C      1  0.5492900000000  0.4353770000000  0.7484940000000 1.0
C      1  0.5495130000000  0.2434840000000  0.5179830000000 1.0
C      1  0.5489550000000  0.4090140000000  0.2612660000000 1.0
C      1  0.5494830000000  0.6951090000000  0.3379180000000 1.0
C      1  0.5501680000000  0.7122840000000  0.6374180000000 1.0
C      1  0.6248400000000  0.4694010000000  0.2594620000000 1.0
C      1  0.6260070000000  0.7194490000000  0.3927720000000 1.0
C      1  0.6235110000000  0.6634760000000  0.6760150000000 1.0
C      1  0.6219640000000  0.3836020000000  0.7105440000000 1.0
C      1  0.6252280000000  0.2607280000000  0.4588940000000 1.0
C      1  0.3750010000000  0.4693080000000  0.2597430000000 1.0
C      1  0.3746400000000  0.7183750000000  0.3946140000000 1.0
C      1  0.3770450000000  0.6637010000000  0.6768760000000 1.0
C      1  0.3779050000000  0.3833910000000  0.7105250000000 1.0
C      1  0.3768890000000  0.2624760000000  0.4557400000000 1.0
C      1  0.5961480000000  0.5115140000000  0.3408490000000 1.0
C      1  0.5957640000000  0.6571280000000  0.4645830000000 1.0
C      1  0.5963420000000  0.5784910000000  0.6347470000000 1.0
C      1  0.5940840000000  0.4015000000000  0.6158290000000 1.0
C      1  0.5929810000000  0.3525820000000  0.4386140000000 1.0
C      1  0.4040110000000  0.5101010000000  0.3413750000000 1.0
C      1  0.4024970000000  0.6567110000000  0.4621140000000 1.0
C      1  0.4020500000000  0.5771680000000  0.6344850000000 1.0
C      1  0.4061360000000  0.4003790000000  0.6158500000000 1.0
C      1  0.4056850000000  0.3564020000000  0.4403610000000 1.0
END
