TITL C-1525613-7943-2405 0.741585125819325 3375 -7921.16664638479 0 0 60 (C5v) n - 1
REM
REM in /home/nfs/bkarasulu/CARBON/AIRSS/Generating-Clusters/ReaxFF-fromJPCA2015/Units_Real/Try2-Higher-symm/Only-C60
REM
REM
REM
REM
REM
REM ./C.cell (863b2abdce7293c0672fb3ba77bf323a)
REM AIRSS Version 0.9.1 bugfix July 2018 build 013d7b7c2542+ Fri, 06 Jul 2018 19:26:36 +0100
REM compiler GCC version 9.2.1 20190827 (Red Hat 9.2.1-1)
REM options -cpp -mtune=generic -march=x86-64 -g -O0 -fpre-include=/usr/include/finclude/math-vector-fortran.h
REM seed -2016342434 -1500693411 -1145095030 34686302 -1378615441 1587189037 1370415236 -501291768 -77124868 207762143 1803946928 -775569759 -2133515196 -1812833427 1357209233 -448349924 -1194705727 -1366113372 -562688981 -67751252 261580352 -1164075048 -490542942 -2102051793 68220916 -1637722266 -1562242410 1594837560 1478998728 2038289739 945977983 -1599991823 2111492957
REM
CELL 1.54180   15.00000   15.00000   15.00000   90.00000   90.00000   90.00000
LATT -1
SFAC C  
C      1  0.3158570000000  0.5937000000000  0.3725070000000 1.0
C      1  0.3167590000000  0.6516760000000  0.5492070000000 1.0
C      1  0.3160330000000  0.4990430000000  0.6583580000000 1.0
C      1  0.3162510000000  0.3487980000000  0.5483060000000 1.0
C      1  0.3165970000000  0.4070250000000  0.3709800000000 1.0
C      1  0.3155080000000  0.5927530000000  0.6282200000000 1.0
C      1  0.3166770000000  0.6521440000000  0.4517230000000 1.0
C      1  0.3159860000000  0.5007650000000  0.3407900000000 1.0
C      1  0.3155910000000  0.3494590000000  0.4496770000000 1.0
C      1  0.3167220000000  0.4058950000000  0.6282720000000 1.0
C      1  0.5872470000000  0.3250250000000  0.5677130000000 1.0
C      1  0.5888160000000  0.3822830000000  0.3540360000000 1.0
C      1  0.5906120000000  0.6006570000000  0.3417240000000 1.0
C      1  0.5885380000000  0.6834930000000  0.5460990000000 1.0
C      1  0.5880020000000  0.5124220000000  0.6883570000000 1.0
C      1  0.5892090000000  0.3258490000000  0.4325090000000 1.0
C      1  0.5908840000000  0.3813530000000  0.6446360000000 1.0
C      1  0.5906450000000  0.6005540000000  0.6579620000000 1.0
C      1  0.5905340000000  0.6815280000000  0.4533290000000 1.0
C      1  0.5875110000000  0.5103280000000  0.3119770000000 1.0
C      1  0.5301610000000  0.3201200000000  0.6911580000000 1.0
C      1  0.5289530000000  0.2612620000000  0.3876180000000 1.0
C      1  0.5283260000000  0.5328590000000  0.2367190000000 1.0
C      1  0.5298530000000  0.7589140000000  0.4511540000000 1.0
C      1  0.5299610000000  0.6265050000000  0.7308750000000 1.0
C      1  0.5291740000000  0.3196030000000  0.3083100000000 1.0
C      1  0.5284330000000  0.2599220000000  0.6125240000000 1.0
C      1  0.5289070000000  0.5324860000000  0.7626220000000 1.0
C      1  0.5289650000000  0.7599110000000  0.5500010000000 1.0
C      1  0.5301240000000  0.6258300000000  0.2693890000000 1.0
C      1  0.6816620000000  0.5922900000000  0.6255160000000 1.0
C      1  0.6816060000000  0.4088780000000  0.6265670000000 1.0
C      1  0.6822330000000  0.3519800000000  0.4522440000000 1.0
C      1  0.6809950000000  0.5001240000000  0.3439600000000 1.0
C      1  0.6823750000000  0.6481580000000  0.4511180000000 1.0
C      1  0.6822970000000  0.5918850000000  0.3740850000000 1.0
C      1  0.6807720000000  0.4082790000000  0.3742940000000 1.0
C      1  0.6814630000000  0.3518420000000  0.5486260000000 1.0
C      1  0.6810900000000  0.5004770000000  0.6567470000000 1.0
C      1  0.6807330000000  0.6492020000000  0.5480700000000 1.0
C      1  0.4137430000000  0.4076710000000  0.3748080000000 1.0
C      1  0.4133080000000  0.5909450000000  0.3726220000000 1.0
C      1  0.4140910000000  0.6489840000000  0.5476890000000 1.0
C      1  0.4133670000000  0.5012600000000  0.6562240000000 1.0
C      1  0.4138600000000  0.3507660000000  0.5489390000000 1.0
C      1  0.4141410000000  0.4093940000000  0.6255250000000 1.0
C      1  0.4130640000000  0.5932930000000  0.6268800000000 1.0
C      1  0.4138830000000  0.6466720000000  0.4513670000000 1.0
C      1  0.4138150000000  0.4993360000000  0.3443790000000 1.0
C      1  0.4128490000000  0.3510250000000  0.4521110000000 1.0
C      1  0.4702180000000  0.7612560000000  0.3705540000000 1.0
C      1  0.4701460000000  0.7034360000000  0.7094320000000 1.0
C      1  0.4704830000000  0.3635450000000  0.7581220000000 1.0
C      1  0.4705650000000  0.2120830000000  0.4497750000000 1.0
C      1  0.4697930000000  0.4578010000000  0.2107320000000 1.0
C      1  0.4697800000000  0.7618020000000  0.6299770000000 1.0
C      1  0.4702290000000  0.7032330000000  0.2916040000000 1.0
C      1  0.4703270000000  0.3634740000000  0.2421000000000 1.0
C      1  0.4701770000000  0.2116800000000  0.5495200000000 1.0
C      1  0.4701000000000  0.4570640000000  0.7896630000000 1.0
END
