TITL C-1525613-7943-7164 -0.0107885543419243 3375 -8622.18003688615 0 0 60 (Cs) n - 1
REM
REM in /home/nfs/bkarasulu/CARBON/AIRSS/Generating-Clusters/ReaxFF-fromJPCA2015/Units_Real/Try2-Higher-symm/Only-C60
REM
REM
REM
REM
REM
REM ./C.cell (863b2abdce7293c0672fb3ba77bf323a)
REM AIRSS Version 0.9.1 bugfix July 2018 build 013d7b7c2542+ Fri, 06 Jul 2018 19:26:36 +0100
REM compiler GCC version 9.2.1 20190827 (Red Hat 9.2.1-1)
REM options -cpp -mtune=generic -march=x86-64 -g -O0 -fpre-include=/usr/include/finclude/math-vector-fortran.h
REM seed -1397621286 -2031365495 -1215243186 912572099 -1336106994 -794152038 1087599370 -1964219343 -2140882056 685258495 -1279552677 491925435 -1577821807 -1198300439 229070800 868063721 769020997 875483884 -1745892247 1014377631 -1226121669 -664248766 1902478710 1447561246 412319277 172314458 1266450212 -1559601286 1607988824 -406487254 1505841956 -369693415 -1401765447
REM
CELL 1.54180   15.00000   15.00000   15.00000   90.00000   90.00000   90.00000
LATT -1
SFAC C  
C      1  0.5916220000000  0.3679630000000  0.6273110000000 1.0
C      1  0.6553570000000  0.5462760000000  0.6277610000000 1.0
C      1  0.5043290000000  0.6621930000000  0.6284800000000 1.0
C      1  0.3462970000000  0.5536090000000  0.6335820000000 1.0
C      1  0.4000070000000  0.3699130000000  0.6273740000000 1.0
C      1  0.5916170000000  0.3666430000000  0.3723430000000 1.0
C      1  0.6565700000000  0.5462640000000  0.3719770000000 1.0
C      1  0.5046800000000  0.6629010000000  0.3717130000000 1.0
C      1  0.3473360000000  0.5542290000000  0.3707860000000 1.0
C      1  0.3996120000000  0.3698050000000  0.3722920000000 1.0
C      1  0.5501500000000  0.4361500000000  0.4308780000000 1.0
C      1  0.5758240000000  0.5275700000000  0.4307880000000 1.0
C      1  0.4964660000000  0.5809070000000  0.4304460000000 1.0
C      1  0.4221770000000  0.5223690000000  0.4299630000000 1.0
C      1  0.4550260000000  0.4327000000000  0.4303210000000 1.0
C      1  0.5499880000000  0.4379260000000  0.5691100000000 1.0
C      1  0.5745210000000  0.5281800000000  0.5695960000000 1.0
C      1  0.4964170000000  0.5813520000000  0.5692760000000 1.0
C      1  0.4185980000000  0.5258900000000  0.5676720000000 1.0
C      1  0.4536980000000  0.4344090000000  0.5697770000000 1.0
C      1  0.4282100000000  0.2722840000000  0.6239480000000 1.0
C      1  0.6937420000000  0.3619700000000  0.6242460000000 1.0
C      1  0.6921060000000  0.6415600000000  0.6249820000000 1.0
C      1  0.4243450000000  0.7261020000000  0.6238850000000 1.0
C      1  0.2614870000000  0.4973210000000  0.6266620000000 1.0
C      1  0.4278320000000  0.2718120000000  0.3759830000000 1.0
C      1  0.6935540000000  0.3618340000000  0.3755840000000 1.0
C      1  0.6921580000000  0.6418140000000  0.3755110000000 1.0
C      1  0.4249280000000  0.7267830000000  0.3751460000000 1.0
C      1  0.2617970000000  0.4985830000000  0.3754220000000 1.0
C      1  0.5056180000000  0.5800470000000  0.7066250000000 1.0
C      1  0.4254510000000  0.5289300000000  0.7069370000000 1.0
C      1  0.4485570000000  0.4357980000000  0.7076850000000 1.0
C      1  0.5438840000000  0.4322360000000  0.7067960000000 1.0
C      1  0.5791450000000  0.5201660000000  0.7068950000000 1.0
C      1  0.5061520000000  0.5822390000000  0.2929660000000 1.0
C      1  0.4280580000000  0.5281220000000  0.2927000000000 1.0
C      1  0.4460250000000  0.4343810000000  0.2929070000000 1.0
C      1  0.5412820000000  0.4333590000000  0.2938270000000 1.0
C      1  0.5790660000000  0.5209260000000  0.2933860000000 1.0
C      1  0.5703650000000  0.7045040000000  0.5472070000000 1.0
C      1  0.3292790000000  0.6275250000000  0.5465730000000 1.0
C      1  0.3220920000000  0.3754150000000  0.5469190000000 1.0
C      1  0.5638470000000  0.2935420000000  0.5467060000000 1.0
C      1  0.7166280000000  0.4967270000000  0.5469130000000 1.0
C      1  0.5704550000000  0.7051160000000  0.4531270000000 1.0
C      1  0.3279260000000  0.6291840000000  0.4514320000000 1.0
C      1  0.3212850000000  0.3752520000000  0.4527780000000 1.0
C      1  0.5644180000000  0.2927450000000  0.4525640000000 1.0
C      1  0.7173200000000  0.4968310000000  0.4529090000000 1.0
C      1  0.2458970000000  0.4322620000000  0.5567610000000 1.0
C      1  0.4876620000000  0.2368040000000  0.5557540000000 1.0
C      1  0.7462150000000  0.4061970000000  0.5562090000000 1.0
C      1  0.6653950000000  0.7046590000000  0.5565390000000 1.0
C      1  0.3566680000000  0.7197260000000  0.5553410000000 1.0
C      1  0.2452330000000  0.4323480000000  0.4439480000000 1.0
C      1  0.4873590000000  0.2365380000000  0.4437310000000 1.0
C      1  0.7461520000000  0.4061960000000  0.4436820000000 1.0
C      1  0.6655350000000  0.7049050000000  0.4440370000000 1.0
C      1  0.3565790000000  0.7200100000000  0.4433330000000 1.0
END
