TITL C-1525613-7943-5277 -0.112762280470232 3375 -8928.09734589453 0 0 60 (D5) n - 1
REM
REM in /home/nfs/bkarasulu/CARBON/AIRSS/Generating-Clusters/ReaxFF-fromJPCA2015/Units_Real/Try2-Higher-symm/Only-C60
REM
REM
REM
REM
REM
REM ./C.cell (863b2abdce7293c0672fb3ba77bf323a)
REM AIRSS Version 0.9.1 bugfix July 2018 build 013d7b7c2542+ Fri, 06 Jul 2018 19:26:36 +0100
REM compiler GCC version 9.2.1 20190827 (Red Hat 9.2.1-1)
REM options -cpp -mtune=generic -march=x86-64 -g -O0 -fpre-include=/usr/include/finclude/math-vector-fortran.h
REM seed 151568718 39302193 -1371609603 -315324605 -344998872 -564856849 1898032093 -1588669113 -64193502 -1447443235 1928199552 744347304 -1323676557 -309033285 720580650 495702266 -1318898853 -1230401538 1625805448 75944754 -922121099 -2002925938 1908621186 -324609889 572581420 108964437 409889607 -58845435 2051774095 1072922891 1633206981 972393087 2092571550
REM
CELL 1.54180   15.00000   15.00000   15.00000   90.00000   90.00000   90.00000
LATT -1
SFAC C  
C      1  0.3966350000000  0.6851090000000  0.6267410000000 1.0
C      1  0.5886650000000  0.6850870000000  0.6376930000000 1.0
C      1  0.6580090000000  0.6850950000000  0.4580650000000 1.0
C      1  0.5091090000000  0.6850930000000  0.3365590000000 1.0
C      1  0.3474690000000  0.6849770000000  0.4408250000000 1.0
C      1  0.3966350000000  0.3148910000000  0.3732590000000 1.0
C      1  0.5886650000000  0.3149130000000  0.3623070000000 1.0
C      1  0.6580090000000  0.3149050000000  0.5419350000000 1.0
C      1  0.5091090000000  0.3149070000000  0.6634410000000 1.0
C      1  0.3474690000000  0.3150230000000  0.5591750000000 1.0
C      1  0.5485470000000  0.5434150000000  0.7124750000000 1.0
C      1  0.7171060000000  0.5434660000000  0.5195090000000 1.0
C      1  0.5856060000000  0.5435560000000  0.2994560000000 1.0
C      1  0.3358090000000  0.5434820000000  0.3566690000000 1.0
C      1  0.3128600000000  0.5434540000000  0.6116700000000 1.0
C      1  0.5485470000000  0.4565850000000  0.2875250000000 1.0
C      1  0.7171060000000  0.4565340000000  0.4804910000000 1.0
C      1  0.5856060000000  0.4564440000000  0.7005440000000 1.0
C      1  0.3358090000000  0.4565180000000  0.6433310000000 1.0
C      1  0.3128600000000  0.4565460000000  0.3883300000000 1.0
C      1  0.5882950000000  0.3322330000000  0.6084550000000 1.0
C      1  0.6305040000000  0.3321870000000  0.4495790000000 1.0
C      1  0.4922580000000  0.3323020000000  0.3604850000000 1.0
C      1  0.3650790000000  0.3322950000000  0.4643200000000 1.0
C      1  0.4241660000000  0.3322610000000  0.6175830000000 1.0
C      1  0.5882950000000  0.6677670000000  0.3915450000000 1.0
C      1  0.6305040000000  0.6678130000000  0.5504210000000 1.0
C      1  0.4922580000000  0.6676980000000  0.6395150000000 1.0
C      1  0.3650790000000  0.6677050000000  0.5356800000000 1.0
C      1  0.4241660000000  0.6677390000000  0.3824170000000 1.0
C      1  0.5512530000000  0.5886520000000  0.4383260000000 1.0
C      1  0.4572550000000  0.5885950000000  0.4321730000000 1.0
C      1  0.4224660000000  0.5885220000000  0.5196050000000 1.0
C      1  0.4947810000000  0.5886120000000  0.5799090000000 1.0
C      1  0.5743650000000  0.5884890000000  0.5295370000000 1.0
C      1  0.5512530000000  0.4113480000000  0.5616740000000 1.0
C      1  0.4572550000000  0.4114050000000  0.5678270000000 1.0
C      1  0.4224660000000  0.4114780000000  0.4803950000000 1.0
C      1  0.4947810000000  0.4113880000000  0.4200910000000 1.0
C      1  0.5743650000000  0.4115110000000  0.4704630000000 1.0
C      1  0.6666940000000  0.5445260000000  0.3613520000000 1.0
C      1  0.4194430000000  0.5445960000000  0.2985540000000 1.0
C      1  0.2835530000000  0.5445030000000  0.5143380000000 1.0
C      1  0.4466080000000  0.5443690000000  0.7102040000000 1.0
C      1  0.6834890000000  0.5443940000000  0.6154960000000 1.0
C      1  0.6666940000000  0.4554740000000  0.6386480000000 1.0
C      1  0.4194430000000  0.4554040000000  0.7014460000000 1.0
C      1  0.2835530000000  0.4554970000000  0.4856620000000 1.0
C      1  0.4466080000000  0.4556310000000  0.2897960000000 1.0
C      1  0.6834890000000  0.4556060000000  0.3845040000000 1.0
C      1  0.3021440000000  0.5993680000000  0.4308810000000 1.0
C      1  0.3731320000000  0.5993480000000  0.6666380000000 1.0
C      1  0.6195230000000  0.5993140000000  0.6722260000000 1.0
C      1  0.7006650000000  0.5994860000000  0.4396270000000 1.0
C      1  0.5045130000000  0.5995520000000  0.2902630000000 1.0
C      1  0.3021440000000  0.4006320000000  0.5691190000000 1.0
C      1  0.3731320000000  0.4006520000000  0.3333620000000 1.0
C      1  0.6195230000000  0.4006860000000  0.3277740000000 1.0
C      1  0.7006650000000  0.4005140000000  0.5603730000000 1.0
C      1  0.5045130000000  0.4004480000000  0.7097370000000 1.0
END
