TITL C-1525613-7943-4156 -0.051868246104782 3375 -8517.03839140444 0 0 60 (C2) n - 1
REM
REM in /home/nfs/bkarasulu/CARBON/AIRSS/Generating-Clusters/ReaxFF-fromJPCA2015/Units_Real/Try2-Higher-symm/Only-C60
REM
REM
REM
REM
REM
REM ./C.cell (863b2abdce7293c0672fb3ba77bf323a)
REM AIRSS Version 0.9.1 bugfix July 2018 build 013d7b7c2542+ Fri, 06 Jul 2018 19:26:36 +0100
REM compiler GCC version 9.2.1 20190827 (Red Hat 9.2.1-1)
REM options -cpp -mtune=generic -march=x86-64 -g -O0 -fpre-include=/usr/include/finclude/math-vector-fortran.h
REM seed 2007464316 -1546481085 -1741342539 -126411784 -591655018 -1197964297 910090352 1627715485 902901619 1009101105 -444015324 1185250225 -1225508286 -1926301564 -730600099 945550667 378396495 1363773917 55085289 1962547012 1287159399 975255471 -670009952 557629359 -1798360546 149444043 -1806264446 -1108361225 -479806137 354494043 -95475811 1595422819 688586955
REM
CELL 1.54180   15.00000   15.00000   15.00000   90.00000   90.00000   90.00000
LATT -1
SFAC C  
C      1  0.2768890000000  0.6156820000000  0.4078380000000 1.0
C      1  0.2526070000000  0.4624630000000  0.4098160000000 1.0
C      1  0.3209060000000  0.3233320000000  0.4069140000000 1.0
C      1  0.4587010000000  0.2516360000000  0.4069730000000 1.0
C      1  0.6120920000000  0.2762410000000  0.4094980000000 1.0
C      1  0.7231150000000  0.3843220000000  0.4078320000000 1.0
C      1  0.7473920000000  0.5375390000000  0.4098180000000 1.0
C      1  0.6790930000000  0.6766680000000  0.4069160000000 1.0
C      1  0.5412970000000  0.7483630000000  0.4069710000000 1.0
C      1  0.3879060000000  0.7237530000000  0.4095070000000 1.0
C      1  0.5168140000000  0.3658960000000  0.5375580000000 1.0
C      1  0.5816410000000  0.4120970000000  0.5549410000000 1.0
C      1  0.6307270000000  0.4774340000000  0.5437960000000 1.0
C      1  0.6178420000000  0.5596980000000  0.5423650000000 1.0
C      1  0.5628830000000  0.6189060000000  0.5398130000000 1.0
C      1  0.4831740000000  0.6341290000000  0.5375560000000 1.0
C      1  0.4183350000000  0.5878840000000  0.5549480000000 1.0
C      1  0.3692630000000  0.5225790000000  0.5437940000000 1.0
C      1  0.3821660000000  0.4402900000000  0.5423770000000 1.0
C      1  0.4371320000000  0.3811020000000  0.5398290000000 1.0
C      1  0.7444380000000  0.3732050000000  0.5038510000000 1.0
C      1  0.7709330000000  0.5414330000000  0.5059120000000 1.0
C      1  0.6973360000000  0.6952480000000  0.5024450000000 1.0
C      1  0.5465020000000  0.7736890000000  0.5023070000000 1.0
C      1  0.3773000000000  0.7439270000000  0.5056970000000 1.0
C      1  0.2555710000000  0.6268060000000  0.5038470000000 1.0
C      1  0.2290630000000  0.4585660000000  0.5059080000000 1.0
C      1  0.3026640000000  0.3047540000000  0.5024490000000 1.0
C      1  0.4534900000000  0.2263160000000  0.5023080000000 1.0
C      1  0.6226950000000  0.2560620000000  0.5056940000000 1.0
C      1  0.6933230000000  0.5968570000000  0.3771330000000 1.0
C      1  0.5995920000000  0.6922600000000  0.3760990000000 1.0
C      1  0.4676490000000  0.7141060000000  0.3770080000000 1.0
C      1  0.3481230000000  0.6539590000000  0.3772050000000 1.0
C      1  0.2864310000000  0.5353480000000  0.3773720000000 1.0
C      1  0.3066800000000  0.4031420000000  0.3771300000000 1.0
C      1  0.4004070000000  0.3077390000000  0.3760990000000 1.0
C      1  0.5323500000000  0.2858930000000  0.3770050000000 1.0
C      1  0.6518760000000  0.3460420000000  0.3772040000000 1.0
C      1  0.7135670000000  0.4646520000000  0.3773710000000 1.0
C      1  0.5923620000000  0.6733860000000  0.6142170000000 1.0
C      1  0.4797380000000  0.6928310000000  0.6153450000000 1.0
C      1  0.3594580000000  0.6285740000000  0.6189310000000 1.0
C      1  0.3076130000000  0.5398150000000  0.6189340000000 1.0
C      1  0.3315010000000  0.4044560000000  0.6169890000000 1.0
C      1  0.4076610000000  0.3266080000000  0.6142290000000 1.0
C      1  0.5202260000000  0.3071900000000  0.6153080000000 1.0
C      1  0.6405510000000  0.3714450000000  0.6189490000000 1.0
C      1  0.6923960000000  0.4601830000000  0.6189450000000 1.0
C      1  0.6685160000000  0.5955360000000  0.6170140000000 1.0
C      1  0.5382180000000  0.2370420000000  0.5515160000000 1.0
C      1  0.6852010000000  0.3133120000000  0.5505820000000 1.0
C      1  0.7635170000000  0.4562140000000  0.5509660000000 1.0
C      1  0.7367790000000  0.6202000000000  0.5517620000000 1.0
C      1  0.6250240000000  0.7406240000000  0.5461980000000 1.0
C      1  0.4617840000000  0.7629400000000  0.5515010000000 1.0
C      1  0.3148180000000  0.6866650000000  0.5505830000000 1.0
C      1  0.2364730000000  0.5437900000000  0.5509680000000 1.0
C      1  0.2632220000000  0.3797990000000  0.5517680000000 1.0
C      1  0.3749750000000  0.2593720000000  0.5461940000000 1.0
END
