TITL C-1525613-7943-1310 -0.343340146758075 3375 -9022.81403266641 0 0 60 (C1) n - 1
REM
REM in /home/nfs/bkarasulu/CARBON/AIRSS/Generating-Clusters/ReaxFF-fromJPCA2015/Units_Real/Try2-Higher-symm/Only-C60
REM
REM
REM
REM
REM
REM ./C.cell (863b2abdce7293c0672fb3ba77bf323a)
REM AIRSS Version 0.9.1 bugfix July 2018 build 013d7b7c2542+ Fri, 06 Jul 2018 19:26:36 +0100
REM compiler GCC version 9.2.1 20190827 (Red Hat 9.2.1-1)
REM options -cpp -mtune=generic -march=x86-64 -g -O0 -fpre-include=/usr/include/finclude/math-vector-fortran.h
REM seed 148450289 -595474683 56750085 -372251783 -709103268 -743571922 -441224199 28623360 -2054302252 -1970935064 -1449493624 1786485097 104614549 -1916667190 -2109981519 -1586270708 -1475390143 1379447367 1115316067 1586926275 -1102949210 425556533 -1350356234 317722573 -693039087 736978294 349690347 -2143307308 1802987834 -969271040 -1676374868 2103135846 865626792
REM
CELL 1.54180   15.00000   15.00000   15.00000   90.00000   90.00000   90.00000
LATT -1
SFAC C  
C      1  0.3134480000000  0.4518120000000  0.3881080000000 1.0
C      1  0.3337500000000  0.4534230000000  0.6424840000000 1.0
C      1  0.5843260000000  0.4526100000000  0.6986040000000 1.0
C      1  0.7153180000000  0.4513860000000  0.4805630000000 1.0
C      1  0.5472520000000  0.4508300000000  0.2876090000000 1.0
C      1  0.3133880000000  0.5519050000000  0.3879860000000 1.0
C      1  0.3333050000000  0.5523390000000  0.6418750000000 1.0
C      1  0.5824870000000  0.5519260000000  0.6982350000000 1.0
C      1  0.7150580000000  0.5507570000000  0.4810910000000 1.0
C      1  0.5478860000000  0.5509910000000  0.2884730000000 1.0
C      1  0.6481040000000  0.2968890000000  0.4320320000000 1.0
C      1  0.4869840000000  0.2958740000000  0.3460060000000 1.0
C      1  0.3495310000000  0.2953820000000  0.4655100000000 1.0
C      1  0.4115370000000  0.2967220000000  0.6372900000000 1.0
C      1  0.6002200000000  0.2954280000000  0.6168180000000 1.0
C      1  0.6488040000000  0.7028630000000  0.4314220000000 1.0
C      1  0.4865500000000  0.7041670000000  0.3449410000000 1.0
C      1  0.3484140000000  0.7048810000000  0.4656920000000 1.0
C      1  0.4115950000000  0.7045910000000  0.6387610000000 1.0
C      1  0.6010490000000  0.7056120000000  0.6160680000000 1.0
C      1  0.4573200000000  0.4212290000000  0.4300970000000 1.0
C      1  0.4212550000000  0.4179210000000  0.5189640000000 1.0
C      1  0.4946380000000  0.4150210000000  0.5801290000000 1.0
C      1  0.5754250000000  0.4178410000000  0.5282380000000 1.0
C      1  0.5529570000000  0.4211690000000  0.4353810000000 1.0
C      1  0.4574930000000  0.5754140000000  0.4335320000000 1.0
C      1  0.4248370000000  0.5773820000000  0.5198900000000 1.0
C      1  0.4969980000000  0.5791170000000  0.5773660000000 1.0
C      1  0.5742820000000  0.5770580000000  0.5263420000000 1.0
C      1  0.5499430000000  0.5748510000000  0.4372630000000 1.0
C      1  0.4732570000000  0.6120860000000  0.2973470000000 1.0
C      1  0.2987280000000  0.6127650000000  0.4616470000000 1.0
C      1  0.3992880000000  0.6116280000000  0.6809450000000 1.0
C      1  0.6371090000000  0.6146110000000  0.6469570000000 1.0
C      1  0.6852450000000  0.6094500000000  0.4095100000000 1.0
C      1  0.4725470000000  0.3886150000000  0.2977690000000 1.0
C      1  0.2998020000000  0.3897260000000  0.4619970000000 1.0
C      1  0.4009420000000  0.3917950000000  0.6781110000000 1.0
C      1  0.6375680000000  0.3876250000000  0.6466540000000 1.0
C      1  0.6837240000000  0.3914380000000  0.4094720000000 1.0
C      1  0.6652550000000  0.4271800000000  0.5620580000000 1.0
C      1  0.6105240000000  0.4304000000000  0.3595930000000 1.0
C      1  0.4022570000000  0.4286020000000  0.3509640000000 1.0
C      1  0.3290630000000  0.4200500000000  0.5491140000000 1.0
C      1  0.4942960000000  0.4192430000000  0.6766980000000 1.0
C      1  0.6628530000000  0.5730110000000  0.5628070000000 1.0
C      1  0.6092350000000  0.5716280000000  0.3633420000000 1.0
C      1  0.4043670000000  0.5735970000000  0.3532990000000 1.0
C      1  0.3314180000000  0.5744770000000  0.5444700000000 1.0
C      1  0.4894790000000  0.5757450000000  0.6731680000000 1.0
C      1  0.3930790000000  0.7236980000000  0.5476370000000 1.0
C      1  0.5061110000000  0.7322000000000  0.6299050000000 1.0
C      1  0.6273650000000  0.7312780000000  0.5240060000000 1.0
C      1  0.5617730000000  0.7232620000000  0.4004610000000 1.0
C      1  0.4268590000000  0.7270760000000  0.4158810000000 1.0
C      1  0.3923240000000  0.2752330000000  0.5474610000000 1.0
C      1  0.5055200000000  0.2674020000000  0.6305170000000 1.0
C      1  0.6268590000000  0.2700560000000  0.5249980000000 1.0
C      1  0.5620400000000  0.2763340000000  0.4004210000000 1.0
C      1  0.4269590000000  0.2723970000000  0.4160230000000 1.0
END
