TITL C-1525613-7943-1616 -0.0038278433206487 3375 -9111.86862358805 0 0 60 (C1) n - 1
REM
REM in /home/nfs/bkarasulu/CARBON/AIRSS/Generating-Clusters/ReaxFF-fromJPCA2015/Units_Real/Try2-Higher-symm/Only-C60
REM
REM
REM
REM
REM
REM ./C.cell (863b2abdce7293c0672fb3ba77bf323a)
REM AIRSS Version 0.9.1 bugfix July 2018 build 013d7b7c2542+ Fri, 06 Jul 2018 19:26:36 +0100
REM compiler GCC version 9.2.1 20190827 (Red Hat 9.2.1-1)
REM options -cpp -mtune=generic -march=x86-64 -g -O0 -fpre-include=/usr/include/finclude/math-vector-fortran.h
REM seed -2032091711 -1711774885 -1767692501 1191400385 -712742669 1869686319 1480085231 -1065008486 -1963945669 1048256838 37745067 -98694395 -2057950299 -58394101 1724226821 -500614815 1564736521 -1997087374 -2126092122 -1819508206 375667085 844336840 1333125743 -1563636749 -1845806508 -688311975 -1857396866 -413887070 760760606 -1566009666 302267961 358079747 -1128168165
REM
CELL 1.54180   15.00000   15.00000   15.00000   90.00000   90.00000   90.00000
LATT -1
SFAC C  
C      1  0.2718700000000  0.4403530000000  0.6006960000000 1.0
C      1  0.2957960000000  0.3585200000000  0.5631470000000 1.0
C      1  0.2777000000000  0.3881020000000  0.4773760000000 1.0
C      1  0.2969340000000  0.3988150000000  0.3878250000000 1.0
C      1  0.2989980000000  0.4898760000000  0.3466810000000 1.0
C      1  0.2777780000000  0.5612770000000  0.4001800000000 1.0
C      1  0.2870840000000  0.6447400000000  0.4390540000000 1.0
C      1  0.2812390000000  0.6143860000000  0.5247860000000 1.0
C      1  0.3055280000000  0.6017540000000  0.6135750000000 1.0
C      1  0.2946730000000  0.5111420000000  0.6549960000000 1.0
C      1  0.3766680000000  0.4626380000000  0.6954610000000 1.0
C      1  0.4261910000000  0.3907770000000  0.6427260000000 1.0
C      1  0.3981140000000  0.3195240000000  0.5750690000000 1.0
C      1  0.4148330000000  0.2978270000000  0.4739350000000 1.0
C      1  0.3793820000000  0.3380980000000  0.3852360000000 1.0
C      1  0.3809430000000  0.5337070000000  0.3005420000000 1.0
C      1  0.4194420000000  0.6204590000000  0.3371630000000 1.0
C      1  0.3922120000000  0.6831370000000  0.4332230000000 1.0
C      1  0.4300920000000  0.6808100000000  0.5320050000000 1.0
C      1  0.3996100000000  0.6387160000000  0.6131860000000 1.0
C      1  0.4599430000000  0.5053470000000  0.2636780000000 1.0
C      1  0.4967200000000  0.6374270000000  0.2985780000000 1.0
C      1  0.4687410000000  0.7316070000000  0.4053110000000 1.0
C      1  0.4829100000000  0.7449310000000  0.5848640000000 1.0
C      1  0.4631630000000  0.6941070000000  0.6668130000000 1.0
C      1  0.4539000000000  0.4932590000000  0.7328030000000 1.0
C      1  0.4805550000000  0.3268070000000  0.6927780000000 1.0
C      1  0.4720240000000  0.2617500000000  0.6223980000000 1.0
C      1  0.4921820000000  0.2603290000000  0.4498500000000 1.0
C      1  0.4552710000000  0.3398220000000  0.3337370000000 1.0
C      1  0.6623900000000  0.3450590000000  0.5072540000000 1.0
C      1  0.6622250000000  0.3700940000000  0.4123180000000 1.0
C      1  0.6531450000000  0.4473650000000  0.3538260000000 1.0
C      1  0.6645000000000  0.5442050000000  0.3446680000000 1.0
C      1  0.6673470000000  0.6265160000000  0.3992920000000 1.0
C      1  0.6601340000000  0.6568210000000  0.4917650000000 1.0
C      1  0.6673380000000  0.6324760000000  0.5857060000000 1.0
C      1  0.6512940000000  0.5564240000000  0.6442990000000 1.0
C      1  0.6588050000000  0.4594890000000  0.6519920000000 1.0
C      1  0.6702730000000  0.3783960000000  0.5979460000000 1.0
C      1  0.5963420000000  0.4160280000000  0.2809790000000 1.0
C      1  0.6186580000000  0.5643440000000  0.2621670000000 1.0
C      1  0.6244550000000  0.6955140000000  0.3474230000000 1.0
C      1  0.6101560000000  0.7390750000000  0.4886340000000 1.0
C      1  0.6185070000000  0.7033930000000  0.6309280000000 1.0
C      1  0.5905620000000  0.5847570000000  0.7147580000000 1.0
C      1  0.6050270000000  0.4366750000000  0.7295570000000 1.0
C      1  0.6249010000000  0.3086590000000  0.6501940000000 1.0
C      1  0.6170260000000  0.2579040000000  0.5145590000000 1.0
C      1  0.6139560000000  0.3018700000000  0.3619390000000 1.0
C      1  0.5732710000000  0.3461790000000  0.7230630000000 1.0
C      1  0.5667950000000  0.2499570000000  0.5984090000000 1.0
C      1  0.5788330000000  0.2349890000000  0.4259460000000 1.0
C      1  0.5435990000000  0.3343250000000  0.2991490000000 1.0
C      1  0.5517220000000  0.4944570000000  0.2397390000000 1.0
C      1  0.5841270000000  0.6562360000000  0.2673930000000 1.0
C      1  0.5628420000000  0.7504970000000  0.4026680000000 1.0
C      1  0.5743100000000  0.7571500000000  0.5706580000000 1.0
C      1  0.5542890000000  0.6717020000000  0.6966390000000 1.0
C      1  0.5426710000000  0.5093980000000  0.7584610000000 1.0
END
