TITL C-1525613-7943-2489 -0.102122851586535 3375 -9283.70568385781 0 0 60 (C2) n - 1
REM
REM in /home/nfs/bkarasulu/CARBON/AIRSS/Generating-Clusters/ReaxFF-fromJPCA2015/Units_Real/Try2-Higher-symm/Only-C60
REM
REM
REM
REM
REM
REM ./C.cell (863b2abdce7293c0672fb3ba77bf323a)
REM AIRSS Version 0.9.1 bugfix July 2018 build 013d7b7c2542+ Fri, 06 Jul 2018 19:26:36 +0100
REM compiler GCC version 9.2.1 20190827 (Red Hat 9.2.1-1)
REM options -cpp -mtune=generic -march=x86-64 -g -O0 -fpre-include=/usr/include/finclude/math-vector-fortran.h
REM seed 940212201 -1148327709 -149761720 -1529293537 -1099963433 -1526907679 -875631414 -883337464 -1281473151 -477225193 313097443 -834950407 -1358880042 1276045797 -329356627 -1391497776 -116993045 1273181669 -2031564118 1194742739 -1249397518 1601630852 -1610034485 -1533791460 42832783 101127977 -1102710496 1793075025 508239407 215713576 -1928716533 -1819467670 1311674816
REM
CELL 1.54180   15.00000   15.00000   15.00000   90.00000   90.00000   90.00000
LATT -1
SFAC C  
C      1  0.4505120000000  0.4729800000000  0.7644040000000 1.0
C      1  0.6137590000000  0.4891180000000  0.7294530000000 1.0
C      1  0.7453980000000  0.4644390000000  0.6321180000000 1.0
C      1  0.7753190000000  0.4638190000000  0.4661930000000 1.0
C      1  0.6874640000000  0.4885410000000  0.3265170000000 1.0
C      1  0.5494050000000  0.4725840000000  0.2355280000000 1.0
C      1  0.3863570000000  0.4891690000000  0.2707200000000 1.0
C      1  0.2543620000000  0.4644150000000  0.3682420000000 1.0
C      1  0.2245560000000  0.4636240000000  0.5339920000000 1.0
C      1  0.3120640000000  0.4888120000000  0.6734010000000 1.0
C      1  0.4687340000000  0.5300000000000  0.2349080000000 1.0
C      1  0.3133030000000  0.5304960000000  0.3238360000000 1.0
C      1  0.2166850000000  0.5097570000000  0.4473090000000 1.0
C      1  0.2623370000000  0.5297430000000  0.5975990000000 1.0
C      1  0.3752510000000  0.5304390000000  0.7369900000000 1.0
C      1  0.5313540000000  0.5301170000000  0.7652900000000 1.0
C      1  0.6870050000000  0.5307090000000  0.6768720000000 1.0
C      1  0.7830940000000  0.5096680000000  0.5529770000000 1.0
C      1  0.7371260000000  0.5293770000000  0.4025740000000 1.0
C      1  0.6246060000000  0.5302670000000  0.2627350000000 1.0
C      1  0.6313170000000  0.6690410000000  0.4336360000000 1.0
C      1  0.5775210000000  0.6762200000000  0.3478880000000 1.0
C      1  0.4824010000000  0.6761480000000  0.3302270000000 1.0
C      1  0.4013800000000  0.6688520000000  0.3910970000000 1.0
C      1  0.3948410000000  0.6754840000000  0.4807410000000 1.0
C      1  0.3682720000000  0.6686250000000  0.5664990000000 1.0
C      1  0.4225740000000  0.6761920000000  0.6519660000000 1.0
C      1  0.5177630000000  0.6763220000000  0.6696230000000 1.0
C      1  0.5988230000000  0.6690060000000  0.6090690000000 1.0
C      1  0.6051190000000  0.6752690000000  0.5193940000000 1.0
C      1  0.7114190000000  0.6088380000000  0.4515300000000 1.0
C      1  0.5944870000000  0.6225020000000  0.2659840000000 1.0
C      1  0.4959300000000  0.6225250000000  0.2479270000000 1.0
C      1  0.3200500000000  0.6094010000000  0.3786180000000 1.0
C      1  0.2594210000000  0.5959540000000  0.4552940000000 1.0
C      1  0.2882190000000  0.6088480000000  0.5487210000000 1.0
C      1  0.4057420000000  0.6226120000000  0.7337770000000 1.0
C      1  0.5043520000000  0.6223960000000  0.7518270000000 1.0
C      1  0.6801850000000  0.6094460000000  0.6213390000000 1.0
C      1  0.7411030000000  0.5959070000000  0.5450570000000 1.0
C      1  0.5451080000000  0.3817150000000  0.2680450000000 1.0
C      1  0.4133780000000  0.4069610000000  0.3085020000000 1.0
C      1  0.2929630000000  0.3790330000000  0.3886040000000 1.0
C      1  0.2648820000000  0.3765670000000  0.5258630000000 1.0
C      1  0.3469250000000  0.4080060000000  0.6402180000000 1.0
C      1  0.4547980000000  0.3820110000000  0.7321480000000 1.0
C      1  0.5865250000000  0.4071920000000  0.6911740000000 1.0
C      1  0.7068080000000  0.3792150000000  0.6111060000000 1.0
C      1  0.7354650000000  0.3764210000000  0.4738350000000 1.0
C      1  0.6537200000000  0.4070970000000  0.3598570000000 1.0
C      1  0.5218790000000  0.3166780000000  0.3315250000000 1.0
C      1  0.4244710000000  0.3338340000000  0.3570200000000 1.0
C      1  0.3465570000000  0.3147520000000  0.4286460000000 1.0
C      1  0.3342720000000  0.3147720000000  0.5286600000000 1.0
C      1  0.3885680000000  0.3339310000000  0.6169320000000 1.0
C      1  0.4778750000000  0.3170500000000  0.6684070000000 1.0
C      1  0.5753260000000  0.3341750000000  0.6427410000000 1.0
C      1  0.6532990000000  0.3150320000000  0.5710120000000 1.0
C      1  0.6659440000000  0.3147220000000  0.4711090000000 1.0
C      1  0.6116240000000  0.3331740000000  0.3827250000000 1.0
END
