TITL C-1525613-7943-7433 0.256744585544799 3375 -8943.84919777337 0 0 60 (C1) n - 1
REM
REM in /home/nfs/bkarasulu/CARBON/AIRSS/Generating-Clusters/ReaxFF-fromJPCA2015/Units_Real/Try2-Higher-symm/Only-C60
REM
REM
REM
REM
REM
REM ./C.cell (863b2abdce7293c0672fb3ba77bf323a)
REM AIRSS Version 0.9.1 bugfix July 2018 build 013d7b7c2542+ Fri, 06 Jul 2018 19:26:36 +0100
REM compiler GCC version 9.2.1 20190827 (Red Hat 9.2.1-1)
REM options -cpp -mtune=generic -march=x86-64 -g -O0 -fpre-include=/usr/include/finclude/math-vector-fortran.h
REM seed -651595173 879942361 2120277145 -360144324 -1877662689 1137756298 1499928358 2042069542 -2009044043 -1103707226 -282644470 -1080941836 2081671974 721862302 -342179775 1899024025 1674428089 1310305540 -1612320936 243412482 -982468644 -572567376 -788961921 -111275084 -1907205386 -616479407 528615981 2004957504 -1061239902 888016942 -1430231291 -474435914 -571635084
REM
CELL 1.54180   15.00000   15.00000   15.00000   90.00000   90.00000   90.00000
LATT -1
SFAC C  
C      1  0.4553020000000  0.7236330000000  0.3353570000000 1.0
C      1  0.3294800000000  0.7219160000000  0.4914340000000 1.0
C      1  0.4382510000000  0.7228320000000  0.6598290000000 1.0
C      1  0.6326300000000  0.7242780000000  0.6079220000000 1.0
C      1  0.6428260000000  0.7244740000000  0.4076300000000 1.0
C      1  0.4552840000000  0.2765340000000  0.6646890000000 1.0
C      1  0.3292100000000  0.2774780000000  0.5084130000000 1.0
C      1  0.4376330000000  0.2764810000000  0.3402530000000 1.0
C      1  0.6320770000000  0.2759650000000  0.3926570000000 1.0
C      1  0.6428780000000  0.2761550000000  0.5929180000000 1.0
C      1  0.3171280000000  0.3362600000000  0.5860500000000 1.0
C      1  0.5248240000000  0.3348510000000  0.7020890000000 1.0
C      1  0.6994430000000  0.3358490000000  0.5393830000000 1.0
C      1  0.5985250000000  0.3340920000000  0.3211930000000 1.0
C      1  0.3623470000000  0.3385100000000  0.3502450000000 1.0
C      1  0.3177760000000  0.6627800000000  0.4139370000000 1.0
C      1  0.5251770000000  0.6661490000000  0.2975220000000 1.0
C      1  0.6998170000000  0.6658900000000  0.4622060000000 1.0
C      1  0.5989340000000  0.6654970000000  0.6787680000000 1.0
C      1  0.3626640000000  0.6611560000000  0.6500260000000 1.0
C      1  0.5868110000000  0.4225450000000  0.3654500000000 1.0
C      1  0.3981560000000  0.4293770000000  0.3736170000000 1.0
C      1  0.3502730000000  0.4248960000000  0.5568130000000 1.0
C      1  0.5076900000000  0.4228180000000  0.6587550000000 1.0
C      1  0.6547520000000  0.4249350000000  0.5413040000000 1.0
C      1  0.5876830000000  0.5773040000000  0.6336590000000 1.0
C      1  0.3990410000000  0.5707350000000  0.6261390000000 1.0
C      1  0.3516600000000  0.5746840000000  0.4433620000000 1.0
C      1  0.5082750000000  0.5780270000000  0.3404100000000 1.0
C      1  0.6549250000000  0.5772080000000  0.4580790000000 1.0
C      1  0.5689890000000  0.2337100000000  0.5450890000000 1.0
C      1  0.5635790000000  0.2335270000000  0.4474620000000 1.0
C      1  0.4691790000000  0.2335690000000  0.4218820000000 1.0
C      1  0.4161190000000  0.2339110000000  0.5039650000000 1.0
C      1  0.4777850000000  0.2334370000000  0.5800180000000 1.0
C      1  0.5687890000000  0.7667500000000  0.4551410000000 1.0
C      1  0.5638340000000  0.7665350000000  0.5528920000000 1.0
C      1  0.4694390000000  0.7663890000000  0.5781880000000 1.0
C      1  0.4160880000000  0.7658430000000  0.4961010000000 1.0
C      1  0.4775870000000  0.7665760000000  0.4199710000000 1.0
C      1  0.6012490000000  0.5776860000000  0.3754070000000 1.0
C      1  0.4126280000000  0.5709200000000  0.3642150000000 1.0
C      1  0.3463790000000  0.5743910000000  0.5413970000000 1.0
C      1  0.4918630000000  0.5768420000000  0.6595390000000 1.0
C      1  0.6501370000000  0.5753990000000  0.5574420000000 1.0
C      1  0.6005920000000  0.4230970000000  0.6236690000000 1.0
C      1  0.4119030000000  0.4285610000000  0.6352910000000 1.0
C      1  0.3458380000000  0.4253210000000  0.4586790000000 1.0
C      1  0.4909290000000  0.4222520000000  0.3400570000000 1.0
C      1  0.6489210000000  0.4231650000000  0.4420540000000 1.0
C      1  0.5033600000000  0.3340990000000  0.2956180000000 1.0
C      1  0.3091630000000  0.3370140000000  0.4328700000000 1.0
C      1  0.3787670000000  0.3378140000000  0.6627280000000 1.0
C      1  0.6167840000000  0.3348630000000  0.6670290000000 1.0
C      1  0.6941770000000  0.3347690000000  0.4410860000000 1.0
C      1  0.5038740000000  0.6649350000000  0.7042620000000 1.0
C      1  0.3097350000000  0.6626300000000  0.5671250000000 1.0
C      1  0.3792300000000  0.6617510000000  0.3373080000000 1.0
C      1  0.6171240000000  0.6663290000000  0.3329190000000 1.0
C      1  0.6944870000000  0.6646050000000  0.5604810000000 1.0
END
