TITL C-1525613-7943-1593 0.031033878049158 3375 -9108.21379017956 0 0 60 (C1) n - 1
REM
REM in /home/nfs/bkarasulu/CARBON/AIRSS/Generating-Clusters/ReaxFF-fromJPCA2015/Units_Real/Try2-Higher-symm/Only-C60
REM
REM
REM
REM
REM
REM ./C.cell (863b2abdce7293c0672fb3ba77bf323a)
REM AIRSS Version 0.9.1 bugfix July 2018 build 013d7b7c2542+ Fri, 06 Jul 2018 19:26:36 +0100
REM compiler GCC version 9.2.1 20190827 (Red Hat 9.2.1-1)
REM options -cpp -mtune=generic -march=x86-64 -g -O0 -fpre-include=/usr/include/finclude/math-vector-fortran.h
REM seed 896574679 -357270122 -26436784 1531102276 -16016749 15184940 1952433202 -1403353598 -468596844 1910027478 249488201 1295269087 -52553503 2143444116 1177045108 715226620 190078485 -1548836629 344792377 2127337670 -82946587 -1658015236 535836188 1236197663 -907045526 715423752 163630050 -1980850641 -1209883811 2061901830 1063033145 787669755 -1778915513
REM
CELL 1.54180   15.00000   15.00000   15.00000   90.00000   90.00000   90.00000
LATT -1
SFAC C  
C      1  0.2998810000000  0.3929710000000  0.6319450000000 1.0
C      1  0.3079490000000  0.3705970000000  0.4585020000000 1.0
C      1  0.2915700000000  0.4924710000000  0.3418650000000 1.0
C      1  0.2580280000000  0.6323180000000  0.4482890000000 1.0
C      1  0.2731480000000  0.5636140000000  0.6044920000000 1.0
C      1  0.3006020000000  0.3939840000000  0.3685990000000 1.0
C      1  0.3077460000000  0.3701270000000  0.5419090000000 1.0
C      1  0.2900800000000  0.4914270000000  0.6587850000000 1.0
C      1  0.2571050000000  0.6320090000000  0.5530520000000 1.0
C      1  0.2743430000000  0.5642980000000  0.3965250000000 1.0
C      1  0.3591540000000  0.4757770000000  0.7301910000000 1.0
C      1  0.3645930000000  0.2445470000000  0.5506590000000 1.0
C      1  0.3618810000000  0.3798850000000  0.2918200000000 1.0
C      1  0.3843470000000  0.6900500000000  0.3442510000000 1.0
C      1  0.2944070000000  0.7036910000000  0.6162860000000 1.0
C      1  0.3597120000000  0.4760760000000  0.2696660000000 1.0
C      1  0.3645610000000  0.2448370000000  0.4492860000000 1.0
C      1  0.3617220000000  0.3795060000000  0.7083700000000 1.0
C      1  0.3843010000000  0.6907180000000  0.6556390000000 1.0
C      1  0.2954900000000  0.7043730000000  0.3855480000000 1.0
C      1  0.5368450000000  0.5366510000000  0.2861550000000 1.0
C      1  0.5945470000000  0.7732820000000  0.4501730000000 1.0
C      1  0.5440410000000  0.6266330000000  0.6762770000000 1.0
C      1  0.5389750000000  0.3346980000000  0.6738730000000 1.0
C      1  0.5439700000000  0.2717960000000  0.3996260000000 1.0
C      1  0.5363120000000  0.5371980000000  0.7134800000000 1.0
C      1  0.5946580000000  0.7734910000000  0.5492180000000 1.0
C      1  0.5440060000000  0.6258860000000  0.3238700000000 1.0
C      1  0.5391570000000  0.3347620000000  0.3257970000000 1.0
C      1  0.5439650000000  0.2716150000000  0.6001390000000 1.0
C      1  0.6200410000000  0.3864650000000  0.6920560000000 1.0
C      1  0.6280580000000  0.2699490000000  0.4506240000000 1.0
C      1  0.6190460000000  0.4823860000000  0.2860460000000 1.0
C      1  0.6649970000000  0.7220920000000  0.4047210000000 1.0
C      1  0.6368130000000  0.6542090000000  0.6599220000000 1.0
C      1  0.6204680000000  0.3861670000000  0.3074660000000 1.0
C      1  0.6280460000000  0.2699910000000  0.5491490000000 1.0
C      1  0.6183630000000  0.4827140000000  0.7134300000000 1.0
C      1  0.6650380000000  0.7225940000000  0.5951320000000 1.0
C      1  0.6367700000000  0.6534970000000  0.3401850000000 1.0
C      1  0.7008230000000  0.5893660000000  0.6198890000000 1.0
C      1  0.6932340000000  0.4019060000000  0.6267300000000 1.0
C      1  0.6956050000000  0.3424240000000  0.4498850000000 1.0
C      1  0.6950840000000  0.4978720000000  0.3477790000000 1.0
C      1  0.7224750000000  0.6551340000000  0.4511980000000 1.0
C      1  0.7003360000000  0.5885820000000  0.3807450000000 1.0
C      1  0.6937450000000  0.4014290000000  0.3727500000000 1.0
C      1  0.6954580000000  0.3426080000000  0.5498320000000 1.0
C      1  0.6943650000000  0.4983580000000  0.6517320000000 1.0
C      1  0.7226460000000  0.6555300000000  0.5489830000000 1.0
C      1  0.4586030000000  0.4795140000000  0.7254730000000 1.0
C      1  0.4697710000000  0.2370820000000  0.5475920000000 1.0
C      1  0.4612170000000  0.3819520000000  0.2912450000000 1.0
C      1  0.4765890000000  0.6758220000000  0.3750030000000 1.0
C      1  0.5044430000000  0.7339060000000  0.5496780000000 1.0
C      1  0.4591930000000  0.4791290000000  0.2729810000000 1.0
C      1  0.4697180000000  0.2373470000000  0.4521520000000 1.0
C      1  0.4610350000000  0.3822370000000  0.7079350000000 1.0
C      1  0.4766090000000  0.6767740000000  0.6253110000000 1.0
C      1  0.5043110000000  0.7336820000000  0.4500900000000 1.0
END
