TITL C-1525613-7943-2259 0.146449481556083 3375 -8895.52106625413 0 0 60 (C1) n - 1
REM
REM in /home/nfs/bkarasulu/CARBON/AIRSS/Generating-Clusters/ReaxFF-fromJPCA2015/Units_Real/Try2-Higher-symm/Only-C60
REM
REM
REM
REM
REM
REM ./C.cell (863b2abdce7293c0672fb3ba77bf323a)
REM AIRSS Version 0.9.1 bugfix July 2018 build 013d7b7c2542+ Fri, 06 Jul 2018 19:26:36 +0100
REM compiler GCC version 9.2.1 20190827 (Red Hat 9.2.1-1)
REM options -cpp -mtune=generic -march=x86-64 -g -O0 -fpre-include=/usr/include/finclude/math-vector-fortran.h
REM seed -992333578 -1965635554 31217208 1773845805 1416806145 -1171955342 1797188189 2030175155 1833425550 1414715324 -847718685 860631783 -384104116 -310971399 1222912005 741477083 1281995323 -2053123102 -300759686 1107664959 -720830491 1243411205 -1597576917 128168887 -1874816151 -2137807209 -1051957519 50612453 1312437486 1806086863 -916523164 1389271122 -1377817198
REM
CELL 1.54180   15.00000   15.00000   15.00000   90.00000   90.00000   90.00000
LATT -1
SFAC C  
C      1  0.3980110000000  0.4203260000000  0.3075950000000 1.0
C      1  0.5998990000000  0.3233380000000  0.3913410000000 1.0
C      1  0.4023100000000  0.2974090000000  0.5140340000000 1.0
C      1  0.6035460000000  0.3392730000000  0.6366310000000 1.0
C      1  0.4002950000000  0.4518870000000  0.6991600000000 1.0
C      1  0.6022070000000  0.5790650000000  0.6928090000000 1.0
C      1  0.4000210000000  0.6780480000000  0.6091500000000 1.0
C      1  0.5987760000000  0.7041970000000  0.4855090000000 1.0
C      1  0.3962140000000  0.6605400000000  0.3625340000000 1.0
C      1  0.5998400000000  0.5472790000000  0.3002310000000 1.0
C      1  0.5453030000000  0.2923780000000  0.5682900000000 1.0
C      1  0.4584260000000  0.3731510000000  0.6758340000000 1.0
C      1  0.5442910000000  0.4998740000000  0.7161840000000 1.0
C      1  0.4576250000000  0.6291220000000  0.6771790000000 1.0
C      1  0.5422190000000  0.7079160000000  0.5684660000000 1.0
C      1  0.4549110000000  0.7064620000000  0.4316360000000 1.0
C      1  0.5412740000000  0.6257590000000  0.3242280000000 1.0
C      1  0.4552480000000  0.4991490000000  0.2824210000000 1.0
C      1  0.5423580000000  0.3699800000000  0.3217400000000 1.0
C      1  0.4584340000000  0.2905760000000  0.4307910000000 1.0
C      1  0.4348450000000  0.4244200000000  0.4743280000000 1.0
C      1  0.5824540000000  0.4231030000000  0.5318970000000 1.0
C      1  0.4244020000000  0.4576440000000  0.5642460000000 1.0
C      1  0.5827300000000  0.5006870000000  0.5838830000000 1.0
C      1  0.4238570000000  0.5526340000000  0.5597690000000 1.0
C      1  0.5767500000000  0.5747270000000  0.5244050000000 1.0
C      1  0.4166000000000  0.5779070000000  0.4685850000000 1.0
C      1  0.5759520000000  0.5420390000000  0.4355080000000 1.0
C      1  0.4166510000000  0.4996040000000  0.4169610000000 1.0
C      1  0.5647510000000  0.4460670000000  0.4408970000000 1.0
C      1  0.4515230000000  0.5977130000000  0.3083530000000 1.0
C      1  0.5445310000000  0.4655340000000  0.2879710000000 1.0
C      1  0.4530310000000  0.3465160000000  0.3456270000000 1.0
C      1  0.5471190000000  0.2856030000000  0.4668860000000 1.0
C      1  0.4562480000000  0.3091070000000  0.5975360000000 1.0
C      1  0.5486890000000  0.4014330000000  0.6913100000000 1.0
C      1  0.4552940000000  0.5339760000000  0.7121000000000 1.0
C      1  0.5470120000000  0.6524940000000  0.6540680000000 1.0
C      1  0.4531900000000  0.7138670000000  0.5335310000000 1.0
C      1  0.5440230000000  0.6900420000000  0.4033270000000 1.0
C      1  0.2627140000000  0.4678910000000  0.5747240000000 1.0
C      1  0.7400960000000  0.5165320000000  0.5832190000000 1.0
C      1  0.2636010000000  0.5633400000000  0.5539760000000 1.0
C      1  0.7366760000000  0.5813900000000  0.5101010000000 1.0
C      1  0.2600370000000  0.5730640000000  0.4565560000000 1.0
C      1  0.7366680000000  0.5329110000000  0.4252590000000 1.0
C      1  0.2600080000000  0.4832460000000  0.4173960000000 1.0
C      1  0.7341380000000  0.4373130000000  0.4459420000000 1.0
C      1  0.2658030000000  0.4184620000000  0.4903980000000 1.0
C      1  0.7396410000000  0.4271750000000  0.5433170000000 1.0
C      1  0.6557600000000  0.6356010000000  0.5252470000000 1.0
C      1  0.3372260000000  0.6296420000000  0.4343060000000 1.0
C      1  0.6554600000000  0.5633710000000  0.3790430000000 1.0
C      1  0.3382360000000  0.4795210000000  0.3579330000000 1.0
C      1  0.6510180000000  0.4043850000000  0.4049250000000 1.0
C      1  0.3493070000000  0.3683080000000  0.4747280000000 1.0
C      1  0.6619440000000  0.3713870000000  0.5650070000000 1.0
C      1  0.3445810000000  0.4368240000000  0.6201670000000 1.0
C      1  0.6618990000000  0.5201750000000  0.6424280000000 1.0
C      1  0.3443240000000  0.5986140000000  0.5983770000000 1.0
END
