TITL C-1525613-7943-6456 0.0165821332971264 3375 -9154.64753006961 0 0 60 (Cs) n - 1
REM
REM in /home/nfs/bkarasulu/CARBON/AIRSS/Generating-Clusters/ReaxFF-fromJPCA2015/Units_Real/Try2-Higher-symm/Only-C60
REM
REM
REM
REM
REM
REM ./C.cell (863b2abdce7293c0672fb3ba77bf323a)
REM AIRSS Version 0.9.1 bugfix July 2018 build 013d7b7c2542+ Fri, 06 Jul 2018 19:26:36 +0100
REM compiler GCC version 9.2.1 20190827 (Red Hat 9.2.1-1)
REM options -cpp -mtune=generic -march=x86-64 -g -O0 -fpre-include=/usr/include/finclude/math-vector-fortran.h
REM seed -465612673 -2070447958 1725387525 -256052419 1440714799 312096389 -115020220 -563667868 1906206285 178729284 -2030602293 265851841 2094530872 -93576585 -335173425 715210901 138650174 989318004 1576147088 889192483 2046951871 -2043339027 668042971 -1616289207 331012125 499991406 2051592661 -133363344 1829086465 -431017104 -1833297595 86605278 2080014126
REM
CELL 1.54180   15.00000   15.00000   15.00000   90.00000   90.00000   90.00000
LATT -1
SFAC C  
C      1  0.2596350000000  0.4739870000000  0.4622800000000 1.0
C      1  0.4010970000000  0.7188700000000  0.4627530000000 1.0
C      1  0.6769200000000  0.6622450000000  0.4622840000000 1.0
C      1  0.7106860000000  0.3813990000000  0.4620700000000 1.0
C      1  0.4513340000000  0.2641820000000  0.4618540000000 1.0
C      1  0.7403660000000  0.4739870000000  0.4622780000000 1.0
C      1  0.5989030000000  0.7188700000000  0.4627520000000 1.0
C      1  0.3230800000000  0.6622450000000  0.4622860000000 1.0
C      1  0.2893130000000  0.3813990000000  0.4620710000000 1.0
C      1  0.5486650000000  0.2641820000000  0.4618530000000 1.0
C      1  0.4528910000000  0.7334630000000  0.3814660000000 1.0
C      1  0.7060170000000  0.6171920000000  0.3807750000000 1.0
C      1  0.6752680000000  0.3403390000000  0.3805690000000 1.0
C      1  0.4011940000000  0.2851230000000  0.3804380000000 1.0
C      1  0.2640380000000  0.5277660000000  0.3807010000000 1.0
C      1  0.5471070000000  0.7334630000000  0.3814640000000 1.0
C      1  0.2939820000000  0.6171920000000  0.3807780000000 1.0
C      1  0.3247300000000  0.3403390000000  0.3805710000000 1.0
C      1  0.5988040000000  0.2851240000000  0.3804370000000 1.0
C      1  0.7359620000000  0.5277650000000  0.3806990000000 1.0
C      1  0.7087790000000  0.2983130000000  0.2904160000000 1.0
C      1  0.3716200000000  0.2401880000000  0.2903100000000 1.0
C      1  0.2125640000000  0.5427080000000  0.2904790000000 1.0
C      1  0.4503910000000  0.7863670000000  0.2909290000000 1.0
C      1  0.7558380000000  0.6367820000000  0.2906310000000 1.0
C      1  0.2912200000000  0.2983130000000  0.2904160000000 1.0
C      1  0.6283780000000  0.2401870000000  0.2903100000000 1.0
C      1  0.7874350000000  0.5427080000000  0.2904760000000 1.0
C      1  0.5496070000000  0.7863670000000  0.2909280000000 1.0
C      1  0.2441600000000  0.6367820000000  0.2906340000000 1.0
C      1  0.2660280000000  0.5263470000000  0.5436550000000 1.0
C      1  0.4523860000000  0.7270460000000  0.5438820000000 1.0
C      1  0.7019340000000  0.6168260000000  0.5432820000000 1.0
C      1  0.6758280000000  0.3417560000000  0.5438160000000 1.0
C      1  0.4029630000000  0.2848220000000  0.5437160000000 1.0
C      1  0.7339720000000  0.5263470000000  0.5436540000000 1.0
C      1  0.5476150000000  0.7270460000000  0.5438820000000 1.0
C      1  0.2980670000000  0.6168250000000  0.5432830000000 1.0
C      1  0.3241720000000  0.3417550000000  0.5438180000000 1.0
C      1  0.5970370000000  0.2848220000000  0.5437140000000 1.0
C      1  0.5481210000000  0.6504250000000  0.6935800000000 1.0
C      1  0.6593410000000  0.5011120000000  0.6971160000000 1.0
C      1  0.5497180000000  0.3501580000000  0.6968800000000 1.0
C      1  0.3715000000000  0.4068020000000  0.6971580000000 1.0
C      1  0.3719510000000  0.5925320000000  0.6939000000000 1.0
C      1  0.4518820000000  0.6504240000000  0.6935810000000 1.0
C      1  0.3406610000000  0.5011110000000  0.6971180000000 1.0
C      1  0.4502830000000  0.3501570000000  0.6968810000000 1.0
C      1  0.6285000000000  0.4068030000000  0.6971560000000 1.0
C      1  0.6280530000000  0.5925320000000  0.6938990000000 1.0
C      1  0.3023100000000  0.3850470000000  0.6289880000000 1.0
C      1  0.3345030000000  0.6493730000000  0.6242110000000 1.0
C      1  0.5900230000000  0.7028610000000  0.6242340000000 1.0
C      1  0.7274550000000  0.4785030000000  0.6287130000000 1.0
C      1  0.5490610000000  0.2774680000000  0.6289140000000 1.0
C      1  0.6976890000000  0.3850470000000  0.6289860000000 1.0
C      1  0.6655000000000  0.6493730000000  0.6242090000000 1.0
C      1  0.4099780000000  0.7028600000000  0.6242350000000 1.0
C      1  0.2725450000000  0.4785020000000  0.6287140000000 1.0
C      1  0.4509390000000  0.2774680000000  0.6289150000000 1.0
END
