TITL C-1525613-7943-6498 -0.0711188909077056 3375 -9068.97796514089 0 0 60 (C2) n - 1
REM
REM in /home/nfs/bkarasulu/CARBON/AIRSS/Generating-Clusters/ReaxFF-fromJPCA2015/Units_Real/Try2-Higher-symm/Only-C60
REM
REM
REM
REM
REM
REM ./C.cell (863b2abdce7293c0672fb3ba77bf323a)
REM AIRSS Version 0.9.1 bugfix July 2018 build 013d7b7c2542+ Fri, 06 Jul 2018 19:26:36 +0100
REM compiler GCC version 9.2.1 20190827 (Red Hat 9.2.1-1)
REM options -cpp -mtune=generic -march=x86-64 -g -O0 -fpre-include=/usr/include/finclude/math-vector-fortran.h
REM seed 286013517 -1833465562 -1308267020 -1363103090 1898353438 823249561 -589144596 -1919926971 1567704088 877720549 -2046789441 -571400914 -752319197 862837291 1519794233 -738302574 1370297125 1607346056 -399255099 -524655025 -197094105 172345056 1009593514 54583172 -1428115782 913321354 -154873798 1767037709 1885510713 344788745 1209875056 -1020348343 1299147549
REM
CELL 1.54180   15.00000   15.00000   15.00000   90.00000   90.00000   90.00000
LATT -1
SFAC C  
C      1  0.5866390000000  0.6268890000000  0.4423550000000 1.0
C      1  0.4947770000000  0.6576760000000  0.4332150000000 1.0
C      1  0.4051860000000  0.6201560000000  0.4438550000000 1.0
C      1  0.3470650000000  0.5432630000000  0.4269690000000 1.0
C      1  0.3502500000000  0.4457540000000  0.4263440000000 1.0
C      1  0.4133530000000  0.3731140000000  0.4423550000000 1.0
C      1  0.5052190000000  0.3423230000000  0.4332160000000 1.0
C      1  0.5948130000000  0.3798460000000  0.4438550000000 1.0
C      1  0.6529290000000  0.4567360000000  0.4269700000000 1.0
C      1  0.6497420000000  0.5542450000000  0.4263400000000 1.0
C      1  0.5717220000000  0.7572610000000  0.5381140000000 1.0
C      1  0.4091320000000  0.7554260000000  0.5347120000000 1.0
C      1  0.2836830000000  0.6314380000000  0.5467670000000 1.0
C      1  0.2246060000000  0.4903400000000  0.5157730000000 1.0
C      1  0.2914320000000  0.3519370000000  0.5434350000000 1.0
C      1  0.4282800000000  0.2427480000000  0.5381060000000 1.0
C      1  0.5908620000000  0.2445750000000  0.5347020000000 1.0
C      1  0.7163080000000  0.3685630000000  0.5467570000000 1.0
C      1  0.7753890000000  0.5096610000000  0.5157680000000 1.0
C      1  0.7085580000000  0.6480620000000  0.5434270000000 1.0
C      1  0.3759270000000  0.5834510000000  0.6916970000000 1.0
C      1  0.3864900000000  0.4903080000000  0.6952420000000 1.0
C      1  0.3778300000000  0.4027900000000  0.6850310000000 1.0
C      1  0.4596950000000  0.3323910000000  0.6878000000000 1.0
C      1  0.5454160000000  0.3617650000000  0.6862180000000 1.0
C      1  0.6240730000000  0.4165450000000  0.6916920000000 1.0
C      1  0.6135090000000  0.5096900000000  0.6952390000000 1.0
C      1  0.6221650000000  0.5972110000000  0.6850320000000 1.0
C      1  0.5403030000000  0.6676150000000  0.6877950000000 1.0
C      1  0.4545850000000  0.6382340000000  0.6862190000000 1.0
C      1  0.5947660000000  0.4076310000000  0.2302230000000 1.0
C      1  0.6461450000000  0.4676190000000  0.2290230000000 1.0
C      1  0.6248390000000  0.5435050000000  0.2298520000000 1.0
C      1  0.5817000000000  0.6261970000000  0.2312960000000 1.0
C      1  0.4789810000000  0.6490070000000  0.2318290000000 1.0
C      1  0.4052610000000  0.5923680000000  0.2302130000000 1.0
C      1  0.3538820000000  0.5323790000000  0.2290230000000 1.0
C      1  0.3751810000000  0.4565030000000  0.2298600000000 1.0
C      1  0.4183180000000  0.3737960000000  0.2312940000000 1.0
C      1  0.5210300000000  0.3510000000000  0.2318320000000 1.0
C      1  0.3672750000000  0.3088340000000  0.5008470000000 1.0
C      1  0.5076770000000  0.2568190000000  0.4823900000000 1.0
C      1  0.6457790000000  0.3196820000000  0.5012930000000 1.0
C      1  0.7354650000000  0.4317510000000  0.4743030000000 1.0
C      1  0.7308790000000  0.5846110000000  0.4731640000000 1.0
C      1  0.6327300000000  0.6911540000000  0.5008450000000 1.0
C      1  0.4923080000000  0.7431810000000  0.4823940000000 1.0
C      1  0.3542110000000  0.6803170000000  0.5012970000000 1.0
C      1  0.2645260000000  0.5682560000000  0.4743110000000 1.0
C      1  0.2691160000000  0.4153940000000  0.4731640000000 1.0
C      1  0.7045780000000  0.4226850000000  0.6277780000000 1.0
C      1  0.7441730000000  0.5090160000000  0.6093060000000 1.0
C      1  0.7025170000000  0.5964530000000  0.6276920000000 1.0
C      1  0.5471010000000  0.7539540000000  0.6347200000000 1.0
C      1  0.4544820000000  0.7540440000000  0.6187690000000 1.0
C      1  0.2954190000000  0.5773170000000  0.6277870000000 1.0
C      1  0.2558250000000  0.4909790000000  0.6093130000000 1.0
C      1  0.2974830000000  0.4035480000000  0.6277000000000 1.0
C      1  0.4528870000000  0.2460400000000  0.6347140000000 1.0
C      1  0.5455260000000  0.2459470000000  0.6187710000000 1.0
END
