TITL C-1525613-7943-1751 -0.0388478868968702 3375 -8912.54314059747 0 0 60 (C2) n - 1
REM
REM in /home/nfs/bkarasulu/CARBON/AIRSS/Generating-Clusters/ReaxFF-fromJPCA2015/Units_Real/Try2-Higher-symm/Only-C60
REM
REM
REM
REM
REM
REM ./C.cell (863b2abdce7293c0672fb3ba77bf323a)
REM AIRSS Version 0.9.1 bugfix July 2018 build 013d7b7c2542+ Fri, 06 Jul 2018 19:26:36 +0100
REM compiler GCC version 9.2.1 20190827 (Red Hat 9.2.1-1)
REM options -cpp -mtune=generic -march=x86-64 -g -O0 -fpre-include=/usr/include/finclude/math-vector-fortran.h
REM seed -1137375513 146005186 703001977 -980151380 859632814 1825572214 -354677845 -1754510491 -991438442 -1297731396 503601591 -745672752 -1194787179 434524987 770771674 1233650893 1770526398 246648067 1228498917 -729334927 882140747 -537608193 1392813876 -1574352625 -198829148 1184204954 1029320800 -976726269 -899240816 278484372 -1896761470 1014017835 -508095107
REM
CELL 1.54180   15.00000   15.00000   15.00000   90.00000   90.00000   90.00000
LATT -1
SFAC C  
C      1  0.4368300000000  0.4208540000000  0.4512290000000 1.0
C      1  0.4323480000000  0.4231240000000  0.5421430000000 1.0
C      1  0.5201930000000  0.4444930000000  0.5806090000000 1.0
C      1  0.5817010000000  0.4478790000000  0.5001350000000 1.0
C      1  0.5222140000000  0.4411910000000  0.4206640000000 1.0
C      1  0.4368300000000  0.5791460000000  0.5487710000000 1.0
C      1  0.4323480000000  0.5768760000000  0.4578570000000 1.0
C      1  0.5201930000000  0.5555070000000  0.4193910000000 1.0
C      1  0.5817010000000  0.5521210000000  0.4998650000000 1.0
C      1  0.5222140000000  0.5588090000000  0.5793360000000 1.0
C      1  0.3729450000000  0.6276290000000  0.5990980000000 1.0
C      1  0.5538730000000  0.6216660000000  0.6513920000000 1.0
C      1  0.6608790000000  0.6206800000000  0.4951950000000 1.0
C      1  0.5448470000000  0.6233200000000  0.3445160000000 1.0
C      1  0.3646660000000  0.6302200000000  0.4085270000000 1.0
C      1  0.3729450000000  0.3723710000000  0.4009020000000 1.0
C      1  0.5538730000000  0.3783340000000  0.3486080000000 1.0
C      1  0.6608790000000  0.3793200000000  0.5048050000000 1.0
C      1  0.5448470000000  0.3766800000000  0.6554840000000 1.0
C      1  0.3646660000000  0.3697800000000  0.5914730000000 1.0
C      1  0.4260420000000  0.7181200000000  0.4492640000000 1.0
C      1  0.4303010000000  0.7172570000000  0.5556210000000 1.0
C      1  0.5322480000000  0.7097210000000  0.5850450000000 1.0
C      1  0.5914150000000  0.7069100000000  0.4964620000000 1.0
C      1  0.5256350000000  0.7093950000000  0.4126390000000 1.0
C      1  0.4260420000000  0.2818800000000  0.5507360000000 1.0
C      1  0.4303010000000  0.2827430000000  0.4443790000000 1.0
C      1  0.5322480000000  0.2902790000000  0.4149550000000 1.0
C      1  0.5914150000000  0.2930900000000  0.5035380000000 1.0
C      1  0.5256350000000  0.2906050000000  0.5873610000000 1.0
C      1  0.3915960000000  0.4130680000000  0.3061590000000 1.0
C      1  0.2806160000000  0.4123050000000  0.5425950000000 1.0
C      1  0.4726760000000  0.4123050000000  0.7227630000000 1.0
C      1  0.7031570000000  0.4131410000000  0.5941810000000 1.0
C      1  0.6510800000000  0.4133950000000  0.3360990000000 1.0
C      1  0.3915960000000  0.5869320000000  0.6938410000000 1.0
C      1  0.2806160000000  0.5876950000000  0.4574050000000 1.0
C      1  0.4726760000000  0.5876950000000  0.2772370000000 1.0
C      1  0.7031570000000  0.5868590000000  0.4058190000000 1.0
C      1  0.6510800000000  0.5866050000000  0.6639010000000 1.0
C      1  0.3626400000000  0.5030500000000  0.3001880000000 1.0
C      1  0.2666340000000  0.5023600000000  0.5681110000000 1.0
C      1  0.4900990000000  0.5023590000000  0.7470910000000 1.0
C      1  0.7324800000000  0.5029520000000  0.5857400000000 1.0
C      1  0.6514110000000  0.5032080000000  0.3056160000000 1.0
C      1  0.3626400000000  0.4969500000000  0.6998120000000 1.0
C      1  0.2666340000000  0.4976400000000  0.4318890000000 1.0
C      1  0.4900990000000  0.4976410000000  0.2529090000000 1.0
C      1  0.7324800000000  0.4970480000000  0.4142600000000 1.0
C      1  0.6514110000000  0.4967920000000  0.6943840000000 1.0
C      1  0.3800580000000  0.5937980000000  0.3131090000000 1.0
C      1  0.2857760000000  0.5930950000000  0.5560750000000 1.0
C      1  0.4866240000000  0.5927750000000  0.7228560000000 1.0
C      1  0.7076500000000  0.5930410000000  0.5817890000000 1.0
C      1  0.6413650000000  0.5934940000000  0.3275840000000 1.0
C      1  0.3800580000000  0.4062020000000  0.6868910000000 1.0
C      1  0.2857760000000  0.4069050000000  0.4439250000000 1.0
C      1  0.4866240000000  0.4072250000000  0.2771440000000 1.0
C      1  0.7076500000000  0.4069590000000  0.4182110000000 1.0
C      1  0.6413650000000  0.4065060000000  0.6724160000000 1.0
END
