TITL C-1525613-7943-3814 0.0330335816267839 3375 -9054.51282376537 0 0 60 (C1) n - 1
REM
REM in /home/nfs/bkarasulu/CARBON/AIRSS/Generating-Clusters/ReaxFF-fromJPCA2015/Units_Real/Try2-Higher-symm/Only-C60
REM
REM
REM
REM
REM
REM ./C.cell (863b2abdce7293c0672fb3ba77bf323a)
REM AIRSS Version 0.9.1 bugfix July 2018 build 013d7b7c2542+ Fri, 06 Jul 2018 19:26:36 +0100
REM compiler GCC version 9.2.1 20190827 (Red Hat 9.2.1-1)
REM options -cpp -mtune=generic -march=x86-64 -g -O0 -fpre-include=/usr/include/finclude/math-vector-fortran.h
REM seed -330581041 -132738914 419575571 85325364 93993049 -143166469 2115461312 -900164131 1336543991 -307274193 -677877385 -542476065 -940419530 1050694465 -950169946 -174988514 652669984 201963604 -1286895936 -1734595824 1206335342 636906853 -606531312 493752160 233913727 2089684743 -243588058 837650764 1284972901 697235432 291512512 -1093688460 -114284057
REM
CELL 1.54180   15.00000   15.00000   15.00000   90.00000   90.00000   90.00000
LATT -1
SFAC C  
C      1  0.4017740000000  0.6252660000000  0.6964430000000 1.0
C      1  0.4015790000000  0.4584230000000  0.7482100000000 1.0
C      1  0.4921580000000  0.3147150000000  0.7119250000000 1.0
C      1  0.6031910000000  0.4086330000000  0.7783160000000 1.0
C      1  0.5517720000000  0.5645900000000  0.7588800000000 1.0
C      1  0.4103160000000  0.6198690000000  0.3020500000000 1.0
C      1  0.4015550000000  0.4550640000000  0.2517420000000 1.0
C      1  0.5038120000000  0.3228880000000  0.2923890000000 1.0
C      1  0.6049920000000  0.4364560000000  0.2099980000000 1.0
C      1  0.5632180000000  0.5668970000000  0.2277170000000 1.0
C      1  0.4239740000000  0.3044190000000  0.5496480000000 1.0
C      1  0.6734760000000  0.3765810000000  0.5519320000000 1.0
C      1  0.6836860000000  0.6363380000000  0.5472300000000 1.0
C      1  0.4402790000000  0.7231680000000  0.5466270000000 1.0
C      1  0.2789180000000  0.5158000000000  0.5506810000000 1.0
C      1  0.4230770000000  0.3016570000000  0.4534540000000 1.0
C      1  0.6738110000000  0.3736060000000  0.4515780000000 1.0
C      1  0.6851430000000  0.6360950000000  0.4482360000000 1.0
C      1  0.4404080000000  0.7218680000000  0.4505120000000 1.0
C      1  0.2763580000000  0.5151280000000  0.4505510000000 1.0
C      1  0.3395440000000  0.3548540000000  0.5515650000000 1.0
C      1  0.5969070000000  0.3141850000000  0.5508700000000 1.0
C      1  0.7172130000000  0.5419230000000  0.5480250000000 1.0
C      1  0.5388760000000  0.7331410000000  0.5484780000000 1.0
C      1  0.3037770000000  0.6113740000000  0.5475310000000 1.0
C      1  0.3385310000000  0.3525250000000  0.4510530000000 1.0
C      1  0.5974230000000  0.3115370000000  0.4546070000000 1.0
C      1  0.7183820000000  0.5419310000000  0.4494730000000 1.0
C      1  0.5393460000000  0.7317590000000  0.4484260000000 1.0
C      1  0.3035410000000  0.6099430000000  0.4508210000000 1.0
C      1  0.3916340000000  0.5386100000000  0.2636560000000 1.0
C      1  0.4373040000000  0.3777350000000  0.2564650000000 1.0
C      1  0.5701860000000  0.3657270000000  0.2440370000000 1.0
C      1  0.6105110000000  0.5178500000000  0.1890080000000 1.0
C      1  0.5050060000000  0.6115330000000  0.2878730000000 1.0
C      1  0.3891860000000  0.5421790000000  0.7336160000000 1.0
C      1  0.4348080000000  0.3783020000000  0.7483200000000 1.0
C      1  0.5596980000000  0.3392790000000  0.7705180000000 1.0
C      1  0.6107470000000  0.4967000000000  0.7493000000000 1.0
C      1  0.4980050000000  0.6241160000000  0.7120840000000 1.0
C      1  0.4593070000000  0.5732720000000  0.5571150000000 1.0
C      1  0.4333790000000  0.4815000000000  0.5902260000000 1.0
C      1  0.5113930000000  0.4332100000000  0.6112410000000 1.0
C      1  0.5882750000000  0.4917080000000  0.6390860000000 1.0
C      1  0.5425580000000  0.5908550000000  0.6169040000000 1.0
C      1  0.4553520000000  0.5715510000000  0.4471750000000 1.0
C      1  0.4276750000000  0.4805600000000  0.4165740000000 1.0
C      1  0.5076250000000  0.4298350000000  0.4044780000000 1.0
C      1  0.5808910000000  0.4887760000000  0.3914620000000 1.0
C      1  0.5443020000000  0.5850910000000  0.3860120000000 1.0
C      1  0.3884480000000  0.6458370000000  0.5951440000000 1.0
C      1  0.3418390000000  0.4478270000000  0.5834200000000 1.0
C      1  0.5080510000000  0.3324290000000  0.6066920000000 1.0
C      1  0.6709330000000  0.4671340000000  0.5898290000000 1.0
C      1  0.5990180000000  0.6649120000000  0.5863400000000 1.0
C      1  0.3902970000000  0.6424740000000  0.4042820000000 1.0
C      1  0.3374590000000  0.4451200000000  0.4178470000000 1.0
C      1  0.5087100000000  0.3270320000000  0.3993240000000 1.0
C      1  0.6708410000000  0.4644180000000  0.4113330000000 1.0
C      1  0.5995240000000  0.6637960000000  0.4116710000000 1.0
END
