TITL C-1525613-7943-3617 -0.113497002367618 3375 -8683.2065889672 0 0 60 (C1) n - 1
REM
REM in /home/nfs/bkarasulu/CARBON/AIRSS/Generating-Clusters/ReaxFF-fromJPCA2015/Units_Real/Try2-Higher-symm/Only-C60
REM
REM
REM
REM
REM
REM ./C.cell (863b2abdce7293c0672fb3ba77bf323a)
REM AIRSS Version 0.9.1 bugfix July 2018 build 013d7b7c2542+ Fri, 06 Jul 2018 19:26:36 +0100
REM compiler GCC version 9.2.1 20190827 (Red Hat 9.2.1-1)
REM options -cpp -mtune=generic -march=x86-64 -g -O0 -fpre-include=/usr/include/finclude/math-vector-fortran.h
REM seed -549281686 -1153473499 1631851045 352387951 1254405226 1230265464 -1160939981 -1907933734 358207186 1142014595 -1758906168 1163410228 -337573920 -1478106234 1370808906 -1655767372 -2065656543 -2050673178 -1167365818 -1711942654 -1319745046 -895505057 -1981399459 1259794721 -56846504 -258118234 1440276086 -199996267 -950724917 1066322430 873049336 767703834 -1475007981
REM
CELL 1.54180   15.00000   15.00000   15.00000   90.00000   90.00000   90.00000
LATT -1
SFAC C  
C      1  0.5013570000000  0.5445090000000  0.6388440000000 1.0
C      1  0.5534330000000  0.6063320000000  0.4972680000000 1.0
C      1  0.5029670000000  0.5442860000000  0.3571790000000 1.0
C      1  0.5028580000000  0.3889670000000  0.4168320000000 1.0
C      1  0.5028980000000  0.3859480000000  0.5779160000000 1.0
C      1  0.5007410000000  0.4547370000000  0.6389680000000 1.0
C      1  0.5537360000000  0.3942730000000  0.4973800000000 1.0
C      1  0.5015340000000  0.4548120000000  0.3567230000000 1.0
C      1  0.5023320000000  0.6108960000000  0.4170780000000 1.0
C      1  0.5024060000000  0.6136130000000  0.5778070000000 1.0
C      1  0.5948390000000  0.7189420000000  0.3770270000000 1.0
C      1  0.5893270000000  0.4442070000000  0.2449650000000 1.0
C      1  0.5815380000000  0.2542390000000  0.4788430000000 1.0
C      1  0.5903080000000  0.3968020000000  0.7362920000000 1.0
C      1  0.5962800000000  0.6833770000000  0.6666630000000 1.0
C      1  0.5953740000000  0.2823380000000  0.3770870000000 1.0
C      1  0.5915590000000  0.5506050000000  0.2505470000000 1.0
C      1  0.5819050000000  0.7483900000000  0.4786830000000 1.0
C      1  0.5902190000000  0.6030640000000  0.7364520000000 1.0
C      1  0.5962270000000  0.3164780000000  0.6664740000000 1.0
C      1  0.4900730000000  0.2463240000000  0.5281490000000 1.0
C      1  0.4899740000000  0.4466870000000  0.7377340000000 1.0
C      1  0.4935790000000  0.7065760000000  0.6172480000000 1.0
C      1  0.4957540000000  0.6791540000000  0.3448620000000 1.0
C      1  0.4902120000000  0.4015590000000  0.2733520000000 1.0
C      1  0.4899150000000  0.7535340000000  0.5283110000000 1.0
C      1  0.4899820000000  0.5531690000000  0.7375280000000 1.0
C      1  0.4934550000000  0.2930380000000  0.6171440000000 1.0
C      1  0.4955480000000  0.3201070000000  0.3450200000000 1.0
C      1  0.4926710000000  0.5967070000000  0.2735610000000 1.0
C      1  0.3465820000000  0.3697960000000  0.4065980000000 1.0
C      1  0.3403190000000  0.3698480000000  0.5951760000000 1.0
C      1  0.3404900000000  0.5492560000000  0.6566070000000 1.0
C      1  0.3460660000000  0.6585360000000  0.5013220000000 1.0
C      1  0.3447490000000  0.5501130000000  0.3470360000000 1.0
C      1  0.3460320000000  0.6305400000000  0.4063520000000 1.0
C      1  0.3402450000000  0.6303280000000  0.5951720000000 1.0
C      1  0.3406480000000  0.4508530000000  0.6565460000000 1.0
C      1  0.3460480000000  0.3415460000000  0.5013890000000 1.0
C      1  0.3441850000000  0.4502690000000  0.3472490000000 1.0
C      1  0.6556300000000  0.4474920000000  0.3289320000000 1.0
C      1  0.6381490000000  0.3452020000000  0.4979660000000 1.0
C      1  0.6564160000000  0.4466680000000  0.6684260000000 1.0
C      1  0.6678910000000  0.6367320000000  0.6032460000000 1.0
C      1  0.6655950000000  0.6402930000000  0.3933600000000 1.0
C      1  0.6609590000000  0.5547490000000  0.3311830000000 1.0
C      1  0.6377290000000  0.6553290000000  0.4982300000000 1.0
C      1  0.6566530000000  0.5535200000000  0.6686700000000 1.0
C      1  0.6674550000000  0.3635510000000  0.6029020000000 1.0
C      1  0.6650530000000  0.3622620000000  0.3906560000000 1.0
C      1  0.4066760000000  0.2946260000000  0.3851600000000 1.0
C      1  0.4020380000000  0.3255710000000  0.6570540000000 1.0
C      1  0.4011290000000  0.5986200000000  0.7171240000000 1.0
C      1  0.4077660000000  0.7353630000000  0.4784800000000 1.0
C      1  0.4026870000000  0.5483880000000  0.2677900000000 1.0
C      1  0.4069190000000  0.7049160000000  0.3849020000000 1.0
C      1  0.4020630000000  0.6744210000000  0.6571580000000 1.0
C      1  0.4012740000000  0.4013640000000  0.7169240000000 1.0
C      1  0.4077340000000  0.2645160000000  0.4787810000000 1.0
C      1  0.4018200000000  0.4516620000000  0.2676740000000 1.0
END
