TITL C-1525613-7943-277 -0.108991742295535 3375 -8554.98079301932 0 0 60 (Ci) n - 1
REM
REM in /home/nfs/bkarasulu/CARBON/AIRSS/Generating-Clusters/ReaxFF-fromJPCA2015/Units_Real/Try2-Higher-symm/Only-C60
REM
REM
REM
REM
REM
REM ./C.cell (863b2abdce7293c0672fb3ba77bf323a)
REM AIRSS Version 0.9.1 bugfix July 2018 build 013d7b7c2542+ Fri, 06 Jul 2018 19:26:36 +0100
REM compiler GCC version 9.2.1 20190827 (Red Hat 9.2.1-1)
REM options -cpp -mtune=generic -march=x86-64 -g -O0 -fpre-include=/usr/include/finclude/math-vector-fortran.h
REM seed -1793249681 705305545 -1310289991 -1197145142 1524732022 -974960946 -1769184000 -1764838580 848154313 -1143791153 -15346687 1651172630 -2134321562 -2138443852 -1336430383 -1086914899 -208135881 1668914982 -1456164174 -1174417786 21645543 283292354 1818459949 1889674497 -856247633 -75666798 1908830195 -1116686862 326048972 -1732946103 202805015 -2630758 1041332345
REM
CELL 1.54180   15.00000   15.00000   15.00000   90.00000   90.00000   90.00000
LATT -1
SFAC C  
C      1  0.4559150000000  0.4616810000000  0.7705090000000 1.0
C      1  0.5150260000000  0.4144560000000  0.2917620000000 1.0
C      1  0.5439790000000  0.4488330000000  0.7397060000000 1.0
C      1  0.5935830000000  0.4681300000000  0.2660030000000 1.0
C      1  0.5730100000000  0.5404620000000  0.7165440000000 1.0
C      1  0.5441180000000  0.5387530000000  0.2293960000000 1.0
C      1  0.4848750000000  0.5856710000000  0.7081860000000 1.0
C      1  0.4561280000000  0.5513190000000  0.2604130000000 1.0
C      1  0.4065700000000  0.5319350000000  0.7339130000000 1.0
C      1  0.4268030000000  0.4597480000000  0.2834090000000 1.0
C      1  0.6984330000000  0.6832850000000  0.5421180000000 1.0
C      1  0.5599720000000  0.7748380000000  0.4729330000000 1.0
C      1  0.3898490000000  0.7552780000000  0.5298990000000 1.0
C      1  0.2698800000000  0.6317170000000  0.4828820000000 1.0
C      1  0.2501800000000  0.4660060000000  0.5329980000000 1.0
C      1  0.3016110000000  0.3166100000000  0.4577550000000 1.0
C      1  0.4399670000000  0.2251560000000  0.5270530000000 1.0
C      1  0.6101890000000  0.2446160000000  0.4701230000000 1.0
C      1  0.7300910000000  0.3682930000000  0.5170530000000 1.0
C      1  0.7497000000000  0.5340930000000  0.4670010000000 1.0
C      1  0.3294190000000  0.3235930000000  0.3587960000000 1.0
C      1  0.4623910000000  0.2516210000000  0.6237880000000 1.0
C      1  0.6157030000000  0.2798840000000  0.3721130000000 1.0
C      1  0.7253950000000  0.3894840000000  0.6224310000000 1.0
C      1  0.7270530000000  0.5429300000000  0.3658230000000 1.0
C      1  0.6705160000000  0.6765480000000  0.6413360000000 1.0
C      1  0.5375890000000  0.7483340000000  0.3762940000000 1.0
C      1  0.3843510000000  0.7200410000000  0.6278790000000 1.0
C      1  0.2747030000000  0.6105380000000  0.3775390000000 1.0
C      1  0.2729020000000  0.4571270000000  0.6342040000000 1.0
C      1  0.4430790000000  0.5788710000000  0.3593560000000 1.0
C      1  0.4285990000000  0.5075310000000  0.5868560000000 1.0
C      1  0.4110000000000  0.4729300000000  0.3808140000000 1.0
C      1  0.4672790000000  0.4196690000000  0.5950820000000 1.0
C      1  0.5059870000000  0.4181390000000  0.3936920000000 1.0
C      1  0.5570230000000  0.4208850000000  0.6405400000000 1.0
C      1  0.5714460000000  0.4925040000000  0.4133430000000 1.0
C      1  0.5889420000000  0.5271170000000  0.6191290000000 1.0
C      1  0.5325950000000  0.5800460000000  0.4049890000000 1.0
C      1  0.4938200000000  0.5817040000000  0.6064440000000 1.0
C      1  0.6342460000000  0.7100100000000  0.4720620000000 1.0
C      1  0.4877730000000  0.7543330000000  0.5378440000000 1.0
C      1  0.3447850000000  0.6943540000000  0.4673780000000 1.0
C      1  0.2692220000000  0.5562520000000  0.5388180000000 1.0
C      1  0.2705650000000  0.4088880000000  0.4538200000000 1.0
C      1  0.3657910000000  0.2899450000000  0.5279100000000 1.0
C      1  0.5122610000000  0.2454950000000  0.4622210000000 1.0
C      1  0.6552690000000  0.3055020000000  0.5324830000000 1.0
C      1  0.7307530000000  0.4437630000000  0.4611670000000 1.0
C      1  0.7294280000000  0.5910100000000  0.5460950000000 1.0
C      1  0.3499690000000  0.5203080000000  0.6457870000000 1.0
C      1  0.3232570000000  0.4246290000000  0.3687610000000 1.0
C      1  0.4118560000000  0.3379620000000  0.6037140000000 1.0
C      1  0.5214460000000  0.3104960000000  0.3858480000000 1.0
C      1  0.6354300000000  0.3512890000000  0.6197850000000 1.0
C      1  0.6498840000000  0.4797480000000  0.3543760000000 1.0
C      1  0.6768980000000  0.5753920000000  0.6312290000000 1.0
C      1  0.5882050000000  0.6620630000000  0.3962180000000 1.0
C      1  0.4786170000000  0.6895820000000  0.6142020000000 1.0
C      1  0.3646760000000  0.6485990000000  0.3801770000000 1.0
END
