TITL C-1525613-7943-3363 -0.248606683067437 3375 -8492.96058318397 0 0 60 (C5) n - 1
REM
REM in /home/nfs/bkarasulu/CARBON/AIRSS/Generating-Clusters/ReaxFF-fromJPCA2015/Units_Real/Try2-Higher-symm/Only-C60
REM
REM
REM
REM
REM
REM ./C.cell (863b2abdce7293c0672fb3ba77bf323a)
REM AIRSS Version 0.9.1 bugfix July 2018 build 013d7b7c2542+ Fri, 06 Jul 2018 19:26:36 +0100
REM compiler GCC version 9.2.1 20190827 (Red Hat 9.2.1-1)
REM options -cpp -mtune=generic -march=x86-64 -g -O0 -fpre-include=/usr/include/finclude/math-vector-fortran.h
REM seed -25373267 1250354245 1594409507 -1331342986 -443421173 -1548870534 -1323830430 -478984497 -451328917 736507095 -1449542627 1630732022 -614618718 -1985295617 1318341529 -261556160 1715380166 1480891197 -393867684 1156506141 -68990905 544426438 697699352 -529809843 -58737301 1344322223 -552082940 778845564 508652231 -724007991 1678767334 1334799873 -589915086
REM
CELL 1.54180   15.00000   15.00000   15.00000   90.00000   90.00000   90.00000
LATT -1
SFAC C  
C      1  0.6934000000000  0.5549410000000  0.3504270000000 1.0
C      1  0.6927730000000  0.6569650000000  0.5048560000000 1.0
C      1  0.6950840000000  0.5443120000000  0.6529660000000 1.0
C      1  0.6921510000000  0.3707240000000  0.5869740000000 1.0
C      1  0.6943820000000  0.3755170000000  0.4016340000000 1.0
C      1  0.3050750000000  0.5549410000000  0.3497460000000 1.0
C      1  0.3061480000000  0.6576560000000  0.5046850000000 1.0
C      1  0.3050810000000  0.5446820000000  0.6523180000000 1.0
C      1  0.3073590000000  0.3705620000000  0.5873680000000 1.0
C      1  0.3058480000000  0.3755380000000  0.4015180000000 1.0
C      1  0.3619140000000  0.3688730000000  0.6702620000000 1.0
C      1  0.3619100000000  0.2968970000000  0.4261780000000 1.0
C      1  0.3610810000000  0.5069850000000  0.2829450000000 1.0
C      1  0.3611890000000  0.7072160000000  0.4383270000000 1.0
C      1  0.3603920000000  0.6232130000000  0.6775200000000 1.0
C      1  0.6383390000000  0.3684630000000  0.6702380000000 1.0
C      1  0.6382960000000  0.2967820000000  0.4259110000000 1.0
C      1  0.6383100000000  0.5068570000000  0.2830740000000 1.0
C      1  0.6387700000000  0.7068290000000  0.4378040000000 1.0
C      1  0.6396090000000  0.6228890000000  0.6780700000000 1.0
C      1  0.4486130000000  0.4658110000000  0.2689290000000 1.0
C      1  0.4487830000000  0.7083550000000  0.3947240000000 1.0
C      1  0.4488940000000  0.6639890000000  0.6671020000000 1.0
C      1  0.4492560000000  0.3916330000000  0.7084360000000 1.0
C      1  0.4491110000000  0.2689470000000  0.4608830000000 1.0
C      1  0.5508170000000  0.4659280000000  0.2681230000000 1.0
C      1  0.5510400000000  0.7083280000000  0.3944480000000 1.0
C      1  0.5512350000000  0.6636360000000  0.6674380000000 1.0
C      1  0.5513780000000  0.3920840000000  0.7082770000000 1.0
C      1  0.5512430000000  0.2694900000000  0.4612790000000 1.0
C      1  0.4506660000000  0.3260780000000  0.5398630000000 1.0
C      1  0.4515050000000  0.4098140000000  0.3488990000000 1.0
C      1  0.4508810000000  0.6145820000000  0.3683120000000 1.0
C      1  0.4513630000000  0.6619460000000  0.5697930000000 1.0
C      1  0.4509460000000  0.4842690000000  0.6779370000000 1.0
C      1  0.5486460000000  0.3270240000000  0.5398640000000 1.0
C      1  0.5492950000000  0.4109660000000  0.3487870000000 1.0
C      1  0.5487560000000  0.6143480000000  0.3688570000000 1.0
C      1  0.5493290000000  0.6613060000000  0.5700430000000 1.0
C      1  0.5487910000000  0.4844450000000  0.6770570000000 1.0
C      1  0.3005450000000  0.4437760000000  0.6491360000000 1.0
C      1  0.3009820000000  0.3405380000000  0.4907260000000 1.0
C      1  0.3004780000000  0.4590750000000  0.3446720000000 1.0
C      1  0.2994280000000  0.6347810000000  0.4115180000000 1.0
C      1  0.2987750000000  0.6252520000000  0.6001000000000 1.0
C      1  0.6993720000000  0.4436980000000  0.6491030000000 1.0
C      1  0.6991760000000  0.3400760000000  0.4907240000000 1.0
C      1  0.6990950000000  0.4592270000000  0.3450310000000 1.0
C      1  0.7013350000000  0.6349930000000  0.4115340000000 1.0
C      1  0.7005620000000  0.6246630000000  0.6001370000000 1.0
C      1  0.4229550000000  0.5741550000000  0.5322050000000 1.0
C      1  0.4235570000000  0.4931310000000  0.5826300000000 1.0
C      1  0.4235090000000  0.4200950000000  0.5213640000000 1.0
C      1  0.4235640000000  0.4555210000000  0.4328570000000 1.0
C      1  0.4223280000000  0.5508290000000  0.4394140000000 1.0
C      1  0.5780070000000  0.5741300000000  0.5316280000000 1.0
C      1  0.5765330000000  0.4937640000000  0.5819370000000 1.0
C      1  0.5766630000000  0.4208530000000  0.5209760000000 1.0
C      1  0.5771630000000  0.4565620000000  0.4328080000000 1.0
C      1  0.5783120000000  0.5510590000000  0.4396280000000 1.0
END
