TITL C-1525613-7943-5686 0.0791847621336987 3375 -8923.29328312054 0 0 60 (C2) n - 1
REM
REM in /home/nfs/bkarasulu/CARBON/AIRSS/Generating-Clusters/ReaxFF-fromJPCA2015/Units_Real/Try2-Higher-symm/Only-C60
REM
REM
REM
REM
REM
REM ./C.cell (863b2abdce7293c0672fb3ba77bf323a)
REM AIRSS Version 0.9.1 bugfix July 2018 build 013d7b7c2542+ Fri, 06 Jul 2018 19:26:36 +0100
REM compiler GCC version 9.2.1 20190827 (Red Hat 9.2.1-1)
REM options -cpp -mtune=generic -march=x86-64 -g -O0 -fpre-include=/usr/include/finclude/math-vector-fortran.h
REM seed 1241377544 -2093147608 -1970460085 -2050585277 -698787687 1446654561 -1463695318 1750951006 1431467518 -2030529010 -1585887722 -2004601641 -240588697 2020004122 1345578890 185371698 1512340968 -1111835904 230777182 -414823300 -947524958 -834021852 1355524879 985229886 874143918 -1447483315 1441972556 -577997010 -399710328 -935529265 661752012 1556774669 256261223
REM
CELL 1.54180   15.00000   15.00000   15.00000   90.00000   90.00000   90.00000
LATT -1
SFAC C  
C      1  0.4503860000000  0.4648090000000  0.2589530000000 1.0
C      1  0.4460840000000  0.6154140000000  0.2846400000000 1.0
C      1  0.4499120000000  0.7206760000000  0.3936270000000 1.0
C      1  0.4466360000000  0.7402980000000  0.5452050000000 1.0
C      1  0.4383150000000  0.6677520000000  0.6765250000000 1.0
C      1  0.4504410000000  0.5352720000000  0.7409030000000 1.0
C      1  0.4459970000000  0.3845610000000  0.7154000000000 1.0
C      1  0.4498590000000  0.2793620000000  0.6064420000000 1.0
C      1  0.4467660000000  0.2597830000000  0.4547810000000 1.0
C      1  0.4381660000000  0.3321980000000  0.3233870000000 1.0
C      1  0.3287490000000  0.5282930000000  0.3464770000000 1.0
C      1  0.3283070000000  0.6143170000000  0.3921890000000 1.0
C      1  0.3285430000000  0.6559230000000  0.4800020000000 1.0
C      1  0.3260200000000  0.6386740000000  0.5754680000000 1.0
C      1  0.3264690000000  0.5670390000000  0.6421450000000 1.0
C      1  0.3287410000000  0.4717410000000  0.6535230000000 1.0
C      1  0.3283020000000  0.3856930000000  0.6078490000000 1.0
C      1  0.3285180000000  0.3440890000000  0.5200220000000 1.0
C      1  0.3259400000000  0.3613960000000  0.4245590000000 1.0
C      1  0.3264130000000  0.4330150000000  0.3578960000000 1.0
C      1  0.5271380000000  0.6617610000000  0.4167100000000 1.0
C      1  0.5218830000000  0.6704950000000  0.5365990000000 1.0
C      1  0.4931700000000  0.6151640000000  0.6165120000000 1.0
C      1  0.5257950000000  0.5386970000000  0.6711380000000 1.0
C      1  0.5195390000000  0.4181000000000  0.6575750000000 1.0
C      1  0.5270160000000  0.3381750000000  0.5831700000000 1.0
C      1  0.5221750000000  0.3294140000000  0.4634520000000 1.0
C      1  0.4927820000000  0.3848270000000  0.3835210000000 1.0
C      1  0.5255650000000  0.4616600000000  0.3287500000000 1.0
C      1  0.5194600000000  0.5820590000000  0.3423910000000 1.0
C      1  0.3822450000000  0.2868780000000  0.3887000000000 1.0
C      1  0.3820320000000  0.4000680000000  0.2795050000000 1.0
C      1  0.3887200000000  0.5391920000000  0.2649830000000 1.0
C      1  0.3880810000000  0.6720630000000  0.3373560000000 1.0
C      1  0.3894780000000  0.7344910000000  0.4685700000000 1.0
C      1  0.3821970000000  0.7130090000000  0.6110960000000 1.0
C      1  0.3820400000000  0.5998090000000  0.7204030000000 1.0
C      1  0.3887210000000  0.4608190000000  0.7350070000000 1.0
C      1  0.3881260000000  0.3279630000000  0.6626640000000 1.0
C      1  0.3895710000000  0.2654650000000  0.5314150000000 1.0
C      1  0.6979150000000  0.4644590000000  0.3482870000000 1.0
C      1  0.6928660000000  0.5618810000000  0.3535550000000 1.0
C      1  0.7003430000000  0.6373820000000  0.4174850000000 1.0
C      1  0.6878030000000  0.6487840000000  0.5135860000000 1.0
C      1  0.7233310000000  0.6181240000000  0.6009160000000 1.0
C      1  0.6978510000000  0.5354960000000  0.6516690000000 1.0
C      1  0.6927110000000  0.4380370000000  0.6463550000000 1.0
C      1  0.7002170000000  0.3625020000000  0.5825510000000 1.0
C      1  0.6879710000000  0.3511290000000  0.4864620000000 1.0
C      1  0.7234310000000  0.3820010000000  0.3991980000000 1.0
C      1  0.6463980000000  0.3377120000000  0.3567310000000 1.0
C      1  0.6193020000000  0.4212470000000  0.3138660000000 1.0
C      1  0.6121250000000  0.6046070000000  0.3148720000000 1.0
C      1  0.6182170000000  0.6772590000000  0.3797890000000 1.0
C      1  0.6143970000000  0.6891070000000  0.5586670000000 1.0
C      1  0.6462030000000  0.6622000000000  0.6434170000000 1.0
C      1  0.6195200000000  0.5786800000000  0.6862610000000 1.0
C      1  0.6122560000000  0.3953700000000  0.6850010000000 1.0
C      1  0.6182280000000  0.3226750000000  0.6204690000000 1.0
C      1  0.6146210000000  0.3109320000000  0.4413560000000 1.0
END
