TITL C-1525613-7943-7770 -0.247240650825996 3375 -8706.71727813388 0 0 60 (C5) n - 1
REM
REM in /home/nfs/bkarasulu/CARBON/AIRSS/Generating-Clusters/ReaxFF-fromJPCA2015/Units_Real/Try2-Higher-symm/Only-C60
REM
REM
REM
REM
REM
REM ./C.cell (863b2abdce7293c0672fb3ba77bf323a)
REM AIRSS Version 0.9.1 bugfix July 2018 build 013d7b7c2542+ Fri, 06 Jul 2018 19:26:36 +0100
REM compiler GCC version 9.2.1 20190827 (Red Hat 9.2.1-1)
REM options -cpp -mtune=generic -march=x86-64 -g -O0 -fpre-include=/usr/include/finclude/math-vector-fortran.h
REM seed 2021178664 -349914999 -1923855128 -1429641097 -638156787 -1500920347 383861461 -400440813 222526355 989993885 1363549767 1731751049 -1662921483 -626779662 992103103 253841992 -1745777102 1383274030 -640892941 -811730574 -465314655 1686844165 -1528083008 1420396962 -325521588 -718404459 1329389852 369441177 -425426208 -497759056 -35840942 1801842477 263771119
REM
CELL 1.54180   15.00000   15.00000   15.00000   90.00000   90.00000   90.00000
LATT -1
SFAC C  
C      1  0.4715730000000  0.4423100000000  0.5769110000000 1.0
C      1  0.5643600000000  0.4423010000000  0.5508090000000 1.0
C      1  0.5682040000000  0.4422920000000  0.4544960000000 1.0
C      1  0.4777940000000  0.4423040000000  0.4210700000000 1.0
C      1  0.4180700000000  0.4423060000000  0.4967280000000 1.0
C      1  0.4715730000000  0.5576900000000  0.5769110000000 1.0
C      1  0.5643600000000  0.5576990000000  0.5508090000000 1.0
C      1  0.5682040000000  0.5577080000000  0.4544960000000 1.0
C      1  0.4777940000000  0.5576960000000  0.4210700000000 1.0
C      1  0.4180700000000  0.5576940000000  0.4967280000000 1.0
C      1  0.4740890000000  0.3063820000000  0.5777500000000 1.0
C      1  0.5659370000000  0.3063810000000  0.5486650000000 1.0
C      1  0.5666640000000  0.3063780000000  0.4523240000000 1.0
C      1  0.4752630000000  0.3063820000000  0.4218680000000 1.0
C      1  0.4180470000000  0.3063820000000  0.4993820000000 1.0
C      1  0.4740890000000  0.6936180000000  0.5777500000000 1.0
C      1  0.5659370000000  0.6936190000000  0.5486650000000 1.0
C      1  0.5666640000000  0.6936220000000  0.4523240000000 1.0
C      1  0.4752630000000  0.6936180000000  0.4218680000000 1.0
C      1  0.4180470000000  0.6936180000000  0.4993820000000 1.0
C      1  0.5277290000000  0.3963040000000  0.2826490000000 1.0
C      1  0.3018550000000  0.3963030000000  0.4064670000000 1.0
C      1  0.3498140000000  0.3963030000000  0.6595430000000 1.0
C      1  0.6053250000000  0.3963030000000  0.6921400000000 1.0
C      1  0.7152780000000  0.3963050000000  0.4592030000000 1.0
C      1  0.5277290000000  0.6036960000000  0.2826490000000 1.0
C      1  0.3018550000000  0.6036970000000  0.4064670000000 1.0
C      1  0.3498140000000  0.6036970000000  0.6595430000000 1.0
C      1  0.6053250000000  0.6036970000000  0.6921400000000 1.0
C      1  0.7152780000000  0.6036950000000  0.4592030000000 1.0
C      1  0.5979910000000  0.5480580000000  0.3211230000000 1.0
C      1  0.3601570000000  0.5480620000000  0.3515400000000 1.0
C      1  0.3155870000000  0.5480640000000  0.5871240000000 1.0
C      1  0.5258730000000  0.5480630000000  0.7023070000000 1.0
C      1  0.7003900000000  0.5480580000000  0.5379140000000 1.0
C      1  0.5979910000000  0.4519420000000  0.3211230000000 1.0
C      1  0.3601570000000  0.4519380000000  0.3515400000000 1.0
C      1  0.3155870000000  0.4519360000000  0.5871240000000 1.0
C      1  0.5258730000000  0.4519370000000  0.7023070000000 1.0
C      1  0.7003900000000  0.4519420000000  0.5379140000000 1.0
C      1  0.3280640000000  0.4609270000000  0.7227280000000 1.0
C      1  0.6586930000000  0.4609270000000  0.7323540000000 1.0
C      1  0.7700280000000  0.4609260000000  0.4208700000000 1.0
C      1  0.5081780000000  0.4609250000000  0.2187370000000 1.0
C      1  0.2350420000000  0.4609270000000  0.4053020000000 1.0
C      1  0.3280640000000  0.5390730000000  0.7227280000000 1.0
C      1  0.6586930000000  0.5390730000000  0.7323540000000 1.0
C      1  0.7700280000000  0.5390740000000  0.4208700000000 1.0
C      1  0.5081780000000  0.5390750000000  0.2187370000000 1.0
C      1  0.2350420000000  0.5390730000000  0.4053020000000 1.0
C      1  0.4506310000000  0.3773670000000  0.6503650000000 1.0
C      1  0.6277500000000  0.3773630000000  0.5934200000000 1.0
C      1  0.6283190000000  0.3773680000000  0.4073640000000 1.0
C      1  0.4515540000000  0.3773670000000  0.3493330000000 1.0
C      1  0.3417390000000  0.3773670000000  0.4995140000000 1.0
C      1  0.4506310000000  0.6226330000000  0.6503650000000 1.0
C      1  0.6277500000000  0.6226370000000  0.5934200000000 1.0
C      1  0.6283190000000  0.6226320000000  0.4073640000000 1.0
C      1  0.4515540000000  0.6226330000000  0.3493330000000 1.0
C      1  0.3417390000000  0.6226330000000  0.4995140000000 1.0
END
