TITL C-1525613-7943-2058 -0.246499916337196 3375 -8765.827417782 0 0 60 (S10) n - 1
REM
REM in /home/nfs/bkarasulu/CARBON/AIRSS/Generating-Clusters/ReaxFF-fromJPCA2015/Units_Real/Try2-Higher-symm/Only-C60
REM
REM
REM
REM
REM
REM ./C.cell (863b2abdce7293c0672fb3ba77bf323a)
REM AIRSS Version 0.9.1 bugfix July 2018 build 013d7b7c2542+ Fri, 06 Jul 2018 19:26:36 +0100
REM compiler GCC version 9.2.1 20190827 (Red Hat 9.2.1-1)
REM options -cpp -mtune=generic -march=x86-64 -g -O0 -fpre-include=/usr/include/finclude/math-vector-fortran.h
REM seed -1371244679 -1298275789 -210639944 163922511 1639238756 1279271940 -539786381 233083952 -1297983892 1871187409 258281596 1663604719 1014409556 -191708256 1441059580 1613193743 1882021875 1697291338 481054888 -2094124923 -729150650 -1356995077 768563440 2029789671 744067263 734896682 -1752888822 -1556176415 367816903 89687693 1570792020 721565853 -322438728
REM
CELL 1.54180   15.00000   15.00000   15.00000   90.00000   90.00000   90.00000
LATT -1
SFAC C  
C      1  0.7498630000000  0.5332770000000  0.4402100000000 1.0
C      1  0.6669610000000  0.4666890000000  0.3048330000000 1.0
C      1  0.5202800000000  0.5338460000000  0.2439850000000 1.0
C      1  0.3660360000000  0.4666220000000  0.2806630000000 1.0
C      1  0.2626850000000  0.5335510000000  0.4016740000000 1.0
C      1  0.2501370000000  0.4667230000000  0.5597900000000 1.0
C      1  0.3330390000000  0.5333110000000  0.6951670000000 1.0
C      1  0.4797200000000  0.4661540000000  0.7560150000000 1.0
C      1  0.6339640000000  0.5333780000000  0.7193370000000 1.0
C      1  0.7373150000000  0.4664490000000  0.5983260000000 1.0
C      1  0.7045590000000  0.6116450000000  0.4054090000000 1.0
C      1  0.6102870000000  0.3890630000000  0.3028620000000 1.0
C      1  0.4729230000000  0.6105150000000  0.2777760000000 1.0
C      1  0.3464000000000  0.3888760000000  0.3345030000000 1.0
C      1  0.2785500000000  0.6112100000000  0.4562110000000 1.0
C      1  0.2954410000000  0.3883550000000  0.5945910000000 1.0
C      1  0.3897130000000  0.6109370000000  0.6971380000000 1.0
C      1  0.5270770000000  0.3894850000000  0.7222240000000 1.0
C      1  0.6536000000000  0.6111240000000  0.6654970000000 1.0
C      1  0.7214500000000  0.3887900000000  0.5437890000000 1.0
C      1  0.4725980000000  0.5773390000000  0.4245510000000 1.0
C      1  0.4309530000000  0.4256610000000  0.4552170000000 1.0
C      1  0.4201100000000  0.5760890000000  0.5012090000000 1.0
C      1  0.4376760000000  0.4250570000000  0.5520380000000 1.0
C      1  0.4784740000000  0.5747800000000  0.5785410000000 1.0
C      1  0.5274020000000  0.4226610000000  0.5754490000000 1.0
C      1  0.5690470000000  0.5743390000000  0.5447830000000 1.0
C      1  0.5798900000000  0.4239110000000  0.4987910000000 1.0
C      1  0.5623240000000  0.5749430000000  0.4479620000000 1.0
C      1  0.5215260000000  0.4252200000000  0.4214590000000 1.0
C      1  0.3556470000000  0.6494250000000  0.4980270000000 1.0
C      1  0.3830560000000  0.3510600000000  0.5844930000000 1.0
C      1  0.4543670000000  0.6491650000000  0.6374220000000 1.0
C      1  0.5427790000000  0.3534740000000  0.6353950000000 1.0
C      1  0.6169100000000  0.6492640000000  0.5855380000000 1.0
C      1  0.6443530000000  0.3505750000000  0.5019730000000 1.0
C      1  0.6169440000000  0.6489400000000  0.4155070000000 1.0
C      1  0.5456330000000  0.3508350000000  0.3625780000000 1.0
C      1  0.4572210000000  0.6465260000000  0.3646050000000 1.0
C      1  0.3830900000000  0.3507360000000  0.4144620000000 1.0
C      1  0.4348530000000  0.2732560000000  0.4484000000000 1.0
C      1  0.4165990000000  0.7272740000000  0.4964000000000 1.0
C      1  0.4312640000000  0.2731800000000  0.5465830000000 1.0
C      1  0.4707130000000  0.7270110000000  0.5784090000000 1.0
C      1  0.5230080000000  0.2739910000000  0.5804070000000 1.0
C      1  0.5651470000000  0.7267440000000  0.5516000000000 1.0
C      1  0.5834010000000  0.2727260000000  0.5036000000000 1.0
C      1  0.5687360000000  0.7268200000000  0.4534170000000 1.0
C      1  0.5292870000000  0.2729890000000  0.4215910000000 1.0
C      1  0.4769920000000  0.7260090000000  0.4195930000000 1.0
C      1  0.7149740000000  0.5301860000000  0.3552270000000 1.0
C      1  0.5887030000000  0.4700540000000  0.2561590000000 1.0
C      1  0.4287400000000  0.5305000000000  0.2511100000000 1.0
C      1  0.2958380000000  0.4696920000000  0.3401840000000 1.0
C      1  0.2407630000000  0.5302900000000  0.4906330000000 1.0
C      1  0.2850260000000  0.4698140000000  0.6447730000000 1.0
C      1  0.4112970000000  0.5299460000000  0.7438410000000 1.0
C      1  0.5712600000000  0.4695000000000  0.7488900000000 1.0
C      1  0.7041620000000  0.5303080000000  0.6598160000000 1.0
C      1  0.7592370000000  0.4697100000000  0.5093670000000 1.0
END
