TITL C-1525613-7943-3905 -0.000181928037319431 3375 -9319.57096368976 0 0 60 (D5) n - 1
REM
REM in /home/nfs/bkarasulu/CARBON/AIRSS/Generating-Clusters/ReaxFF-fromJPCA2015/Units_Real/Try2-Higher-symm/Only-C60
REM
REM
REM
REM
REM
REM ./C.cell (863b2abdce7293c0672fb3ba77bf323a)
REM AIRSS Version 0.9.1 bugfix July 2018 build 013d7b7c2542+ Fri, 06 Jul 2018 19:26:36 +0100
REM compiler GCC version 9.2.1 20190827 (Red Hat 9.2.1-1)
REM options -cpp -mtune=generic -march=x86-64 -g -O0 -fpre-include=/usr/include/finclude/math-vector-fortran.h
REM seed -1359007652 1687968077 -879625429 9948372 -1177494461 1794010459 298990919 -84045363 -2133185477 -512284402 1371137286 639537811 992718090 1274956024 -68371813 -233568135 -1476670140 -1653090196 1122948141 342155313 276468148 1618858375 2055669938 2072639193 -1147924686 -522090034 1603355840 -1411031048 928766263 -1795780195 -1009733223 1273422604 95212217
REM
CELL 1.54180   15.00000   15.00000   15.00000   90.00000   90.00000   90.00000
LATT -1
SFAC C  
C      1  0.7124780000000  0.4174640000000  0.4957130000000 1.0
C      1  0.7124020000000  0.4787520000000  0.4199310000000 1.0
C      1  0.7122900000000  0.5697650000000  0.4548010000000 1.0
C      1  0.7122960000000  0.5647260000000  0.5521340000000 1.0
C      1  0.7124120000000  0.4705990000000  0.5774200000000 1.0
C      1  0.2875220000000  0.5825360000000  0.4957130000000 1.0
C      1  0.2875980000000  0.5212480000000  0.4199310000000 1.0
C      1  0.2877100000000  0.4302350000000  0.4548010000000 1.0
C      1  0.2877040000000  0.4352740000000  0.5521340000000 1.0
C      1  0.2875880000000  0.5294010000000  0.5774200000000 1.0
C      1  0.5426630000000  0.7274980000000  0.5649830000000 1.0
C      1  0.5429340000000  0.5085340000000  0.7363980000000 1.0
C      1  0.5432180000000  0.2778490000000  0.5811160000000 1.0
C      1  0.5431230000000  0.3542420000000  0.3137390000000 1.0
C      1  0.5427810000000  0.6321390000000  0.3037680000000 1.0
C      1  0.4573370000000  0.2725020000000  0.5649830000000 1.0
C      1  0.4570660000000  0.4914660000000  0.7363980000000 1.0
C      1  0.4567820000000  0.7221510000000  0.5811160000000 1.0
C      1  0.4568770000000  0.6457580000000  0.3137390000000 1.0
C      1  0.4572190000000  0.3678610000000  0.3037680000000 1.0
C      1  0.3668310000000  0.6992320000000  0.4077500000000 1.0
C      1  0.3668920000000  0.6491880000000  0.6611290000000 1.0
C      1  0.3672090000000  0.3927460000000  0.6918330000000 1.0
C      1  0.3673430000000  0.2843000000000  0.4574300000000 1.0
C      1  0.3671090000000  0.4737190000000  0.2818570000000 1.0
C      1  0.6331690000000  0.3007680000000  0.4077500000000 1.0
C      1  0.6331080000000  0.3508120000000  0.6611290000000 1.0
C      1  0.6327910000000  0.6072540000000  0.6918330000000 1.0
C      1  0.6326570000000  0.7157000000000  0.4574300000000 1.0
C      1  0.6328910000000  0.5262810000000  0.2818570000000 1.0
C      1  0.5481640000000  0.3357270000000  0.7118550000000 1.0
C      1  0.5482720000000  0.2477910000000  0.4091780000000 1.0
C      1  0.5479510000000  0.5084820000000  0.2320120000000 1.0
C      1  0.5476440000000  0.7575330000000  0.4251980000000 1.0
C      1  0.5477750000000  0.6507620000000  0.7217560000000 1.0
C      1  0.4518360000000  0.6642730000000  0.7118550000000 1.0
C      1  0.4517280000000  0.7522090000000  0.4091780000000 1.0
C      1  0.4520490000000  0.4915180000000  0.2320120000000 1.0
C      1  0.4523560000000  0.2424670000000  0.4251980000000 1.0
C      1  0.4522250000000  0.3492380000000  0.7217560000000 1.0
C      1  0.3288400000000  0.6688500000000  0.4923520000000 1.0
C      1  0.3289750000000  0.5593050000000  0.6584220000000 1.0
C      1  0.3292120000000  0.3675130000000  0.6055580000000 1.0
C      1  0.3292230000000  0.3585220000000  0.4068160000000 1.0
C      1  0.3289930000000  0.5447590000000  0.3368510000000 1.0
C      1  0.6711600000000  0.3311500000000  0.4923520000000 1.0
C      1  0.6710250000000  0.4406950000000  0.6584220000000 1.0
C      1  0.6707880000000  0.6324870000000  0.6055580000000 1.0
C      1  0.6707770000000  0.6414780000000  0.4068160000000 1.0
C      1  0.6710070000000  0.4552410000000  0.3368510000000 1.0
C      1  0.3661090000000  0.7013140000000  0.5772810000000 1.0
C      1  0.3663710000000  0.4885980000000  0.7154990000000 1.0
C      1  0.3666150000000  0.2914120000000  0.5559040000000 1.0
C      1  0.3665030000000  0.3822610000000  0.3190530000000 1.0
C      1  0.3661900000000  0.6355940000000  0.3322640000000 1.0
C      1  0.6338910000000  0.2986860000000  0.5772810000000 1.0
C      1  0.6336290000000  0.5114020000000  0.7154990000000 1.0
C      1  0.6333850000000  0.7085880000000  0.5559040000000 1.0
C      1  0.6334970000000  0.6177390000000  0.3190530000000 1.0
C      1  0.6338100000000  0.3644060000000  0.3322640000000 1.0
END
