TITL C-1525613-7943-74 0.0542091834068675 3375 -8608.16802272597 0 0 60 (Cs) n - 1
REM
REM in /home/nfs/bkarasulu/CARBON/AIRSS/Generating-Clusters/ReaxFF-fromJPCA2015/Units_Real/Try2-Higher-symm/Only-C60
REM
REM
REM
REM
REM
REM ./C.cell (863b2abdce7293c0672fb3ba77bf323a)
REM AIRSS Version 0.9.1 bugfix July 2018 build 013d7b7c2542+ Fri, 06 Jul 2018 19:26:36 +0100
REM compiler GCC version 9.2.1 20190827 (Red Hat 9.2.1-1)
REM options -cpp -mtune=generic -march=x86-64 -g -O0 -fpre-include=/usr/include/finclude/math-vector-fortran.h
REM seed 1997746310 1424775154 1354775295 -467242288 842397515 -393159016 -1583133765 -2120513894 -1142286628 2033421215 -1837668224 6190302 -1746501052 1229860163 -1028792399 -1120991729 1977486970 -168050278 1810313877 -2145620518 1270618408 254674557 1899219012 -159098076 1269321561 -1029759469 1651439850 769071631 -793847664 1904923920 726656721 -553327635 -179799668
REM
CELL 1.54180   15.00000   15.00000   15.00000   90.00000   90.00000   90.00000
LATT -1
SFAC C  
C      1  0.3774350000000  0.3110190000000  0.7125640000000 1.0
C      1  0.2647700000000  0.3093800000000  0.4505030000000 1.0
C      1  0.4719460000000  0.3148670000000  0.2561770000000 1.0
C      1  0.7195670000000  0.3055420000000  0.4017570000000 1.0
C      1  0.6568920000000  0.2990930000000  0.6746710000000 1.0
C      1  0.3774410000000  0.3110190000000  0.2874290000000 1.0
C      1  0.2647720000000  0.3093940000000  0.5494940000000 1.0
C      1  0.4719340000000  0.3148600000000  0.7438230000000 1.0
C      1  0.7195620000000  0.3055250000000  0.5982390000000 1.0
C      1  0.6569020000000  0.2990830000000  0.3253330000000 1.0
C      1  0.6710820000000  0.4617410000000  0.3187680000000 1.0
C      1  0.7203230000000  0.4727630000000  0.5957550000000 1.0
C      1  0.4782960000000  0.4825780000000  0.7360640000000 1.0
C      1  0.2682530000000  0.4737800000000  0.5492620000000 1.0
C      1  0.3832830000000  0.4777450000000  0.2935220000000 1.0
C      1  0.6710620000000  0.4617430000000  0.6812130000000 1.0
C      1  0.7203260000000  0.4727760000000  0.4042370000000 1.0
C      1  0.4783050000000  0.4825930000000  0.2639520000000 1.0
C      1  0.2682150000000  0.4737700000000  0.4507280000000 1.0
C      1  0.3832830000000  0.4777600000000  0.7064930000000 1.0
C      1  0.4121600000000  0.5280900000000  0.3725100000000 1.0
C      1  0.6095190000000  0.5336550000000  0.3494720000000 1.0
C      1  0.6491000000000  0.5252180000000  0.5658750000000 1.0
C      1  0.5063160000000  0.5307080000000  0.6622020000000 1.0
C      1  0.3529460000000  0.5238530000000  0.5490080000000 1.0
C      1  0.4121580000000  0.5281000000000  0.6275050000000 1.0
C      1  0.6094740000000  0.5336380000000  0.6504860000000 1.0
C      1  0.6491090000000  0.5252160000000  0.4340910000000 1.0
C      1  0.5063270000000  0.5307160000000  0.3377980000000 1.0
C      1  0.3529390000000  0.5238590000000  0.4510070000000 1.0
C      1  0.6473960000000  0.6805210000000  0.5476770000000 1.0
C      1  0.4933480000000  0.6908510000000  0.6554870000000 1.0
C      1  0.3403690000000  0.6855060000000  0.5494900000000 1.0
C      1  0.3987760000000  0.6897480000000  0.3718360000000 1.0
C      1  0.5879370000000  0.6940560000000  0.3740430000000 1.0
C      1  0.6474100000000  0.6805340000000  0.4523270000000 1.0
C      1  0.4933580000000  0.6908650000000  0.3445370000000 1.0
C      1  0.3403610000000  0.6855210000000  0.4505190000000 1.0
C      1  0.3987560000000  0.6897470000000  0.6281780000000 1.0
C      1  0.5879210000000  0.6940640000000  0.6259510000000 1.0
C      1  0.3578070000000  0.6066350000000  0.3367950000000 1.0
C      1  0.6085020000000  0.6276290000000  0.3068000000000 1.0
C      1  0.7079670000000  0.6008480000000  0.5500670000000 1.0
C      1  0.5144850000000  0.6106600000000  0.7123800000000 1.0
C      1  0.2997580000000  0.6027600000000  0.5842440000000 1.0
C      1  0.3578020000000  0.6066450000000  0.6632250000000 1.0
C      1  0.6085010000000  0.6276200000000  0.6931740000000 1.0
C      1  0.7079550000000  0.6008320000000  0.4499480000000 1.0
C      1  0.5144630000000  0.6106580000000  0.2876090000000 1.0
C      1  0.2997480000000  0.6027800000000  0.4157720000000 1.0
C      1  0.2788130000000  0.3932190000000  0.3978690000000 1.0
C      1  0.5271060000000  0.3971010000000  0.2602390000000 1.0
C      1  0.7407790000000  0.3886810000000  0.4521490000000 1.0
C      1  0.6186790000000  0.3855280000000  0.7089210000000 1.0
C      1  0.3364600000000  0.3961890000000  0.6805380000000 1.0
C      1  0.2788250000000  0.3932420000000  0.6021110000000 1.0
C      1  0.5270990000000  0.3971010000000  0.7397770000000 1.0
C      1  0.7407740000000  0.3886720000000  0.5478550000000 1.0
C      1  0.6186860000000  0.3855210000000  0.2910840000000 1.0
C      1  0.3364600000000  0.3961850000000  0.3194570000000 1.0
END
