TITL C-1525613-7943-2023 -0.000192555311394332 3375 -8948.85577818659 0 0 60 (C5) n - 1
REM
REM in /home/nfs/bkarasulu/CARBON/AIRSS/Generating-Clusters/ReaxFF-fromJPCA2015/Units_Real/Try2-Higher-symm/Only-C60
REM
REM
REM
REM
REM
REM ./C.cell (863b2abdce7293c0672fb3ba77bf323a)
REM AIRSS Version 0.9.1 bugfix July 2018 build 013d7b7c2542+ Fri, 06 Jul 2018 19:26:36 +0100
REM compiler GCC version 9.2.1 20190827 (Red Hat 9.2.1-1)
REM options -cpp -mtune=generic -march=x86-64 -g -O0 -fpre-include=/usr/include/finclude/math-vector-fortran.h
REM seed -1213093560 552047555 1222806925 -1047282940 894580521 -1782479457 -254913801 -354152877 690535645 544819133 2045554169 -1237764215 1118220708 -1741175824 -33107695 334170421 1971241557 -1053444782 1475198674 -649659818 -590938438 1749979599 -1288477414 62580676 -635510374 -1408035434 -749760853 1161443712 -1303258877 2103138745 -1740205772 -1465984142 -768406389
REM
CELL 1.54180   15.00000   15.00000   15.00000   90.00000   90.00000   90.00000
LATT -1
SFAC C  
C      1  0.4443010000000  0.5172720000000  0.6758980000000 1.0
C      1  0.4443010000000  0.3380510000000  0.5707810000000 1.0
C      1  0.4443020000000  0.3826410000000  0.3678500000000 1.0
C      1  0.4443020000000  0.5894200000000  0.3475450000000 1.0
C      1  0.4443010000000  0.6726280000000  0.5379300000000 1.0
C      1  0.5556980000000  0.5172710000000  0.6758980000000 1.0
C      1  0.5556990000000  0.3380510000000  0.5707810000000 1.0
C      1  0.5556980000000  0.3826400000000  0.3678500000000 1.0
C      1  0.5556990000000  0.5894200000000  0.3475450000000 1.0
C      1  0.5556990000000  0.6726280000000  0.5379300000000 1.0
C      1  0.4518220000000  0.6861960000000  0.3766420000000 1.0
C      1  0.4518220000000  0.6748590000000  0.6389610000000 1.0
C      1  0.4518220000000  0.4218750000000  0.7092410000000 1.0
C      1  0.4518210000000  0.2768580000000  0.4903590000000 1.0
C      1  0.4518220000000  0.4402180000000  0.2848000000000 1.0
C      1  0.5481790000000  0.6861960000000  0.3766420000000 1.0
C      1  0.5481790000000  0.6748590000000  0.6389620000000 1.0
C      1  0.5481780000000  0.4218750000000  0.7092410000000 1.0
C      1  0.5481780000000  0.2768580000000  0.4903590000000 1.0
C      1  0.5481780000000  0.4402170000000  0.2848000000000 1.0
C      1  0.6945550000000  0.5089490000000  0.3285600000000 1.0
C      1  0.6945550000000  0.6658100000000  0.4555350000000 1.0
C      1  0.6945550000000  0.5935240000000  0.6439560000000 1.0
C      1  0.6945560000000  0.3919860000000  0.6334360000000 1.0
C      1  0.6945550000000  0.3397140000000  0.4385080000000 1.0
C      1  0.3054450000000  0.5089510000000  0.3285600000000 1.0
C      1  0.3054450000000  0.6658120000000  0.4555350000000 1.0
C      1  0.3054450000000  0.5935260000000  0.6439560000000 1.0
C      1  0.3054440000000  0.3919870000000  0.6334360000000 1.0
C      1  0.3054450000000  0.3397150000000  0.4385080000000 1.0
C      1  0.3939640000000  0.6089770000000  0.6816900000000 1.0
C      1  0.3939650000000  0.3608770000000  0.6597890000000 1.0
C      1  0.3939670000000  0.3050410000000  0.4170640000000 1.0
C      1  0.3939660000000  0.5186330000000  0.2889540000000 1.0
C      1  0.3939640000000  0.7064750000000  0.4525030000000 1.0
C      1  0.6060360000000  0.6089770000000  0.6816900000000 1.0
C      1  0.6060350000000  0.3608770000000  0.6597890000000 1.0
C      1  0.6060330000000  0.3050400000000  0.4170640000000 1.0
C      1  0.6060350000000  0.5186330000000  0.2889540000000 1.0
C      1  0.6060370000000  0.7064740000000  0.4525030000000 1.0
C      1  0.5768010000000  0.5411990000000  0.4327240000000 1.0
C      1  0.5768000000000  0.5767170000000  0.5183910000000 1.0
C      1  0.5768000000000  0.5062180000000  0.5786430000000 1.0
C      1  0.5768010000000  0.4271290000000  0.5302140000000 1.0
C      1  0.5768020000000  0.4487490000000  0.4400310000000 1.0
C      1  0.4231990000000  0.5411990000000  0.4327240000000 1.0
C      1  0.4231990000000  0.5767170000000  0.5183910000000 1.0
C      1  0.4231990000000  0.5062180000000  0.5786430000000 1.0
C      1  0.4231990000000  0.4271300000000  0.5302140000000 1.0
C      1  0.4231990000000  0.4487490000000  0.4400310000000 1.0
C      1  0.2585060000000  0.5041370000000  0.4157830000000 1.0
C      1  0.2585070000000  0.5813710000000  0.4779110000000 1.0
C      1  0.2585070000000  0.5461490000000  0.5705630000000 1.0
C      1  0.2585060000000  0.4471480000000  0.5656970000000 1.0
C      1  0.2585060000000  0.4211830000000  0.4700380000000 1.0
C      1  0.7414940000000  0.5041350000000  0.4157830000000 1.0
C      1  0.7414940000000  0.5813690000000  0.4779120000000 1.0
C      1  0.7414940000000  0.5461470000000  0.5705640000000 1.0
C      1  0.7414940000000  0.4471460000000  0.5656980000000 1.0
C      1  0.7414940000000  0.4211810000000  0.4700380000000 1.0
END
