TITL C-1525613-7943-6254 0.563955087873611 3375 -8332.48776398168 0 0 60 (C5) n - 1
REM
REM in /home/nfs/bkarasulu/CARBON/AIRSS/Generating-Clusters/ReaxFF-fromJPCA2015/Units_Real/Try2-Higher-symm/Only-C60
REM
REM
REM
REM
REM
REM ./C.cell (863b2abdce7293c0672fb3ba77bf323a)
REM AIRSS Version 0.9.1 bugfix July 2018 build 013d7b7c2542+ Fri, 06 Jul 2018 19:26:36 +0100
REM compiler GCC version 9.2.1 20190827 (Red Hat 9.2.1-1)
REM options -cpp -mtune=generic -march=x86-64 -g -O0 -fpre-include=/usr/include/finclude/math-vector-fortran.h
REM seed 2104223923 491426809 -333349604 84807700 1265174065 844106740 467414448 2039130907 1353159687 -1031237662 -1828875616 -2061294734 -1031954697 2141798841 -584609827 841896808 -1799620884 -858747757 1812499225 -454446411 856355509 426060303 -332034788 -997964639 576345284 -2143706433 -752225392 1612651881 -1611056902 -489795688 -42958061 1029306715 321494667
REM
CELL 1.54180   15.00000   15.00000   15.00000   90.00000   90.00000   90.00000
LATT -1
SFAC C  
C      1  0.5363810000000  0.5334980000000  0.7593870000000 1.0
C      1  0.5360190000000  0.2639470000000  0.6115680000000 1.0
C      1  0.5357000000000  0.3210350000000  0.3100880000000 1.0
C      1  0.5361360000000  0.6252530000000  0.2709320000000 1.0
C      1  0.5365250000000  0.7569980000000  0.5482960000000 1.0
C      1  0.5363760000000  0.5334910000000  0.2406030000000 1.0
C      1  0.5363820000000  0.2637590000000  0.3881450000000 1.0
C      1  0.5355970000000  0.3210010000000  0.6898210000000 1.0
C      1  0.5361190000000  0.6252550000000  0.7290190000000 1.0
C      1  0.5365140000000  0.7569750000000  0.4516510000000 1.0
C      1  0.5998610000000  0.6017140000000  0.6623390000000 1.0
C      1  0.5996400000000  0.3771750000000  0.6469910000000 1.0
C      1  0.6010550000000  0.3236350000000  0.4278450000000 1.0
C      1  0.6013900000000  0.5141630000000  0.3096810000000 1.0
C      1  0.6007530000000  0.6856990000000  0.4540740000000 1.0
C      1  0.5998550000000  0.6017220000000  0.3376680000000 1.0
C      1  0.5996490000000  0.3772880000000  0.3530030000000 1.0
C      1  0.6010000000000  0.3236590000000  0.5721190000000 1.0
C      1  0.6013890000000  0.5141620000000  0.6903000000000 1.0
C      1  0.6006880000000  0.6857380000000  0.5459690000000 1.0
C      1  0.3105510000000  0.5910110000000  0.3752190000000 1.0
C      1  0.3093180000000  0.6481360000000  0.5487800000000 1.0
C      1  0.3086980000000  0.4995270000000  0.6572960000000 1.0
C      1  0.3092500000000  0.3518910000000  0.5488020000000 1.0
C      1  0.3099720000000  0.4084960000000  0.3747310000000 1.0
C      1  0.3104530000000  0.5905900000000  0.6251080000000 1.0
C      1  0.3094270000000  0.6478840000000  0.4512030000000 1.0
C      1  0.3086410000000  0.4990950000000  0.3430020000000 1.0
C      1  0.3093570000000  0.3505350000000  0.4517360000000 1.0
C      1  0.3093160000000  0.4078920000000  0.6255370000000 1.0
C      1  0.3963770000000  0.4851960000000  0.6985760000000 1.0
C      1  0.3964700000000  0.3079090000000  0.5461200000000 1.0
C      1  0.3967670000000  0.3971750000000  0.3320660000000 1.0
C      1  0.3969220000000  0.6279420000000  0.3502520000000 1.0
C      1  0.3963630000000  0.6838360000000  0.5757300000000 1.0
C      1  0.3961340000000  0.4849710000000  0.3013190000000 1.0
C      1  0.3970700000000  0.3070240000000  0.4530700000000 1.0
C      1  0.3967800000000  0.3973360000000  0.6678790000000 1.0
C      1  0.3968910000000  0.6276470000000  0.6496850000000 1.0
C      1  0.3960040000000  0.6835760000000  0.4242570000000 1.0
C      1  0.6922910000000  0.3512590000000  0.4525970000000 1.0
C      1  0.6921270000000  0.4992240000000  0.3442110000000 1.0
C      1  0.6919220000000  0.6483200000000  0.4518930000000 1.0
C      1  0.6912100000000  0.5914060000000  0.6266670000000 1.0
C      1  0.6908940000000  0.4078200000000  0.6265070000000 1.0
C      1  0.6922480000000  0.3512320000000  0.5473880000000 1.0
C      1  0.6920930000000  0.4992150000000  0.6557980000000 1.0
C      1  0.6918280000000  0.6483520000000  0.5480470000000 1.0
C      1  0.6912230000000  0.5913930000000  0.3733320000000 1.0
C      1  0.6909540000000  0.4078540000000  0.3735030000000 1.0
C      1  0.4651130000000  0.3736100000000  0.7322310000000 1.0
C      1  0.4657560000000  0.2402570000000  0.4515100000000 1.0
C      1  0.4656860000000  0.4658540000000  0.2380810000000 1.0
C      1  0.4659540000000  0.7383730000000  0.3860690000000 1.0
C      1  0.4654560000000  0.6818940000000  0.6918370000000 1.0
C      1  0.4651280000000  0.3736840000000  0.2676580000000 1.0
C      1  0.4654620000000  0.2400300000000  0.5486570000000 1.0
C      1  0.4656640000000  0.4660240000000  0.7620630000000 1.0
C      1  0.4657090000000  0.7383460000000  0.6136790000000 1.0
C      1  0.4654890000000  0.6820180000000  0.3084050000000 1.0
END
