TITL C-1525613-7943-3346 0.322706285797323 3375 -8359.77954902201 0 0 60 (C5) n - 1
REM
REM in /home/nfs/bkarasulu/CARBON/AIRSS/Generating-Clusters/ReaxFF-fromJPCA2015/Units_Real/Try2-Higher-symm/Only-C60
REM
REM
REM
REM
REM
REM ./C.cell (863b2abdce7293c0672fb3ba77bf323a)
REM AIRSS Version 0.9.1 bugfix July 2018 build 013d7b7c2542+ Fri, 06 Jul 2018 19:26:36 +0100
REM compiler GCC version 9.2.1 20190827 (Red Hat 9.2.1-1)
REM options -cpp -mtune=generic -march=x86-64 -g -O0 -fpre-include=/usr/include/finclude/math-vector-fortran.h
REM seed 795464012 1215300758 -1755460397 86206841 1841940939 716843585 -1730195967 -1007857072 2020764635 557112767 1386546195 -246329492 746788490 487074743 -1305443561 -1349813052 -59219525 -2015356719 748685763 1762247655 -273481771 -39512003 -1091521977 -472962673 -1163549305 -246062282 120263915 1378346825 -1722763622 -2145653563 -1020138506 -767525474 878465649
REM
CELL 1.54180   15.00000   15.00000   15.00000   90.00000   90.00000   90.00000
LATT -1
SFAC C  
C      1  0.5081390000000  0.3102230000000  0.3212640000000 1.0
C      1  0.5080020000000  0.2711660000000  0.6251630000000 1.0
C      1  0.5082870000000  0.5483250000000  0.7560200000000 1.0
C      1  0.5084460000000  0.7584100000000  0.5330140000000 1.0
C      1  0.5082570000000  0.6113450000000  0.2642890000000 1.0
C      1  0.5081350000000  0.6897750000000  0.3212560000000 1.0
C      1  0.5080020000000  0.7288370000000  0.6251640000000 1.0
C      1  0.5082870000000  0.4516750000000  0.7560200000000 1.0
C      1  0.5084460000000  0.2415910000000  0.5330130000000 1.0
C      1  0.5082540000000  0.3886520000000  0.2642900000000 1.0
C      1  0.4876540000000  0.3929150000000  0.4224730000000 1.0
C      1  0.4880110000000  0.3930640000000  0.5776650000000 1.0
C      1  0.4870350000000  0.5407600000000  0.6255960000000 1.0
C      1  0.4865360000000  0.6318800000000  0.4996730000000 1.0
C      1  0.4872850000000  0.5406210000000  0.3740140000000 1.0
C      1  0.4876610000000  0.6070840000000  0.4224690000000 1.0
C      1  0.4880100000000  0.6069330000000  0.5776610000000 1.0
C      1  0.4870350000000  0.4592400000000  0.6255960000000 1.0
C      1  0.4865390000000  0.3681220000000  0.4996710000000 1.0
C      1  0.4872930000000  0.4593770000000  0.3740130000000 1.0
C      1  0.6447370000000  0.5500190000000  0.3472700000000 1.0
C      1  0.6446880000000  0.3701030000000  0.4052960000000 1.0
C      1  0.6447300000000  0.3697070000000  0.5941750000000 1.0
C      1  0.6447980000000  0.5492160000000  0.6530290000000 1.0
C      1  0.6447790000000  0.6607410000000  0.5003620000000 1.0
C      1  0.6447360000000  0.4499800000000  0.3472690000000 1.0
C      1  0.6446880000000  0.6298970000000  0.4052950000000 1.0
C      1  0.6447300000000  0.6302930000000  0.5941740000000 1.0
C      1  0.6447980000000  0.4507840000000  0.6530290000000 1.0
C      1  0.6447790000000  0.3392580000000  0.5003610000000 1.0
C      1  0.3466970000000  0.3740310000000  0.4079720000000 1.0
C      1  0.3468200000000  0.3734250000000  0.5913820000000 1.0
C      1  0.3466230000000  0.5476350000000  0.6485020000000 1.0
C      1  0.3465660000000  0.6558500000000  0.5005430000000 1.0
C      1  0.3466090000000  0.5485970000000  0.3519270000000 1.0
C      1  0.3466990000000  0.6259710000000  0.4079710000000 1.0
C      1  0.3468210000000  0.6265750000000  0.5913820000000 1.0
C      1  0.3466230000000  0.4523650000000  0.6485020000000 1.0
C      1  0.3465660000000  0.3441500000000  0.5005420000000 1.0
C      1  0.3466110000000  0.4514020000000  0.3519250000000 1.0
C      1  0.5856090000000  0.7049960000000  0.3805200000000 1.0
C      1  0.5855470000000  0.4496550000000  0.2680620000000 1.0
C      1  0.5855310000000  0.2636130000000  0.4762950000000 1.0
C      1  0.5856150000000  0.4043160000000  0.7173120000000 1.0
C      1  0.5856460000000  0.6768430000000  0.6581100000000 1.0
C      1  0.5856030000000  0.2950040000000  0.3805140000000 1.0
C      1  0.5855400000000  0.5503500000000  0.2680590000000 1.0
C      1  0.5855320000000  0.7363870000000  0.4762940000000 1.0
C      1  0.5856150000000  0.5956840000000  0.7173120000000 1.0
C      1  0.5856470000000  0.3231570000000  0.6581100000000 1.0
C      1  0.4276310000000  0.5524500000000  0.2846810000000 1.0
C      1  0.4272680000000  0.3111790000000  0.3834440000000 1.0
C      1  0.4270390000000  0.3309690000000  0.6436930000000 1.0
C      1  0.4275440000000  0.5843070000000  0.7048810000000 1.0
C      1  0.4278780000000  0.7209330000000  0.4833850000000 1.0
C      1  0.4276210000000  0.4475520000000  0.2846810000000 1.0
C      1  0.4272590000000  0.6888220000000  0.3834500000000 1.0
C      1  0.4270400000000  0.6690310000000  0.6436930000000 1.0
C      1  0.4275440000000  0.4156930000000  0.7048820000000 1.0
C      1  0.4278770000000  0.2790640000000  0.4833880000000 1.0
END
