TITL C-1525613-7943-7003 -0.00068609208073223 3375 -9487.55493247689 0 0 60 (C1) n - 1
REM
REM in /home/nfs/bkarasulu/CARBON/AIRSS/Generating-Clusters/ReaxFF-fromJPCA2015/Units_Real/Try2-Higher-symm/Only-C60
REM
REM
REM
REM
REM
REM ./C.cell (863b2abdce7293c0672fb3ba77bf323a)
REM AIRSS Version 0.9.1 bugfix July 2018 build 013d7b7c2542+ Fri, 06 Jul 2018 19:26:36 +0100
REM compiler GCC version 9.2.1 20190827 (Red Hat 9.2.1-1)
REM options -cpp -mtune=generic -march=x86-64 -g -O0 -fpre-include=/usr/include/finclude/math-vector-fortran.h
REM seed 1003195916 1394636114 1303591530 1124332079 62713659 1637825402 492401986 -391550817 1187479621 1000940805 247318357 -715547108 60515089 -17783201 1666287459 334051134 1379350035 -2062165080 638508716 -2102211720 -192043068 -1967200305 580114416 -1087897948 1794313865 1611482104 1190841489 1459741577 -597212352 1896474067 2077782509 314323043 1899489934
REM
CELL 1.54180   15.00000   15.00000   15.00000   90.00000   90.00000   90.00000
LATT -1
SFAC C  
C      1  0.6875660000000  0.5453990000000  0.6911230000000 1.0
C      1  0.5334840000000  0.5420980000000  0.7601200000000 1.0
C      1  0.3719710000000  0.5476130000000  0.7318690000000 1.0
C      1  0.2614250000000  0.5505610000000  0.6099800000000 1.0
C      1  0.2316070000000  0.5644330000000  0.4516860000000 1.0
C      1  0.3169440000000  0.5497370000000  0.3108960000000 1.0
C      1  0.4642380000000  0.5437080000000  0.2400570000000 1.0
C      1  0.6265880000000  0.5479010000000  0.2687080000000 1.0
C      1  0.7421310000000  0.5505630000000  0.3872430000000 1.0
C      1  0.7715550000000  0.5645340000000  0.5447430000000 1.0
C      1  0.6566120000000  0.6481000000000  0.4783190000000 1.0
C      1  0.6378910000000  0.6459450000000  0.5731810000000 1.0
C      1  0.5679380000000  0.6409280000000  0.6390470000000 1.0
C      1  0.4725550000000  0.6409160000000  0.6528920000000 1.0
C      1  0.3873810000000  0.6439620000000  0.6071180000000 1.0
C      1  0.3451380000000  0.6487970000000  0.5203420000000 1.0
C      1  0.3631280000000  0.6468540000000  0.4255220000000 1.0
C      1  0.4333120000000  0.6427810000000  0.3595890000000 1.0
C      1  0.5288540000000  0.6418870000000  0.3463410000000 1.0
C      1  0.6140720000000  0.6440990000000  0.3916370000000 1.0
C      1  0.6799010000000  0.4097160000000  0.3375060000000 1.0
C      1  0.7375290000000  0.4138360000000  0.4794970000000 1.0
C      1  0.7307590000000  0.4345260000000  0.6156630000000 1.0
C      1  0.6003770000000  0.3994620000000  0.7100700000000 1.0
C      1  0.4505780000000  0.4033760000000  0.7355490000000 1.0
C      1  0.3209460000000  0.4075570000000  0.6627200000000 1.0
C      1  0.2598350000000  0.4079100000000  0.5210970000000 1.0
C      1  0.2641520000000  0.4256670000000  0.3873740000000 1.0
C      1  0.3971220000000  0.4008830000000  0.2923730000000 1.0
C      1  0.5488150000000  0.4030170000000  0.2626920000000 1.0
C      1  0.6857440000000  0.4448430000000  0.6947210000000 1.0
C      1  0.5323070000000  0.4448770000000  0.7589210000000 1.0
C      1  0.3678260000000  0.4497230000000  0.7335960000000 1.0
C      1  0.2607410000000  0.4533590000000  0.6060830000000 1.0
C      1  0.2149530000000  0.4640700000000  0.4532640000000 1.0
C      1  0.3123150000000  0.4483860000000  0.3114180000000 1.0
C      1  0.4638810000000  0.4453830000000  0.2409330000000 1.0
C      1  0.6318900000000  0.4526090000000  0.2667470000000 1.0
C      1  0.7388690000000  0.4541470000000  0.3943080000000 1.0
C      1  0.7791490000000  0.4672590000000  0.5466690000000 1.0
C      1  0.6223610000000  0.3508210000000  0.3864510000000 1.0
C      1  0.6533630000000  0.3552620000000  0.4818720000000 1.0
C      1  0.6014210000000  0.3464040000000  0.5565640000000 1.0
C      1  0.5581900000000  0.3443150000000  0.6390080000000 1.0
C      1  0.4602140000000  0.3480680000000  0.6601730000000 1.0
C      1  0.3778270000000  0.3503880000000  0.6139260000000 1.0
C      1  0.3466320000000  0.3524630000000  0.5192890000000 1.0
C      1  0.3986060000000  0.3451960000000  0.4444810000000 1.0
C      1  0.4410380000000  0.3447250000000  0.3621800000000 1.0
C      1  0.5399050000000  0.3463260000000  0.3398750000000 1.0
C      1  0.7391470000000  0.6020870000000  0.4671430000000 1.0
C      1  0.7123240000000  0.5974160000000  0.6123860000000 1.0
C      1  0.6032270000000  0.5877590000000  0.7123060000000 1.0
C      1  0.4576370000000  0.5881210000000  0.7307870000000 1.0
C      1  0.3282170000000  0.5917270000000  0.6604190000000 1.0
C      1  0.2634990000000  0.6004240000000  0.5309910000000 1.0
C      1  0.2908170000000  0.5973670000000  0.3873080000000 1.0
C      1  0.3977640000000  0.5895620000000  0.2886860000000 1.0
C      1  0.5433150000000  0.5878920000000  0.2685170000000 1.0
C      1  0.6724150000000  0.5922560000000  0.3360220000000 1.0
END
