TITL C-1525613-7943-481 0.00528518447227167 3375 -8963.00937552256 0 0 60 (D5) n - 1
REM
REM in /home/nfs/bkarasulu/CARBON/AIRSS/Generating-Clusters/ReaxFF-fromJPCA2015/Units_Real/Try2-Higher-symm/Only-C60
REM
REM
REM
REM
REM
REM ./C.cell (863b2abdce7293c0672fb3ba77bf323a)
REM AIRSS Version 0.9.1 bugfix July 2018 build 013d7b7c2542+ Fri, 06 Jul 2018 19:26:36 +0100
REM compiler GCC version 9.2.1 20190827 (Red Hat 9.2.1-1)
REM options -cpp -mtune=generic -march=x86-64 -g -O0 -fpre-include=/usr/include/finclude/math-vector-fortran.h
REM seed 1341181925 -1391016818 -888700856 -2108759121 -1079149596 1821807491 600075044 1312464361 -527438365 1845525775 -1621984130 -931620966 1340070754 -1277349271 93104604 392976497 -1117056576 -639694779 -844727600 -840921396 1270998407 -1946130519 183452637 150700878 -999389852 718472937 366748864 356592366 1025972093 627642613 -357657633 123804402 1626114683
REM
CELL 1.54180   15.00000   15.00000   15.00000   90.00000   90.00000   90.00000
LATT -1
SFAC C  
C      1  0.7668420000000  0.4472890000000  0.4949550000000 1.0
C      1  0.5780260000000  0.4466220000000  0.2437010000000 1.0
C      1  0.2814490000000  0.4472610000000  0.3461880000000 1.0
C      1  0.2863510000000  0.4465020000000  0.6613070000000 1.0
C      1  0.5867170000000  0.4469100000000  0.7530660000000 1.0
C      1  0.7675630000000  0.5531290000000  0.5048430000000 1.0
C      1  0.5780040000000  0.5533880000000  0.7562420000000 1.0
C      1  0.2816140000000  0.5527540000000  0.6540630000000 1.0
C      1  0.2864990000000  0.5534090000000  0.3385490000000 1.0
C      1  0.5864640000000  0.5527120000000  0.2472940000000 1.0
C      1  0.4152710000000  0.4796090000000  0.6160980000000 1.0
C      1  0.5861580000000  0.4801990000000  0.6163480000000 1.0
C      1  0.6386550000000  0.4801460000000  0.4541170000000 1.0
C      1  0.5003860000000  0.4801000000000  0.3562970000000 1.0
C      1  0.3603410000000  0.4804000000000  0.4558710000000 1.0
C      1  0.4153970000000  0.5201940000000  0.3835900000000 1.0
C      1  0.5873230000000  0.5200410000000  0.3825580000000 1.0
C      1  0.6381860000000  0.5200370000000  0.5441520000000 1.0
C      1  0.4995120000000  0.5202780000000  0.6443410000000 1.0
C      1  0.3603320000000  0.5202060000000  0.5440890000000 1.0
C      1  0.4494000000000  0.3523300000000  0.6743520000000 1.0
C      1  0.6503430000000  0.3524470000000  0.6020810000000 1.0
C      1  0.6421270000000  0.3543120000000  0.3896690000000 1.0
C      1  0.4387720000000  0.3525230000000  0.3296880000000 1.0
C      1  0.3198250000000  0.3537170000000  0.5056110000000 1.0
C      1  0.4493850000000  0.6475740000000  0.3257850000000 1.0
C      1  0.6492660000000  0.6462940000000  0.3987750000000 1.0
C      1  0.6423470000000  0.6460280000000  0.6106080000000 1.0
C      1  0.4385060000000  0.6479270000000  0.6706220000000 1.0
C      1  0.3196850000000  0.6463180000000  0.4942500000000 1.0
C      1  0.7094960000000  0.5769740000000  0.5818070000000 1.0
C      1  0.6425960000000  0.5779140000000  0.3251610000000 1.0
C      1  0.3788200000000  0.5777490000000  0.3113980000000 1.0
C      1  0.2819690000000  0.5781990000000  0.5580200000000 1.0
C      1  0.4874960000000  0.5781090000000  0.7239440000000 1.0
C      1  0.7101540000000  0.4230180000000  0.4172730000000 1.0
C      1  0.6415500000000  0.4216870000000  0.6742900000000 1.0
C      1  0.3786300000000  0.4218520000000  0.6883150000000 1.0
C      1  0.2819650000000  0.4221370000000  0.4421360000000 1.0
C      1  0.4876360000000  0.4222300000000  0.2764340000000 1.0
C      1  0.7174560000000  0.6019160000000  0.4432020000000 1.0
C      1  0.5131290000000  0.6032510000000  0.2745530000000 1.0
C      1  0.2902830000000  0.6020840000000  0.4183000000000 1.0
C      1  0.3570740000000  0.6032050000000  0.6751750000000 1.0
C      1  0.6220720000000  0.6026700000000  0.6902660000000 1.0
C      1  0.7170610000000  0.3974720000000  0.5559180000000 1.0
C      1  0.5127110000000  0.3966700000000  0.7261950000000 1.0
C      1  0.2897420000000  0.3978510000000  0.5814560000000 1.0
C      1  0.3571700000000  0.3970240000000  0.3254060000000 1.0
C      1  0.6222150000000  0.3973500000000  0.3097600000000 1.0
C      1  0.5674760000000  0.6693390000000  0.4538640000000 1.0
C      1  0.4769750000000  0.6691580000000  0.4210180000000 1.0
C      1  0.4183890000000  0.6688670000000  0.4974960000000 1.0
C      1  0.4720620000000  0.6696170000000  0.5775560000000 1.0
C      1  0.5645410000000  0.6694140000000  0.5503110000000 1.0
C      1  0.5679680000000  0.3309710000000  0.5467100000000 1.0
C      1  0.4773780000000  0.3310820000000  0.5791130000000 1.0
C      1  0.4185060000000  0.3307880000000  0.5027170000000 1.0
C      1  0.4721900000000  0.3301640000000  0.4227550000000 1.0
C      1  0.5645430000000  0.3305840000000  0.4503400000000 1.0
END
