TITL C-1525613-7943-2813 -0.00881073328823198 3375 -9536.71518832823 0 0 60 (D5d) n - 1
REM
REM in /home/nfs/bkarasulu/CARBON/AIRSS/Generating-Clusters/ReaxFF-fromJPCA2015/Units_Real/Try2-Higher-symm/Only-C60
REM
REM
REM
REM
REM
REM ./C.cell (863b2abdce7293c0672fb3ba77bf323a)
REM AIRSS Version 0.9.1 bugfix July 2018 build 013d7b7c2542+ Fri, 06 Jul 2018 19:26:36 +0100
REM compiler GCC version 9.2.1 20190827 (Red Hat 9.2.1-1)
REM options -cpp -mtune=generic -march=x86-64 -g -O0 -fpre-include=/usr/include/finclude/math-vector-fortran.h
REM seed -32448105 113158590 1947320764 -1321045465 -1926924223 1892796161 1226359812 -592104245 -956534313 -2128549557 -1765052631 -153110638 856742357 -1957000901 -367650579 -1055376476 584232727 -1935252758 1540712543 -960357979 -1286738373 1599165660 -1770693472 -1941757636 894584846 272368071 -325963875 819770392 -1369158625 -1020995071 1404039524 -2129654923 -978456173
REM
CELL 1.54180   15.00000   15.00000   15.00000   90.00000   90.00000   90.00000
LATT -1
SFAC C  
C      1  0.6159790000000  0.2981070000000  0.5412180000000 1.0
C      1  0.7278730000000  0.5479190000000  0.5412190000000 1.0
C      1  0.5248500000000  0.7314890000000  0.5412790000000 1.0
C      1  0.2874340000000  0.5951750000000  0.5412460000000 1.0
C      1  0.3438190000000  0.3273420000000  0.5412350000000 1.0
C      1  0.6159890000000  0.7018990000000  0.5412050000000 1.0
C      1  0.7278820000000  0.4520810000000  0.5412130000000 1.0
C      1  0.5248520000000  0.2685150000000  0.5412720000000 1.0
C      1  0.2874400000000  0.4048500000000  0.5412530000000 1.0
C      1  0.3438040000000  0.6726700000000  0.5412290000000 1.0
C      1  0.7180180000000  0.5463190000000  0.3778600000000 1.0
C      1  0.5232830000000  0.7216120000000  0.3778830000000 1.0
C      1  0.2963930000000  0.5906400000000  0.3778800000000 1.0
C      1  0.3509120000000  0.3344510000000  0.3779140000000 1.0
C      1  0.6114780000000  0.3070190000000  0.3778630000000 1.0
C      1  0.7180240000000  0.4536710000000  0.3778640000000 1.0
C      1  0.5232740000000  0.2783940000000  0.3778760000000 1.0
C      1  0.2964070000000  0.4093420000000  0.3778670000000 1.0
C      1  0.3509050000000  0.6655640000000  0.3779140000000 1.0
C      1  0.6114600000000  0.6929800000000  0.3778450000000 1.0
C      1  0.5934520000000  0.6274780000000  0.3085090000000 1.0
C      1  0.4076710000000  0.6282130000000  0.3085830000000 1.0
C      1  0.3494210000000  0.4517970000000  0.3085070000000 1.0
C      1  0.4993710000000  0.3420030000000  0.3085250000000 1.0
C      1  0.6501630000000  0.4505050000000  0.3085120000000 1.0
C      1  0.5934510000000  0.3725270000000  0.3085030000000 1.0
C      1  0.4076860000000  0.3717680000000  0.3085760000000 1.0
C      1  0.3494290000000  0.5482050000000  0.3085140000000 1.0
C      1  0.4993510000000  0.6579890000000  0.3085330000000 1.0
C      1  0.6501610000000  0.5494790000000  0.3085230000000 1.0
C      1  0.7039370000000  0.4091480000000  0.6222160000000 1.0
C      1  0.6494200000000  0.6658680000000  0.6222140000000 1.0
C      1  0.3884340000000  0.6933320000000  0.6222480000000 1.0
C      1  0.2815600000000  0.4536650000000  0.6222660000000 1.0
C      1  0.4766300000000  0.2779880000000  0.6222280000000 1.0
C      1  0.7039350000000  0.5908510000000  0.6222080000000 1.0
C      1  0.6494180000000  0.3341280000000  0.6222090000000 1.0
C      1  0.3884090000000  0.3066570000000  0.6222440000000 1.0
C      1  0.2815580000000  0.5463280000000  0.6222670000000 1.0
C      1  0.4766150000000  0.7219990000000  0.6222230000000 1.0
C      1  0.5923520000000  0.3717520000000  0.6911440000000 1.0
C      1  0.6505320000000  0.5481930000000  0.6911640000000 1.0
C      1  0.5006610000000  0.6580140000000  0.6911910000000 1.0
C      1  0.3498390000000  0.5494980000000  0.6911880000000 1.0
C      1  0.4065600000000  0.3725390000000  0.6911710000000 1.0
C      1  0.5923520000000  0.6282520000000  0.6911490000000 1.0
C      1  0.6505340000000  0.4517870000000  0.6911610000000 1.0
C      1  0.5006570000000  0.3419690000000  0.6912080000000 1.0
C      1  0.3498440000000  0.4504870000000  0.6911870000000 1.0
C      1  0.4065640000000  0.6274680000000  0.6911580000000 1.0
C      1  0.7122620000000  0.5950280000000  0.4589460000000 1.0
C      1  0.4752370000000  0.7311860000000  0.4589270000000 1.0
C      1  0.2723690000000  0.5478970000000  0.4589660000000 1.0
C      1  0.3841680000000  0.2984510000000  0.4589680000000 1.0
C      1  0.6559540000000  0.3275040000000  0.4589370000000 1.0
C      1  0.7122710000000  0.4049800000000  0.4589400000000 1.0
C      1  0.4752340000000  0.2688330000000  0.4589440000000 1.0
C      1  0.2723660000000  0.4521210000000  0.4589880000000 1.0
C      1  0.3841420000000  0.7015710000000  0.4589760000000 1.0
C      1  0.6559530000000  0.6725020000000  0.4589420000000 1.0
END
