TITL C-1525613-7943-925 -0.0995846017703458 3375 -9104.14468383019 0 0 60 (C1) n - 1
REM
REM in /home/nfs/bkarasulu/CARBON/AIRSS/Generating-Clusters/ReaxFF-fromJPCA2015/Units_Real/Try2-Higher-symm/Only-C60
REM
REM
REM
REM
REM
REM ./C.cell (863b2abdce7293c0672fb3ba77bf323a)
REM AIRSS Version 0.9.1 bugfix July 2018 build 013d7b7c2542+ Fri, 06 Jul 2018 19:26:36 +0100
REM compiler GCC version 9.2.1 20190827 (Red Hat 9.2.1-1)
REM options -cpp -mtune=generic -march=x86-64 -g -O0 -fpre-include=/usr/include/finclude/math-vector-fortran.h
REM seed -74616048 -1215032555 444839534 527310940 450199647 -1735236457 -1306075054 -692060390 940401808 1167229242 55158314 -1310741732 760114874 916677039 -980552558 -688260659 -853891156 -737138963 1329231568 -592571552 -1223891720 -263071945 -1459791547 -9266209 -1695483599 -1791617007 -1485379430 691537806 -824960644 -1767011058 467184224 1190107900 -1335341955
REM
CELL 1.54180   15.00000   15.00000   15.00000   90.00000   90.00000   90.00000
LATT -1
SFAC C  
C      1  0.6438560000000  0.2612080000000  0.5395430000000 1.0
C      1  0.5870720000000  0.2717340000000  0.3675470000000 1.0
C      1  0.4044440000000  0.2605150000000  0.3830690000000 1.0
C      1  0.3541150000000  0.2595810000000  0.5551510000000 1.0
C      1  0.5064740000000  0.2647940000000  0.6546080000000 1.0
C      1  0.6429410000000  0.7381000000000  0.4615330000000 1.0
C      1  0.5880260000000  0.7268870000000  0.6339550000000 1.0
C      1  0.4047050000000  0.7393640000000  0.6160840000000 1.0
C      1  0.3525690000000  0.7411190000000  0.4444200000000 1.0
C      1  0.5058470000000  0.7353970000000  0.3458270000000 1.0
C      1  0.5027360000000  0.3914910000000  0.3238340000000 1.0
C      1  0.3230780000000  0.3875310000000  0.4394520000000 1.0
C      1  0.3855650000000  0.3871820000000  0.6482870000000 1.0
C      1  0.6077400000000  0.3906800000000  0.6512830000000 1.0
C      1  0.6827690000000  0.3878850000000  0.4479330000000 1.0
C      1  0.5031930000000  0.6090350000000  0.6763170000000 1.0
C      1  0.3226190000000  0.6125910000000  0.5596390000000 1.0
C      1  0.3855270000000  0.6136900000000  0.3514390000000 1.0
C      1  0.6069210000000  0.6091590000000  0.3494230000000 1.0
C      1  0.6835800000000  0.6112870000000  0.5521070000000 1.0
C      1  0.4151720000000  0.2953700000000  0.6263670000000 1.0
C      1  0.5928060000000  0.2986810000000  0.6173280000000 1.0
C      1  0.6397560000000  0.2993550000000  0.4472120000000 1.0
C      1  0.4921880000000  0.2999370000000  0.3552720000000 1.0
C      1  0.3529920000000  0.2951560000000  0.4616800000000 1.0
C      1  0.4143570000000  0.7053820000000  0.3738580000000 1.0
C      1  0.5914450000000  0.7008730000000  0.3840110000000 1.0
C      1  0.6402760000000  0.6996580000000  0.5538200000000 1.0
C      1  0.4924130000000  0.7004790000000  0.6451640000000 1.0
C      1  0.3526800000000  0.7049910000000  0.5375750000000 1.0
C      1  0.2851070000000  0.3179800000000  0.5819380000000 1.0
C      1  0.5085030000000  0.3269510000000  0.7260960000000 1.0
C      1  0.7194970000000  0.3140660000000  0.5596180000000 1.0
C      1  0.6327330000000  0.3148040000000  0.2884170000000 1.0
C      1  0.3572200000000  0.3176080000000  0.3245140000000 1.0
C      1  0.2842340000000  0.6819250000000  0.4175380000000 1.0
C      1  0.5080020000000  0.6734710000000  0.2741590000000 1.0
C      1  0.7185940000000  0.6857110000000  0.4403250000000 1.0
C      1  0.6337590000000  0.6840420000000  0.7133860000000 1.0
C      1  0.3570250000000  0.6827210000000  0.6746070000000 1.0
C      1  0.5367720000000  0.4164970000000  0.7170740000000 1.0
C      1  0.7227200000000  0.4064880000000  0.5386150000000 1.0
C      1  0.6007130000000  0.4073680000000  0.3098150000000 1.0
C      1  0.3439070000000  0.4095280000000  0.3437130000000 1.0
C      1  0.3010420000000  0.4098650000000  0.5991070000000 1.0
C      1  0.5370200000000  0.5840240000000  0.2824310000000 1.0
C      1  0.7222940000000  0.5931580000000  0.4607520000000 1.0
C      1  0.6015780000000  0.5920490000000  0.6901930000000 1.0
C      1  0.3429910000000  0.5908760000000  0.6554680000000 1.0
C      1  0.3007740000000  0.5903360000000  0.3997670000000 1.0
C      1  0.4300590000000  0.4545240000000  0.3196510000000 1.0
C      1  0.3024170000000  0.4524210000000  0.5080990000000 1.0
C      1  0.4465650000000  0.4514490000000  0.6896200000000 1.0
C      1  0.6685630000000  0.4525040000000  0.6087880000000 1.0
C      1  0.6565940000000  0.4516140000000  0.3801460000000 1.0
C      1  0.4294490000000  0.5469490000000  0.6805500000000 1.0
C      1  0.3023520000000  0.5477620000000  0.4907510000000 1.0
C      1  0.4465860000000  0.5498760000000  0.3095650000000 1.0
C      1  0.6673070000000  0.5467440000000  0.3915800000000 1.0
C      1  0.6577610000000  0.5475800000000  0.6199770000000 1.0
END
