TITL C-1525613-7943-2649 0.00273810105384472 3375 -8729.62099905304 0 0 60 (C5) n - 1
REM
REM in /home/nfs/bkarasulu/CARBON/AIRSS/Generating-Clusters/ReaxFF-fromJPCA2015/Units_Real/Try2-Higher-symm/Only-C60
REM
REM
REM
REM
REM
REM ./C.cell (863b2abdce7293c0672fb3ba77bf323a)
REM AIRSS Version 0.9.1 bugfix July 2018 build 013d7b7c2542+ Fri, 06 Jul 2018 19:26:36 +0100
REM compiler GCC version 9.2.1 20190827 (Red Hat 9.2.1-1)
REM options -cpp -mtune=generic -march=x86-64 -g -O0 -fpre-include=/usr/include/finclude/math-vector-fortran.h
REM seed -2006351750 680968746 895537943 -277715178 -2086681086 1548303534 1902848615 -854309491 -851093101 1528927013 -1681468271 551800852 -2130211945 -1039371623 -1039098465 -1035705076 988881739 352044383 556268604 913880429 1464783681 -1947242837 -1930341730 1852547788 -1224727330 -1165618715 752744136 1279397963 -1387227028 1274933544 -1276718957 972158343 818279100
REM
CELL 1.54180   15.00000   15.00000   15.00000   90.00000   90.00000   90.00000
LATT -1
SFAC C  
C      1  0.6422870000000  0.2524160000000  0.4610420000000 1.0
C      1  0.6425300000000  0.3865570000000  0.7215720000000 1.0
C      1  0.6423370000000  0.6761250000000  0.6762430000000 1.0
C      1  0.6409810000000  0.7240370000000  0.3872930000000 1.0
C      1  0.6431720000000  0.4569270000000  0.2528430000000 1.0
C      1  0.6422880000000  0.7475840000000  0.4610400000000 1.0
C      1  0.6425300000000  0.6134410000000  0.7215730000000 1.0
C      1  0.6423370000000  0.3238770000000  0.6762440000000 1.0
C      1  0.6409820000000  0.2759630000000  0.3872930000000 1.0
C      1  0.6431720000000  0.5430730000000  0.2528430000000 1.0
C      1  0.5183570000000  0.6160700000000  0.5840670000000 1.0
C      1  0.5196040000000  0.6162180000000  0.4156260000000 1.0
C      1  0.5201200000000  0.4559700000000  0.3630710000000 1.0
C      1  0.5181830000000  0.3560230000000  0.4991500000000 1.0
C      1  0.5185630000000  0.4553380000000  0.6357120000000 1.0
C      1  0.5183570000000  0.3839300000000  0.5840670000000 1.0
C      1  0.5196040000000  0.3837820000000  0.4156260000000 1.0
C      1  0.5201190000000  0.5440300000000  0.3630710000000 1.0
C      1  0.5181830000000  0.6439770000000  0.4991500000000 1.0
C      1  0.5185630000000  0.5446620000000  0.6357120000000 1.0
C      1  0.4987530000000  0.3145900000000  0.6546350000000 1.0
C      1  0.4989810000000  0.5898050000000  0.7237790000000 1.0
C      1  0.4980560000000  0.7427940000000  0.4840930000000 1.0
C      1  0.4992780000000  0.5591610000000  0.2659670000000 1.0
C      1  0.4991030000000  0.2956460000000  0.3721070000000 1.0
C      1  0.4987540000000  0.6854100000000  0.6546350000000 1.0
C      1  0.4989810000000  0.4101950000000  0.7237790000000 1.0
C      1  0.4980560000000  0.2572060000000  0.4840930000000 1.0
C      1  0.4992780000000  0.4408390000000  0.2659670000000 1.0
C      1  0.4991030000000  0.7043540000000  0.3721070000000 1.0
C      1  0.3477450000000  0.3696630000000  0.5953990000000 1.0
C      1  0.3477510000000  0.5502610000000  0.6535030000000 1.0
C      1  0.3475540000000  0.6616230000000  0.4998900000000 1.0
C      1  0.3482910000000  0.5494230000000  0.3468710000000 1.0
C      1  0.3481550000000  0.3691410000000  0.4058370000000 1.0
C      1  0.3477450000000  0.6303370000000  0.5953990000000 1.0
C      1  0.3477510000000  0.4497400000000  0.6535030000000 1.0
C      1  0.3475540000000  0.3383770000000  0.4998900000000 1.0
C      1  0.3482900000000  0.4505770000000  0.3468710000000 1.0
C      1  0.3481550000000  0.6308590000000  0.4058370000000 1.0
C      1  0.4066330000000  0.4515000000000  0.7332750000000 1.0
C      1  0.4062580000000  0.7069840000000  0.6185550000000 1.0
C      1  0.4068260000000  0.6762960000000  0.3401750000000 1.0
C      1  0.4070940000000  0.4022420000000  0.2832120000000 1.0
C      1  0.4057670000000  0.2625540000000  0.5264500000000 1.0
C      1  0.4066330000000  0.5485000000000  0.7332750000000 1.0
C      1  0.4062580000000  0.2930160000000  0.6185550000000 1.0
C      1  0.4068260000000  0.3237040000000  0.3401750000000 1.0
C      1  0.4070940000000  0.5977580000000  0.2832120000000 1.0
C      1  0.4057670000000  0.7374450000000  0.5264510000000 1.0
C      1  0.5850590000000  0.6952340000000  0.3177650000000 1.0
C      1  0.5855120000000  0.3846180000000  0.2597610000000 1.0
C      1  0.5855390000000  0.2359300000000  0.5342340000000 1.0
C      1  0.5859370000000  0.4508960000000  0.7604500000000 1.0
C      1  0.5855720000000  0.7331150000000  0.6274240000000 1.0
C      1  0.5850590000000  0.3047660000000  0.3177650000000 1.0
C      1  0.5855120000000  0.6153820000000  0.2597610000000 1.0
C      1  0.5855390000000  0.7640700000000  0.5342340000000 1.0
C      1  0.5859370000000  0.5491050000000  0.7604500000000 1.0
C      1  0.5855720000000  0.2668850000000  0.6274240000000 1.0
END
