TITL C-1525613-7943-3017 0.0375863928319288 3375 -8715.54770488223 0 0 60 (C1) n - 1
REM
REM in /home/nfs/bkarasulu/CARBON/AIRSS/Generating-Clusters/ReaxFF-fromJPCA2015/Units_Real/Try2-Higher-symm/Only-C60
REM
REM
REM
REM
REM
REM ./C.cell (863b2abdce7293c0672fb3ba77bf323a)
REM AIRSS Version 0.9.1 bugfix July 2018 build 013d7b7c2542+ Fri, 06 Jul 2018 19:26:36 +0100
REM compiler GCC version 9.2.1 20190827 (Red Hat 9.2.1-1)
REM options -cpp -mtune=generic -march=x86-64 -g -O0 -fpre-include=/usr/include/finclude/math-vector-fortran.h
REM seed -1887009133 -85366754 -1801535675 1105019650 512494902 -1018638851 510762057 -1890898247 -1784090033 814442438 -919328149 -1666501096 167861968 2129431156 920691215 466675795 1161003734 1397283823 332314433 757452882 1770646027 -1378879728 -1125207013 337730668 -263494538 1589659474 -338750225 -1201610399 -127826100 -1710142094 794838427 141459182 1368021098
REM
CELL 1.54180   15.00000   15.00000   15.00000   90.00000   90.00000   90.00000
LATT -1
SFAC C  
C      1  0.4475750000000  0.2821600000000  0.5477240000000 1.0
C      1  0.6878860000000  0.3821740000000  0.5489120000000 1.0
C      1  0.6725170000000  0.6464550000000  0.5496980000000 1.0
C      1  0.4136200000000  0.7021840000000  0.5466830000000 1.0
C      1  0.2766360000000  0.4805330000000  0.5460850000000 1.0
C      1  0.5523070000000  0.2819810000000  0.4521600000000 1.0
C      1  0.3117480000000  0.3822420000000  0.4511340000000 1.0
C      1  0.3271490000000  0.6466820000000  0.4501330000000 1.0
C      1  0.5866660000000  0.7025070000000  0.4528320000000 1.0
C      1  0.7233550000000  0.4804750000000  0.4541310000000 1.0
C      1  0.3980800000000  0.3748180000000  0.3092700000000 1.0
C      1  0.5866130000000  0.3629070000000  0.3103510000000 1.0
C      1  0.6537570000000  0.5394490000000  0.3136720000000 1.0
C      1  0.5097220000000  0.6597390000000  0.3105120000000 1.0
C      1  0.3486830000000  0.5590180000000  0.3101440000000 1.0
C      1  0.6018560000000  0.3749090000000  0.6907090000000 1.0
C      1  0.4133580000000  0.3630400000000  0.6894360000000 1.0
C      1  0.3465520000000  0.5397720000000  0.6863320000000 1.0
C      1  0.4906770000000  0.6600020000000  0.6892500000000 1.0
C      1  0.6513120000000  0.5592480000000  0.6902230000000 1.0
C      1  0.5844860000000  0.7036410000000  0.5506720000000 1.0
C      1  0.3292810000000  0.6419430000000  0.5465920000000 1.0
C      1  0.3115140000000  0.3824440000000  0.5476120000000 1.0
C      1  0.5511800000000  0.2825610000000  0.5490420000000 1.0
C      1  0.7220730000000  0.4823000000000  0.5519650000000 1.0
C      1  0.4154260000000  0.7038340000000  0.4489660000000 1.0
C      1  0.6704510000000  0.6417960000000  0.4530940000000 1.0
C      1  0.6882120000000  0.3826250000000  0.4524150000000 1.0
C      1  0.4486710000000  0.2828590000000  0.4508720000000 1.0
C      1  0.2777110000000  0.4823270000000  0.4484780000000 1.0
C      1  0.4522610000000  0.5680210000000  0.5503090000000 1.0
C      1  0.4254670000000  0.4740340000000  0.5564900000000 1.0
C      1  0.5069080000000  0.4192160000000  0.5488910000000 1.0
C      1  0.5858300000000  0.4774070000000  0.5444060000000 1.0
C      1  0.5509050000000  0.5704810000000  0.5522440000000 1.0
C      1  0.5471970000000  0.5686870000000  0.4506720000000 1.0
C      1  0.5750350000000  0.4756580000000  0.4438130000000 1.0
C      1  0.4942610000000  0.4199750000000  0.4497060000000 1.0
C      1  0.4143780000000  0.4771640000000  0.4554330000000 1.0
C      1  0.4486320000000  0.5704260000000  0.4487310000000 1.0
C      1  0.6957620000000  0.5656320000000  0.5983150000000 1.0
C      1  0.4967860000000  0.7022860000000  0.5966410000000 1.0
C      1  0.3047020000000  0.5600530000000  0.5939790000000 1.0
C      1  0.3803100000000  0.3330340000000  0.5963190000000 1.0
C      1  0.6196350000000  0.3334070000000  0.5976250000000 1.0
C      1  0.3039020000000  0.5655410000000  0.4019720000000 1.0
C      1  0.5032110000000  0.7019700000000  0.4032420000000 1.0
C      1  0.6954750000000  0.5598810000000  0.4059720000000 1.0
C      1  0.6194010000000  0.3332560000000  0.4036590000000 1.0
C      1  0.3800750000000  0.3335000000000  0.4023470000000 1.0
C      1  0.4238050000000  0.6198470000000  0.2891250000000 1.0
C      1  0.3620940000000  0.4656590000000  0.2907840000000 1.0
C      1  0.4905870000000  0.3660230000000  0.3034970000000 1.0
C      1  0.6231960000000  0.4498880000000  0.3046530000000 1.0
C      1  0.5909590000000  0.6098060000000  0.2858120000000 1.0
C      1  0.5765460000000  0.6203700000000  0.7118270000000 1.0
C      1  0.6378610000000  0.4657270000000  0.7089550000000 1.0
C      1  0.5093360000000  0.3662090000000  0.6960000000000 1.0
C      1  0.3769880000000  0.4501520000000  0.6956710000000 1.0
C      1  0.4094210000000  0.6100690000000  0.7138130000000 1.0
END
