TITL C-1525613-7943-7751 0.028130558280409 3375 -9021.99014925061 0 0 60 (C1) n - 1
REM
REM in /home/nfs/bkarasulu/CARBON/AIRSS/Generating-Clusters/ReaxFF-fromJPCA2015/Units_Real/Try2-Higher-symm/Only-C60
REM
REM
REM
REM
REM
REM ./C.cell (863b2abdce7293c0672fb3ba77bf323a)
REM AIRSS Version 0.9.1 bugfix July 2018 build 013d7b7c2542+ Fri, 06 Jul 2018 19:26:36 +0100
REM compiler GCC version 9.2.1 20190827 (Red Hat 9.2.1-1)
REM options -cpp -mtune=generic -march=x86-64 -g -O0 -fpre-include=/usr/include/finclude/math-vector-fortran.h
REM seed -1878528687 -1254274758 1423005008 1186852125 -1822349073 1928123777 -592249982 466373463 1586723249 -783681943 -1160665527 -2065311815 657465435 307902494 55553844 236959909 1814992122 -626675764 -743403921 1947304206 1007062374 154571566 -168589991 -670781865 -959235895 2140692106 -301612026 992343235 -1470480188 -206089317 -1036921147 -1152324496 -1098178991
REM
CELL 1.54180   15.00000   15.00000   15.00000   90.00000   90.00000   90.00000
LATT -1
SFAC C  
C      1  0.4961590000000  0.7376820000000  0.5494100000000 1.0
C      1  0.5090930000000  0.6219340000000  0.2774190000000 1.0
C      1  0.4922780000000  0.3335680000000  0.3140080000000 1.0
C      1  0.5026150000000  0.2883210000000  0.5970190000000 1.0
C      1  0.4964850000000  0.5273540000000  0.7480770000000 1.0
C      1  0.5032050000000  0.7378820000000  0.4501820000000 1.0
C      1  0.4908060000000  0.6219980000000  0.7223710000000 1.0
C      1  0.5072250000000  0.3320700000000  0.6883770000000 1.0
C      1  0.4979740000000  0.2966220000000  0.4078300000000 1.0
C      1  0.5036770000000  0.5273670000000  0.2511940000000 1.0
C      1  0.3417690000000  0.3412950000000  0.5600370000000 1.0
C      1  0.3425250000000  0.4861650000000  0.6843710000000 1.0
C      1  0.3590470000000  0.6608730000000  0.5180610000000 1.0
C      1  0.3631110000000  0.6005000000000  0.3543860000000 1.0
C      1  0.3559290000000  0.4166070000000  0.3757000000000 1.0
C      1  0.6589360000000  0.3405680000000  0.4403300000000 1.0
C      1  0.6565120000000  0.4861940000000  0.3176630000000 1.0
C      1  0.6416340000000  0.6618460000000  0.4809340000000 1.0
C      1  0.6321990000000  0.5965390000000  0.6414510000000 1.0
C      1  0.6432650000000  0.4162010000000  0.6243590000000 1.0
C      1  0.4182610000000  0.4686310000000  0.7458570000000 1.0
C      1  0.4134180000000  0.7061890000000  0.5876040000000 1.0
C      1  0.4274650000000  0.6641470000000  0.3105150000000 1.0
C      1  0.4137830000000  0.3857500000000  0.2948760000000 1.0
C      1  0.4086200000000  0.2686160000000  0.5536540000000 1.0
C      1  0.5816880000000  0.4685390000000  0.2553000000000 1.0
C      1  0.5862650000000  0.7065360000000  0.4117630000000 1.0
C      1  0.5719840000000  0.6633680000000  0.6883160000000 1.0
C      1  0.5858680000000  0.3847060000000  0.7050270000000 1.0
C      1  0.5904030000000  0.2688480000000  0.4465880000000 1.0
C      1  0.6463220000000  0.3959400000000  0.3574440000000 1.0
C      1  0.6606170000000  0.3407080000000  0.5396540000000 1.0
C      1  0.6515120000000  0.5042910000000  0.6750540000000 1.0
C      1  0.6518360000000  0.6769190000000  0.5756320000000 1.0
C      1  0.6247540000000  0.5687590000000  0.3598520000000 1.0
C      1  0.3532500000000  0.3963610000000  0.6439910000000 1.0
C      1  0.3404950000000  0.3423750000000  0.4607390000000 1.0
C      1  0.3498460000000  0.5062340000000  0.3251670000000 1.0
C      1  0.3473010000000  0.6768650000000  0.4231480000000 1.0
C      1  0.3739010000000  0.5689090000000  0.6417630000000 1.0
C      1  0.5734690000000  0.7222530000000  0.6093050000000 1.0
C      1  0.5864830000000  0.6526800000000  0.3293130000000 1.0
C      1  0.5774370000000  0.3747500000000  0.2896350000000 1.0
C      1  0.5967460000000  0.2696980000000  0.5433880000000 1.0
C      1  0.5816170000000  0.4775850000000  0.7357740000000 1.0
C      1  0.4263440000000  0.7224590000000  0.3902520000000 1.0
C      1  0.4118780000000  0.6538440000000  0.6718130000000 1.0
C      1  0.4225380000000  0.3748540000000  0.7111350000000 1.0
C      1  0.4043620000000  0.2708830000000  0.4568440000000 1.0
C      1  0.4183200000000  0.4781660000000  0.2633290000000 1.0
C      1  0.5508950000000  0.5502140000000  0.4180560000000 1.0
C      1  0.4987490000000  0.3906060000000  0.4589910000000 1.0
C      1  0.5710670000000  0.4460200000000  0.5619740000000 1.0
C      1  0.5524750000000  0.5421360000000  0.5764310000000 1.0
C      1  0.5935300000000  0.5782330000000  0.4941010000000 1.0
C      1  0.4479280000000  0.5460920000000  0.5818180000000 1.0
C      1  0.5030610000000  0.3811860000000  0.5535930000000 1.0
C      1  0.4336650000000  0.4513490000000  0.4244730000000 1.0
C      1  0.4519120000000  0.5459860000000  0.4205310000000 1.0
C      1  0.4054880000000  0.5767300000000  0.5041240000000 1.0
END
