TITL C-1525613-7943-3365 0.0107272362079656 3375 -9399.19942029511 0 0 60 (C1) n - 1
REM
REM in /home/nfs/bkarasulu/CARBON/AIRSS/Generating-Clusters/ReaxFF-fromJPCA2015/Units_Real/Try2-Higher-symm/Only-C60
REM
REM
REM
REM
REM
REM ./C.cell (863b2abdce7293c0672fb3ba77bf323a)
REM AIRSS Version 0.9.1 bugfix July 2018 build 013d7b7c2542+ Fri, 06 Jul 2018 19:26:36 +0100
REM compiler GCC version 9.2.1 20190827 (Red Hat 9.2.1-1)
REM options -cpp -mtune=generic -march=x86-64 -g -O0 -fpre-include=/usr/include/finclude/math-vector-fortran.h
REM seed 1292754124 -1815571040 1004979539 301886389 2064117249 56377884 1371763220 342746667 1159216787 1923662573 -1466698684 1763911738 -1476975373 -774559148 1459585810 812331410 -1257661698 -442120634 -1995567583 635702867 1616746453 746498343 -1665559361 -1648680659 1607659186 599381103 -2018837977 -2095345274 -1216044461 -1178344593 1405562074 -1424832763 2042284524
REM
CELL 1.54180   15.00000   15.00000   15.00000   90.00000   90.00000   90.00000
LATT -1
SFAC C  
C      1  0.3496180000000  0.3034140000000  0.4522930000000 1.0
C      1  0.4996440000000  0.3059010000000  0.3429990000000 1.0
C      1  0.6501900000000  0.3063710000000  0.4511890000000 1.0
C      1  0.5939520000000  0.3046530000000  0.6281930000000 1.0
C      1  0.4103750000000  0.3095310000000  0.6268050000000 1.0
C      1  0.3509630000000  0.3041860000000  0.5489770000000 1.0
C      1  0.4998080000000  0.3077120000000  0.6570160000000 1.0
C      1  0.6509470000000  0.3051300000000  0.5497100000000 1.0
C      1  0.5932590000000  0.3066410000000  0.3734210000000 1.0
C      1  0.4072310000000  0.3025830000000  0.3717800000000 1.0
C      1  0.3363650000000  0.7050310000000  0.6809880000000 1.0
C      1  0.2784200000000  0.7063720000000  0.3994700000000 1.0
C      1  0.5275730000000  0.7051530000000  0.2576920000000 1.0
C      1  0.7395160000000  0.7050820000000  0.4506770000000 1.0
C      1  0.6212800000000  0.7051650000000  0.7122620000000 1.0
C      1  0.3364110000000  0.7060340000000  0.3193240000000 1.0
C      1  0.2784920000000  0.7061540000000  0.6007490000000 1.0
C      1  0.5271690000000  0.7047530000000  0.7429640000000 1.0
C      1  0.7393920000000  0.7052740000000  0.5496370000000 1.0
C      1  0.6218310000000  0.7050090000000  0.2879900000000 1.0
C      1  0.6561310000000  0.4562850000000  0.6716910000000 1.0
C      1  0.3861500000000  0.4555220000000  0.6992130000000 1.0
C      1  0.2689770000000  0.4561590000000  0.4517080000000 1.0
C      1  0.4758320000000  0.4565280000000  0.2699340000000 1.0
C      1  0.7102990000000  0.4561170000000  0.4062350000000 1.0
C      1  0.6546590000000  0.4560660000000  0.3297890000000 1.0
C      1  0.3844010000000  0.4559890000000  0.2970540000000 1.0
C      1  0.2694180000000  0.4563560000000  0.5481220000000 1.0
C      1  0.4761770000000  0.4558200000000  0.7284780000000 1.0
C      1  0.7112490000000  0.4563390000000  0.5951730000000 1.0
C      1  0.7282850000000  0.5381000000000  0.5486380000000 1.0
C      1  0.5253610000000  0.5376900000000  0.7313690000000 1.0
C      1  0.2856860000000  0.5389180000000  0.5956700000000 1.0
C      1  0.3428800000000  0.5384620000000  0.3254550000000 1.0
C      1  0.6163270000000  0.5379380000000  0.2987190000000 1.0
C      1  0.7279910000000  0.5379840000000  0.4523980000000 1.0
C      1  0.5249600000000  0.5381440000000  0.2686820000000 1.0
C      1  0.2851090000000  0.5388640000000  0.4038900000000 1.0
C      1  0.3442270000000  0.5378790000000  0.6728820000000 1.0
C      1  0.6170660000000  0.5379270000000  0.7021010000000 1.0
C      1  0.2937650000000  0.3725840000000  0.5916040000000 1.0
C      1  0.3489860000000  0.3708890000000  0.3298240000000 1.0
C      1  0.6108240000000  0.3758270000000  0.3090100000000 1.0
C      1  0.7181030000000  0.3756010000000  0.5468560000000 1.0
C      1  0.5235550000000  0.3756270000000  0.7195680000000 1.0
C      1  0.2911300000000  0.3709160000000  0.4088180000000 1.0
C      1  0.3539700000000  0.3748370000000  0.6648440000000 1.0
C      1  0.6127380000000  0.3750880000000  0.6937000000000 1.0
C      1  0.7168600000000  0.3758090000000  0.4543800000000 1.0
C      1  0.5233570000000  0.3757830000000  0.2791260000000 1.0
C      1  0.6601230000000  0.6202350000000  0.6758550000000 1.0
C      1  0.3828740000000  0.6197910000000  0.7060920000000 1.0
C      1  0.2673770000000  0.6213920000000  0.4516240000000 1.0
C      1  0.4746380000000  0.6203480000000  0.2644220000000 1.0
C      1  0.7165960000000  0.6199810000000  0.4028650000000 1.0
C      1  0.6599810000000  0.6199170000000  0.3247710000000 1.0
C      1  0.3825600000000  0.6207890000000  0.2934200000000 1.0
C      1  0.2674520000000  0.6213980000000  0.5482420000000 1.0
C      1  0.4747270000000  0.6196460000000  0.7358310000000 1.0
C      1  0.7167650000000  0.6203080000000  0.5978110000000 1.0
END
