TITL C-1525613-7943-6394 0.558007928124595 3375 -8223.92796117317 0 0 60 (C1) n - 1
REM
REM in /home/nfs/bkarasulu/CARBON/AIRSS/Generating-Clusters/ReaxFF-fromJPCA2015/Units_Real/Try2-Higher-symm/Only-C60
REM
REM
REM
REM
REM
REM ./C.cell (863b2abdce7293c0672fb3ba77bf323a)
REM AIRSS Version 0.9.1 bugfix July 2018 build 013d7b7c2542+ Fri, 06 Jul 2018 19:26:36 +0100
REM compiler GCC version 9.2.1 20190827 (Red Hat 9.2.1-1)
REM options -cpp -mtune=generic -march=x86-64 -g -O0 -fpre-include=/usr/include/finclude/math-vector-fortran.h
REM seed 248877270 1255059305 -1673647323 -1132407087 1620087664 1365435409 -1806848603 1133393298 -1452087629 2009047451 901892988 -456631304 698633745 187759506 -352433418 -1950959008 831681458 1793799877 -896834210 -1950567104 329086142 1594272687 1403311829 1973698946 -380691332 1073493376 1233763347 873626988 1280165237 -1323894411 -1757631850 1839146225 719256033
REM
CELL 1.54180   15.00000   15.00000   15.00000   90.00000   90.00000   90.00000
LATT -1
SFAC C  
C      1  0.6262980000000  0.5996800000000  0.4070990000000 1.0
C      1  0.4513790000000  0.6012190000000  0.3513470000000 1.0
C      1  0.3388250000000  0.5965870000000  0.5003410000000 1.0
C      1  0.4519410000000  0.5989950000000  0.6496610000000 1.0
C      1  0.6313630000000  0.5968260000000  0.5946810000000 1.0
C      1  0.3733550000000  0.5998090000000  0.4077560000000 1.0
C      1  0.5475860000000  0.6011750000000  0.3507640000000 1.0
C      1  0.6590730000000  0.5987010000000  0.4992170000000 1.0
C      1  0.5485650000000  0.5989290000000  0.6495870000000 1.0
C      1  0.3699420000000  0.5962550000000  0.5958590000000 1.0
C      1  0.4524390000000  0.4671470000000  0.2721790000000 1.0
C      1  0.2755640000000  0.4751140000000  0.4782990000000 1.0
C      1  0.4052900000000  0.4680500000000  0.7116370000000 1.0
C      1  0.6686350000000  0.4755990000000  0.6488690000000 1.0
C      1  0.7008520000000  0.4675880000000  0.3845400000000 1.0
C      1  0.5475540000000  0.4670860000000  0.2721180000000 1.0
C      1  0.7276530000000  0.4718160000000  0.4760080000000 1.0
C      1  0.5946920000000  0.4681370000000  0.7115230000000 1.0
C      1  0.3310840000000  0.4750170000000  0.6494210000000 1.0
C      1  0.2989100000000  0.4677920000000  0.3844350000000 1.0
C      1  0.2802100000000  0.5358600000000  0.7173430000000 1.0
C      1  0.6397120000000  0.5344150000000  0.7769610000000 1.0
C      1  0.8057440000000  0.5361630000000  0.4536850000000 1.0
C      1  0.5499330000000  0.5362040000000  0.1943820000000 1.0
C      1  0.2243580000000  0.5344530000000  0.3578510000000 1.0
C      1  0.7197330000000  0.5358410000000  0.7173040000000 1.0
C      1  0.3602730000000  0.5344490000000  0.7769800000000 1.0
C      1  0.1944580000000  0.5358150000000  0.4531420000000 1.0
C      1  0.4500570000000  0.5362210000000  0.1944000000000 1.0
C      1  0.7755860000000  0.5346900000000  0.3582470000000 1.0
C      1  0.3713630000000  0.3159900000000  0.5939980000000 1.0
C      1  0.5494540000000  0.3151440000000  0.6508920000000 1.0
C      1  0.6591370000000  0.3158610000000  0.4998360000000 1.0
C      1  0.5486280000000  0.3149980000000  0.3492270000000 1.0
C      1  0.3710490000000  0.3146230000000  0.4071880000000 1.0
C      1  0.6285620000000  0.3159770000000  0.5940840000000 1.0
C      1  0.4504820000000  0.3151730000000  0.6508460000000 1.0
C      1  0.3406640000000  0.3158900000000  0.4996870000000 1.0
C      1  0.4512920000000  0.3150970000000  0.3492030000000 1.0
C      1  0.6289010000000  0.3145760000000  0.4073610000000 1.0
C      1  0.4502140000000  0.6961040000000  0.6489870000000 1.0
C      1  0.6291640000000  0.6962510000000  0.5946190000000 1.0
C      1  0.6286070000000  0.6972350000000  0.4079220000000 1.0
C      1  0.4516170000000  0.6983810000000  0.3496350000000 1.0
C      1  0.3396200000000  0.6959390000000  0.5004010000000 1.0
C      1  0.5491040000000  0.6959640000000  0.6491720000000 1.0
C      1  0.3702660000000  0.6954550000000  0.5926150000000 1.0
C      1  0.3719130000000  0.6969460000000  0.4076740000000 1.0
C      1  0.5492950000000  0.6983100000000  0.3502860000000 1.0
C      1  0.6597780000000  0.6956690000000  0.5021260000000 1.0
C      1  0.3034650000000  0.3858220000000  0.6149420000000 1.0
C      1  0.5490500000000  0.3823860000000  0.7242830000000 1.0
C      1  0.7269550000000  0.3853440000000  0.5228320000000 1.0
C      1  0.5926380000000  0.3816840000000  0.2898960000000 1.0
C      1  0.3281140000000  0.3818600000000  0.3474680000000 1.0
C      1  0.6960210000000  0.3861410000000  0.6150670000000 1.0
C      1  0.4509740000000  0.3823060000000  0.7243650000000 1.0
C      1  0.2735750000000  0.3859780000000  0.5224910000000 1.0
C      1  0.4072840000000  0.3818050000000  0.2899210000000 1.0
C      1  0.6717520000000  0.3814600000000  0.3473360000000 1.0
END
