TITL C-1525613-7943-4219 -0.214988061322626 3375 -9050.13191119399 0 0 60 (C5) n - 1
REM
REM in /home/nfs/bkarasulu/CARBON/AIRSS/Generating-Clusters/ReaxFF-fromJPCA2015/Units_Real/Try2-Higher-symm/Only-C60
REM
REM
REM
REM
REM
REM ./C.cell (863b2abdce7293c0672fb3ba77bf323a)
REM AIRSS Version 0.9.1 bugfix July 2018 build 013d7b7c2542+ Fri, 06 Jul 2018 19:26:36 +0100
REM compiler GCC version 9.2.1 20190827 (Red Hat 9.2.1-1)
REM options -cpp -mtune=generic -march=x86-64 -g -O0 -fpre-include=/usr/include/finclude/math-vector-fortran.h
REM seed -1394010200 -882920585 510268574 -241101706 1004788193 -1922849085 -1470865956 1784497365 -663414840 1476644882 -1796111627 2074468126 12894040 -1443767347 -828513600 810367078 1244812538 1352784016 -926563280 12536372 113827798 1289889451 2104031113 -281877381 -257318660 -575600244 -1456522925 305975610 -2120503248 2119002230 380791883 -1006820470 -1299885487
REM
CELL 1.54180   15.00000   15.00000   15.00000   90.00000   90.00000   90.00000
LATT -1
SFAC C  
C      1  0.4519060000000  0.2845090000000  0.5161800000000 1.0
C      1  0.4518470000000  0.4493310000000  0.7065140000000 1.0
C      1  0.4514410000000  0.6850610000000  0.6120240000000 1.0
C      1  0.4517010000000  0.6651180000000  0.3593240000000 1.0
C      1  0.4515360000000  0.4165290000000  0.2989120000000 1.0
C      1  0.5482810000000  0.2843910000000  0.5161490000000 1.0
C      1  0.5481620000000  0.4494850000000  0.7065730000000 1.0
C      1  0.5483300000000  0.6853270000000  0.6125490000000 1.0
C      1  0.5483210000000  0.6646110000000  0.3597890000000 1.0
C      1  0.5483570000000  0.4165060000000  0.2988480000000 1.0
C      1  0.2541540000000  0.5809660000000  0.4804770000000 1.0
C      1  0.2541250000000  0.5058730000000  0.4172100000000 1.0
C      1  0.2540520000000  0.4221860000000  0.4686060000000 1.0
C      1  0.2541090000000  0.4451830000000  0.5641240000000 1.0
C      1  0.2551190000000  0.5432230000000  0.5711560000000 1.0
C      1  0.7458380000000  0.5809080000000  0.4806290000000 1.0
C      1  0.7456820000000  0.5058290000000  0.4172720000000 1.0
C      1  0.7457000000000  0.4221010000000  0.4686070000000 1.0
C      1  0.7456570000000  0.4451190000000  0.5640780000000 1.0
C      1  0.7455890000000  0.5431980000000  0.5714330000000 1.0
C      1  0.3975280000000  0.3000580000000  0.4330480000000 1.0
C      1  0.3971440000000  0.3734840000000  0.6698310000000 1.0
C      1  0.3967420000000  0.6246490000000  0.6706830000000 1.0
C      1  0.3967920000000  0.7009550000000  0.4351230000000 1.0
C      1  0.3973310000000  0.5006570000000  0.2898340000000 1.0
C      1  0.6026290000000  0.2996640000000  0.4329260000000 1.0
C      1  0.6027970000000  0.3735110000000  0.6698980000000 1.0
C      1  0.6029620000000  0.6246100000000  0.6706500000000 1.0
C      1  0.6029800000000  0.7011170000000  0.4350130000000 1.0
C      1  0.6022670000000  0.5007800000000  0.2895770000000 1.0
C      1  0.5485230000000  0.3310960000000  0.3545690000000 1.0
C      1  0.5485300000000  0.3094640000000  0.6152410000000 1.0
C      1  0.5482180000000  0.5518920000000  0.7121690000000 1.0
C      1  0.5484490000000  0.7199600000000  0.5163900000000 1.0
C      1  0.5484480000000  0.5848860000000  0.2956200000000 1.0
C      1  0.4515890000000  0.3310500000000  0.3546180000000 1.0
C      1  0.4516390000000  0.3095110000000  0.6151900000000 1.0
C      1  0.4515110000000  0.5517030000000  0.7115960000000 1.0
C      1  0.4513600000000  0.7207190000000  0.5165370000000 1.0
C      1  0.4515630000000  0.5849140000000  0.2960040000000 1.0
C      1  0.6744470000000  0.6478230000000  0.4751650000000 1.0
C      1  0.6716070000000  0.5221100000000  0.3549590000000 1.0
C      1  0.6715120000000  0.3687230000000  0.4331130000000 1.0
C      1  0.6744870000000  0.3926630000000  0.6064430000000 1.0
C      1  0.6765690000000  0.5702710000000  0.6355880000000 1.0
C      1  0.3260400000000  0.6474740000000  0.4758750000000 1.0
C      1  0.3286240000000  0.5222530000000  0.3555790000000 1.0
C      1  0.3281890000000  0.3687560000000  0.4331300000000 1.0
C      1  0.3250720000000  0.3929290000000  0.6068330000000 1.0
C      1  0.3234710000000  0.5703870000000  0.6357600000000 1.0
C      1  0.6013960000000  0.5174730000000  0.4239480000000 1.0
C      1  0.6016270000000  0.4319410000000  0.4616840000000 1.0
C      1  0.6066380000000  0.4422850000000  0.5542380000000 1.0
C      1  0.6096540000000  0.5327760000000  0.5732660000000 1.0
C      1  0.6055670000000  0.5796630000000  0.4934290000000 1.0
C      1  0.3993380000000  0.5169590000000  0.4240150000000 1.0
C      1  0.3982100000000  0.4320940000000  0.4615980000000 1.0
C      1  0.3929560000000  0.4416900000000  0.5538760000000 1.0
C      1  0.3904600000000  0.5324850000000  0.5734410000000 1.0
C      1  0.3952270000000  0.5791130000000  0.4930890000000 1.0
END
