TITL C-1525613-7943-1217 -0.00595660564717922 3375 -9176.43400888776 0 0 60 (C1) n - 1
REM
REM in /home/nfs/bkarasulu/CARBON/AIRSS/Generating-Clusters/ReaxFF-fromJPCA2015/Units_Real/Try2-Higher-symm/Only-C60
REM
REM
REM
REM
REM
REM ./C.cell (863b2abdce7293c0672fb3ba77bf323a)
REM AIRSS Version 0.9.1 bugfix July 2018 build 013d7b7c2542+ Fri, 06 Jul 2018 19:26:36 +0100
REM compiler GCC version 9.2.1 20190827 (Red Hat 9.2.1-1)
REM options -cpp -mtune=generic -march=x86-64 -g -O0 -fpre-include=/usr/include/finclude/math-vector-fortran.h
REM seed -1958072792 1532780895 1188728390 -812378460 -627585903 -1056359323 1711981592 -662478885 -701481099 174043199 -1506257563 540712318 701945478 -1561695621 -469250328 -780248584 -337017796 568766214 1312979355 661995315 1345542397 52177992 -253817841 -753983393 400160938 -156788598 -1849888402 -787882465 894288822 1060731979 789840880 -1758400304 -907349805
REM
CELL 1.54180   15.00000   15.00000   15.00000   90.00000   90.00000   90.00000
LATT -1
SFAC C  
C      1  0.3561880000000  0.6942450000000  0.5996060000000 1.0
C      1  0.2693580000000  0.5719220000000  0.6003470000000 1.0
C      1  0.2724080000000  0.4222280000000  0.5977400000000 1.0
C      1  0.3627430000000  0.3024580000000  0.5983180000000 1.0
C      1  0.5041380000000  0.2548990000000  0.6088600000000 1.0
C      1  0.6462160000000  0.3031110000000  0.6093130000000 1.0
C      1  0.7292510000000  0.4268260000000  0.5985420000000 1.0
C      1  0.7288890000000  0.5766830000000  0.5987340000000 1.0
C      1  0.6417600000000  0.6994020000000  0.6033730000000 1.0
C      1  0.4983520000000  0.7445520000000  0.6036210000000 1.0
C      1  0.2796810000000  0.3333880000000  0.5568190000000 1.0
C      1  0.4222170000000  0.2363420000000  0.5584550000000 1.0
C      1  0.5922610000000  0.2289700000000  0.5769150000000 1.0
C      1  0.7226680000000  0.3380100000000  0.5589770000000 1.0
C      1  0.7765390000000  0.5017170000000  0.5568670000000 1.0
C      1  0.7235660000000  0.6668750000000  0.5617420000000 1.0
C      1  0.5830530000000  0.7635620000000  0.5576290000000 1.0
C      1  0.4126570000000  0.7645620000000  0.5615900000000 1.0
C      1  0.2738210000000  0.6603330000000  0.5584170000000 1.0
C      1  0.2219180000000  0.4967530000000  0.5601440000000 1.0
C      1  0.5676740000000  0.7155560000000  0.3877870000000 1.0
C      1  0.3977250000000  0.7252060000000  0.3819600000000 1.0
C      1  0.3129560000000  0.6675990000000  0.3770230000000 1.0
C      1  0.2433630000000  0.4704220000000  0.3784860000000 1.0
C      1  0.2786130000000  0.3729200000000  0.3757100000000 1.0
C      1  0.4843190000000  0.2752680000000  0.3895610000000 1.0
C      1  0.5831800000000  0.2590160000000  0.4050060000000 1.0
C      1  0.6529000000000  0.3302110000000  0.3878810000000 1.0
C      1  0.7553490000000  0.5334140000000  0.3747800000000 1.0
C      1  0.7210800000000  0.6308940000000  0.3798340000000 1.0
C      1  0.6026040000000  0.2002810000000  0.4805420000000 1.0
C      1  0.7183730000000  0.3316410000000  0.4592870000000 1.0
C      1  0.7924840000000  0.5014100000000  0.4588350000000 1.0
C      1  0.7376280000000  0.6770310000000  0.4630880000000 1.0
C      1  0.5769220000000  0.7447350000000  0.4659440000000 1.0
C      1  0.4084320000000  0.7780750000000  0.4626660000000 1.0
C      1  0.2620690000000  0.6676220000000  0.4600350000000 1.0
C      1  0.2023580000000  0.4972170000000  0.4620050000000 1.0
C      1  0.2667100000000  0.3235070000000  0.4587150000000 1.0
C      1  0.4297350000000  0.2346200000000  0.4587370000000 1.0
C      1  0.6488120000000  0.5504950000000  0.6457840000000 1.0
C      1  0.5920750000000  0.6297140000000  0.6481390000000 1.0
C      1  0.4990010000000  0.6588680000000  0.6481190000000 1.0
C      1  0.4070590000000  0.6263820000000  0.6455380000000 1.0
C      1  0.3508120000000  0.5469870000000  0.6460010000000 1.0
C      1  0.3522210000000  0.4497830000000  0.6446790000000 1.0
C      1  0.4105420000000  0.3720840000000  0.6454790000000 1.0
C      1  0.5025880000000  0.3418540000000  0.6517540000000 1.0
C      1  0.5945490000000  0.3731450000000  0.6520930000000 1.0
C      1  0.6490650000000  0.4532580000000  0.6457180000000 1.0
C      1  0.3691300000000  0.5920090000000  0.3427240000000 1.0
C      1  0.3358310000000  0.5000140000000  0.3487260000000 1.0
C      1  0.3654870000000  0.4091320000000  0.3431930000000 1.0
C      1  0.4554650000000  0.3638820000000  0.3451980000000 1.0
C      1  0.5363950000000  0.3995680000000  0.3394650000000 1.0
C      1  0.6232650000000  0.4175110000000  0.3410380000000 1.0
C      1  0.6673360000000  0.5077450000000  0.3363700000000 1.0
C      1  0.6301090000000  0.5956630000000  0.3492030000000 1.0
C      1  0.5465640000000  0.6460200000000  0.3294810000000 1.0
C      1  0.4515390000000  0.6424020000000  0.3574110000000 1.0
END
