TITL C-1525613-7943-906 0.385549403666423 3375 -8194.43303210601 0 0 60 (C1) n - 1
REM
REM in /home/nfs/bkarasulu/CARBON/AIRSS/Generating-Clusters/ReaxFF-fromJPCA2015/Units_Real/Try2-Higher-symm/Only-C60
REM
REM
REM
REM
REM
REM ./C.cell (863b2abdce7293c0672fb3ba77bf323a)
REM AIRSS Version 0.9.1 bugfix July 2018 build 013d7b7c2542+ Fri, 06 Jul 2018 19:26:36 +0100
REM compiler GCC version 9.2.1 20190827 (Red Hat 9.2.1-1)
REM options -cpp -mtune=generic -march=x86-64 -g -O0 -fpre-include=/usr/include/finclude/math-vector-fortran.h
REM seed 946485028 300282235 -1922402982 581566506 -1778020450 -1458238729 -672384161 -965643476 968248944 -1863826606 1146875123 247280019 -1594472769 1676788183 -671512656 -2137790205 1083546001 -1028481699 662230330 -1445063706 -306505354 1936445765 -225477598 -2040761022 419077993 390605370 529024254 1224367924 -30114057 1799056816 -499857033 2048841078 1833828159
REM
CELL 1.54180   15.00000   15.00000   15.00000   90.00000   90.00000   90.00000
LATT -1
SFAC C  
C      1  0.4477110000000  0.1986810000000  0.4110990000000 1.0
C      1  0.1987540000000  0.4543160000000  0.4122250000000 1.0
C      1  0.3634290000000  0.7728230000000  0.4121790000000 1.0
C      1  0.7168530000000  0.7115590000000  0.4131150000000 1.0
C      1  0.7712540000000  0.3628590000000  0.4134870000000 1.0
C      1  0.5474980000000  0.1989990000000  0.4129310000000 1.0
C      1  0.8030520000000  0.4574600000000  0.4107250000000 1.0
C      1  0.6367500000000  0.7711480000000  0.4117760000000 1.0
C      1  0.2835650000000  0.7130020000000  0.4136210000000 1.0
C      1  0.2307580000000  0.3597040000000  0.4137800000000 1.0
C      1  0.5497290000000  0.3486580000000  0.7185220000000 1.0
C      1  0.3714250000000  0.4059660000000  0.7185160000000 1.0
C      1  0.3708700000000  0.5932090000000  0.7188570000000 1.0
C      1  0.5488110000000  0.6515970000000  0.7189060000000 1.0
C      1  0.6593710000000  0.5004490000000  0.7184140000000 1.0
C      1  0.4503520000000  0.3486640000000  0.7185640000000 1.0
C      1  0.6286550000000  0.4059620000000  0.7183340000000 1.0
C      1  0.6292180000000  0.5932040000000  0.7187750000000 1.0
C      1  0.4512760000000  0.6515960000000  0.7189120000000 1.0
C      1  0.3407070000000  0.5004570000000  0.7186270000000 1.0
C      1  0.6588560000000  0.5006730000000  0.5520380000000 1.0
C      1  0.5495850000000  0.3489240000000  0.5520810000000 1.0
C      1  0.3717630000000  0.4062930000000  0.5522020000000 1.0
C      1  0.3711020000000  0.5932530000000  0.5525450000000 1.0
C      1  0.5486070000000  0.6517020000000  0.5525780000000 1.0
C      1  0.3410810000000  0.5006910000000  0.5522720000000 1.0
C      1  0.4503550000000  0.3489140000000  0.5521060000000 1.0
C      1  0.6282030000000  0.4062620000000  0.5519850000000 1.0
C      1  0.6287880000000  0.5932160000000  0.5524970000000 1.0
C      1  0.4512950000000  0.6517240000000  0.5525480000000 1.0
C      1  0.3384060000000  0.6389690000000  0.6356860000000 1.0
C      1  0.5821630000000  0.6967380000000  0.6357460000000 1.0
C      1  0.7123110000000  0.4827230000000  0.6350360000000 1.0
C      1  0.5491090000000  0.2927240000000  0.6352390000000 1.0
C      1  0.3180190000000  0.3893040000000  0.6352210000000 1.0
C      1  0.6616010000000  0.6389630000000  0.6355790000000 1.0
C      1  0.4178470000000  0.6967370000000  0.6357730000000 1.0
C      1  0.2876800000000  0.4827240000000  0.6353110000000 1.0
C      1  0.4508900000000  0.2927290000000  0.6352760000000 1.0
C      1  0.6819810000000  0.3892990000000  0.6349820000000 1.0
C      1  0.6285330000000  0.5917350000000  0.2976140000000 1.0
C      1  0.6277740000000  0.4062010000000  0.3003340000000 1.0
C      1  0.4505340000000  0.3475830000000  0.2947570000000 1.0
C      1  0.3410380000000  0.4997820000000  0.2961810000000 1.0
C      1  0.4513060000000  0.6511360000000  0.2964980000000 1.0
C      1  0.3715760000000  0.5922080000000  0.2980120000000 1.0
C      1  0.3726520000000  0.4059030000000  0.2977520000000 1.0
C      1  0.5496090000000  0.3484390000000  0.2980100000000 1.0
C      1  0.6601980000000  0.4997070000000  0.2951150000000 1.0
C      1  0.5485770000000  0.6504730000000  0.2973420000000 1.0
C      1  0.2937320000000  0.4845200000000  0.3830170000000 1.0
C      1  0.4217020000000  0.6919370000000  0.3828870000000 1.0
C      1  0.6564490000000  0.6318880000000  0.3849480000000 1.0
C      1  0.6762200000000  0.3952340000000  0.3869580000000 1.0
C      1  0.4490620000000  0.2983590000000  0.3817890000000 1.0
C      1  0.7077420000000  0.4872440000000  0.3823240000000 1.0
C      1  0.5782620000000  0.6898790000000  0.3843560000000 1.0
C      1  0.3440250000000  0.6335180000000  0.3847490000000 1.0
C      1  0.3249930000000  0.3924330000000  0.3847200000000 1.0
C      1  0.5463370000000  0.2989510000000  0.3845710000000 1.0
END
