TITL C-1525613-7943-1045 0.080858472090339 3375 -9247.36701660135 0 0 60 (C1) n - 1
REM
REM in /home/nfs/bkarasulu/CARBON/AIRSS/Generating-Clusters/ReaxFF-fromJPCA2015/Units_Real/Try2-Higher-symm/Only-C60
REM
REM
REM
REM
REM
REM ./C.cell (863b2abdce7293c0672fb3ba77bf323a)
REM AIRSS Version 0.9.1 bugfix July 2018 build 013d7b7c2542+ Fri, 06 Jul 2018 19:26:36 +0100
REM compiler GCC version 9.2.1 20190827 (Red Hat 9.2.1-1)
REM options -cpp -mtune=generic -march=x86-64 -g -O0 -fpre-include=/usr/include/finclude/math-vector-fortran.h
REM seed 798858646 -1091086956 -604272352 -907134591 437218715 -1642788831 826035629 537880723 -920648662 2073155639 -1598186215 -409748054 881159113 876286998 801460037 -1003667425 1084416957 972756646 -812533818 1581362153 -2074544164 1255725831 -1795305176 -691539009 1236451038 496006093 -183175929 -1116874998 1906718831 1647090445 -965677336 1049232559 1055013322
REM
CELL 1.54180   15.00000   15.00000   15.00000   90.00000   90.00000   90.00000
LATT -1
SFAC C  
C      1  0.5817440000000  0.7355740000000  0.4720900000000 1.0
C      1  0.7256750000000  0.6745470000000  0.4899860000000 1.0
C      1  0.7495910000000  0.5199800000000  0.4717270000000 1.0
C      1  0.7097830000000  0.3492580000000  0.4753690000000 1.0
C      1  0.5887700000000  0.2570430000000  0.4625950000000 1.0
C      1  0.4188610000000  0.2635540000000  0.4705450000000 1.0
C      1  0.2743390000000  0.3254380000000  0.4894320000000 1.0
C      1  0.2473830000000  0.4795920000000  0.4713770000000 1.0
C      1  0.2915630000000  0.6508400000000  0.4740930000000 1.0
C      1  0.4112750000000  0.7488090000000  0.4666090000000 1.0
C      1  0.4960520000000  0.7511340000000  0.5134490000000 1.0
C      1  0.6574960000000  0.7274980000000  0.5372100000000 1.0
C      1  0.7579930000000  0.5943780000000  0.5364140000000 1.0
C      1  0.7429460000000  0.4318600000000  0.5177710000000 1.0
C      1  0.6537410000000  0.2903190000000  0.5254490000000 1.0
C      1  0.5053110000000  0.2516380000000  0.5100420000000 1.0
C      1  0.3434880000000  0.2722130000000  0.5357630000000 1.0
C      1  0.2409570000000  0.4055390000000  0.5364280000000 1.0
C      1  0.2565800000000  0.5682330000000  0.5165830000000 1.0
C      1  0.3448060000000  0.7111740000000  0.5271950000000 1.0
C      1  0.6853720000000  0.3402950000000  0.3816110000000 1.0
C      1  0.6092620000000  0.2823060000000  0.3753490000000 1.0
C      1  0.3982150000000  0.3117110000000  0.3891410000000 1.0
C      1  0.3099360000000  0.3520710000000  0.4038100000000 1.0
C      1  0.2908390000000  0.4477050000000  0.3912270000000 1.0
C      1  0.3156180000000  0.6607920000000  0.3793580000000 1.0
C      1  0.3926630000000  0.7230070000000  0.3737500000000 1.0
C      1  0.6012900000000  0.6855680000000  0.3919350000000 1.0
C      1  0.6899010000000  0.6467180000000  0.4049900000000 1.0
C      1  0.7062320000000  0.5508570000000  0.3923710000000 1.0
C      1  0.5247760000000  0.2684860000000  0.6056150000000 1.0
C      1  0.3689970000000  0.3102420000000  0.6183710000000 1.0
C      1  0.2800350000000  0.4191390000000  0.6232500000000 1.0
C      1  0.2929650000000  0.5572980000000  0.6024950000000 1.0
C      1  0.3804120000000  0.7094040000000  0.6200930000000 1.0
C      1  0.4748300000000  0.7324170000000  0.6088620000000 1.0
C      1  0.6306810000000  0.6897100000000  0.6197880000000 1.0
C      1  0.7193760000000  0.5806900000000  0.6234960000000 1.0
C      1  0.7078000000000  0.4424610000000  0.6044720000000 1.0
C      1  0.6189010000000  0.2905890000000  0.6179200000000 1.0
C      1  0.4061100000000  0.6357840000000  0.6817150000000 1.0
C      1  0.5013010000000  0.6539320000000  0.6648130000000 1.0
C      1  0.5981270000000  0.6314350000000  0.6840870000000 1.0
C      1  0.6591400000000  0.5469880000000  0.6856890000000 1.0
C      1  0.6536870000000  0.4433260000000  0.6774490000000 1.0
C      1  0.5933410000000  0.3633600000000  0.6805930000000 1.0
C      1  0.4982170000000  0.3455700000000  0.6634530000000 1.0
C      1  0.4016150000000  0.3684090000000  0.6828010000000 1.0
C      1  0.3403220000000  0.4526430000000  0.6853720000000 1.0
C      1  0.3456270000000  0.5557820000000  0.6764090000000 1.0
C      1  0.4429420000000  0.6560270000000  0.3210600000000 1.0
C      1  0.5415740000000  0.6407780000000  0.3263220000000 1.0
C      1  0.5820740000000  0.5621070000000  0.2819900000000 1.0
C      1  0.6484080000000  0.5029610000000  0.3265290000000 1.0
C      1  0.6371690000000  0.4057220000000  0.3248070000000 1.0
C      1  0.5617650000000  0.3433570000000  0.3196350000000 1.0
C      1  0.4626490000000  0.3555200000000  0.3243600000000 1.0
C      1  0.4139460000000  0.4322710000000  0.3171600000000 1.0
C      1  0.3508210000000  0.4970330000000  0.3253670000000 1.0
C      1  0.3647110000000  0.5969050000000  0.3223570000000 1.0
END
