TITL C-1525613-7943-2894 0.215571949220622 3375 -8269.11265277211 0 0 60 (Ci) n - 1
REM
REM in /home/nfs/bkarasulu/CARBON/AIRSS/Generating-Clusters/ReaxFF-fromJPCA2015/Units_Real/Try2-Higher-symm/Only-C60
REM
REM
REM
REM
REM
REM ./C.cell (863b2abdce7293c0672fb3ba77bf323a)
REM AIRSS Version 0.9.1 bugfix July 2018 build 013d7b7c2542+ Fri, 06 Jul 2018 19:26:36 +0100
REM compiler GCC version 9.2.1 20190827 (Red Hat 9.2.1-1)
REM options -cpp -mtune=generic -march=x86-64 -g -O0 -fpre-include=/usr/include/finclude/math-vector-fortran.h
REM seed -1641648983 -845850830 -976049268 580361632 -1437443396 1800862378 -1444530214 160175528 -320150736 -493945730 429274008 -1621478044 1960522668 -874367191 -1632144812 -1855401413 129122573 -631575628 815862834 569006259 1312421385 1423781650 1477104928 309314361 1632395757 1730638686 -934683573 2118566032 1929456586 1000339576 -839843331 931159001 -1907598286
REM
CELL 1.54180   15.00000   15.00000   15.00000   90.00000   90.00000   90.00000
LATT -1
SFAC C  
C      1  0.4623740000000  0.2976920000000  0.6542830000000 1.0
C      1  0.3902760000000  0.7111740000000  0.6472880000000 1.0
C      1  0.3383850000000  0.2758850000000  0.5157050000000 1.0
C      1  0.3604930000000  0.7124980000000  0.4256740000000 1.0
C      1  0.4035030000000  0.2839300000000  0.3457460000000 1.0
C      1  0.5373910000000  0.7022130000000  0.3457310000000 1.0
C      1  0.6108030000000  0.2893030000000  0.3523330000000 1.0
C      1  0.6620260000000  0.7241380000000  0.4845560000000 1.0
C      1  0.6398610000000  0.2873060000000  0.5747970000000 1.0
C      1  0.5971000000000  0.7162290000000  0.6537740000000 1.0
C      1  0.4459420000000  0.7546210000000  0.5779170000000 1.0
C      1  0.4199670000000  0.2320090000000  0.5027490000000 1.0
C      1  0.4293120000000  0.7522370000000  0.4779000000000 1.0
C      1  0.4581020000000  0.2318690000000  0.4108530000000 1.0
C      1  0.5128240000000  0.7478470000000  0.4292250000000 1.0
C      1  0.5539810000000  0.2465060000000  0.4218980000000 1.0
C      1  0.5804730000000  0.7681780000000  0.4970050000000 1.0
C      1  0.5710190000000  0.2481450000000  0.5220380000000 1.0
C      1  0.5424790000000  0.7658750000000  0.5887070000000 1.0
C      1  0.4874220000000  0.2523230000000  0.5706510000000 1.0
C      1  0.6220110000000  0.6535530000000  0.3323530000000 1.0
C      1  0.6491330000000  0.3480770000000  0.4174240000000 1.0
C      1  0.7405420000000  0.6739290000000  0.4656130000000 1.0
C      1  0.6946260000000  0.3260180000000  0.6298170000000 1.0
C      1  0.5357500000000  0.6509740000000  0.6542470000000 1.0
C      1  0.3776570000000  0.3461020000000  0.6676330000000 1.0
C      1  0.3512950000000  0.6522830000000  0.5828900000000 1.0
C      1  0.2595200000000  0.3259800000000  0.5342740000000 1.0
C      1  0.3058000000000  0.6739770000000  0.3702170000000 1.0
C      1  0.4599940000000  0.3453230000000  0.3436010000000 1.0
C      1  0.5378080000000  0.6134010000000  0.3034830000000 1.0
C      1  0.6345400000000  0.3837350000000  0.3311270000000 1.0
C      1  0.6838320000000  0.6132610000000  0.3987570000000 1.0
C      1  0.6899060000000  0.4081300000000  0.6125850000000 1.0
C      1  0.6161030000000  0.6218920000000  0.6786770000000 1.0
C      1  0.4616700000000  0.3864950000000  0.6966600000000 1.0
C      1  0.3664150000000  0.6162540000000  0.6687500000000 1.0
C      1  0.3152510000000  0.3865180000000  0.6019720000000 1.0
C      1  0.3106230000000  0.5918760000000  0.3873540000000 1.0
C      1  0.3827380000000  0.3800580000000  0.3174260000000 1.0
C      1  0.5727950000000  0.4167030000000  0.4436390000000 1.0
C      1  0.5721980000000  0.5829790000000  0.4856300000000 1.0
C      1  0.5811330000000  0.4438980000000  0.5292980000000 1.0
C      1  0.5293500000000  0.5938600000000  0.5739240000000 1.0
C      1  0.5015730000000  0.4343500000000  0.5729170000000 1.0
C      1  0.4292090000000  0.5838590000000  0.5565500000000 1.0
C      1  0.4268460000000  0.4176970000000  0.5151190000000 1.0
C      1  0.4195640000000  0.5560700000000  0.4702030000000 1.0
C      1  0.4674240000000  0.4075590000000  0.4235200000000 1.0
C      1  0.4986960000000  0.5663470000000  0.4270800000000 1.0
C      1  0.5106610000000  0.5247750000000  0.3383020000000 1.0
C      1  0.6028980000000  0.4731310000000  0.3686400000000 1.0
C      1  0.6462840000000  0.5365750000000  0.4437190000000 1.0
C      1  0.6545840000000  0.4887730000000  0.5741220000000 1.0
C      1  0.5942120000000  0.5326240000000  0.6442440000000 1.0
C      1  0.4895570000000  0.4750230000000  0.6620170000000 1.0
C      1  0.3974680000000  0.5266280000000  0.6327260000000 1.0
C      1  0.3531200000000  0.4639890000000  0.5582950000000 1.0
C      1  0.3453070000000  0.5115540000000  0.4267200000000 1.0
C      1  0.4081730000000  0.4657910000000  0.3596480000000 1.0
END
