TITL C-1525613-7943-5495 0.0458527106530001 3375 -8263.55996901789 0 0 60 (C5) n - 1
REM
REM in /home/nfs/bkarasulu/CARBON/AIRSS/Generating-Clusters/ReaxFF-fromJPCA2015/Units_Real/Try2-Higher-symm/Only-C60
REM
REM
REM
REM
REM
REM ./C.cell (863b2abdce7293c0672fb3ba77bf323a)
REM AIRSS Version 0.9.1 bugfix July 2018 build 013d7b7c2542+ Fri, 06 Jul 2018 19:26:36 +0100
REM compiler GCC version 9.2.1 20190827 (Red Hat 9.2.1-1)
REM options -cpp -mtune=generic -march=x86-64 -g -O0 -fpre-include=/usr/include/finclude/math-vector-fortran.h
REM seed -1798097414 631334068 1895452817 -658470383 -167004909 1133971667 737830620 -717907963 834182954 -1405575728 861652995 370857731 -609192297 -476459950 1913133414 -1398789349 478317904 1399064811 -1707813532 -1284147876 -1665758163 840582348 882433188 -1295716764 307640699 -737556434 -1467495997 308668899 -2072910262 125289944 -1733401046 1614503854 -444799839
REM
CELL 1.54180   15.00000   15.00000   15.00000   90.00000   90.00000   90.00000
LATT -1
SFAC C  
C      1  0.5724200000000  0.5508080000000  0.2820870000000 1.0
C      1  0.5727880000000  0.3073110000000  0.3841660000000 1.0
C      1  0.5711020000000  0.3303030000000  0.6455630000000 1.0
C      1  0.5731260000000  0.5875160000000  0.7067040000000 1.0
C      1  0.5711410000000  0.7233320000000  0.4814790000000 1.0
C      1  0.5724200000000  0.4491920000000  0.2820870000000 1.0
C      1  0.5727880000000  0.6926890000000  0.3841660000000 1.0
C      1  0.5711020000000  0.6696970000000  0.6455630000000 1.0
C      1  0.5731260000000  0.4124840000000  0.7067040000000 1.0
C      1  0.5711410000000  0.2766680000000  0.4814790000000 1.0
C      1  0.6545450000000  0.4525190000000  0.6468240000000 1.0
C      1  0.6556520000000  0.6245560000000  0.5899500000000 1.0
C      1  0.6551110000000  0.6240040000000  0.4093630000000 1.0
C      1  0.6553300000000  0.4521440000000  0.3535140000000 1.0
C      1  0.6554270000000  0.3465180000000  0.5002520000000 1.0
C      1  0.6545450000000  0.5474810000000  0.6468240000000 1.0
C      1  0.6556520000000  0.3754440000000  0.5899500000000 1.0
C      1  0.6551110000000  0.3759960000000  0.4093630000000 1.0
C      1  0.6553300000000  0.5478560000000  0.3535140000000 1.0
C      1  0.6554270000000  0.6534820000000  0.5002520000000 1.0
C      1  0.4960230000000  0.2301610000000  0.5365480000000 1.0
C      1  0.4961040000000  0.4504730000000  0.7679060000000 1.0
C      1  0.4958970000000  0.7400450000000  0.6291770000000 1.0
C      1  0.4963630000000  0.6972280000000  0.3131580000000 1.0
C      1  0.4963220000000  0.3832290000000  0.2544990000000 1.0
C      1  0.4960230000000  0.7698390000000  0.5365480000000 1.0
C      1  0.4961040000000  0.5495270000000  0.7679060000000 1.0
C      1  0.4958970000000  0.2599550000000  0.6291770000000 1.0
C      1  0.4963630000000  0.3027720000000  0.3131580000000 1.0
C      1  0.4963220000000  0.6167710000000  0.2544990000000 1.0
C      1  0.5131560000000  0.4552080000000  0.6363470000000 1.0
C      1  0.5146270000000  0.6138180000000  0.5819770000000 1.0
C      1  0.5140820000000  0.6164650000000  0.4165810000000 1.0
C      1  0.5134230000000  0.4559960000000  0.3642700000000 1.0
C      1  0.5149790000000  0.3585580000000  0.4997320000000 1.0
C      1  0.5131560000000  0.5447920000000  0.6363470000000 1.0
C      1  0.5146270000000  0.3861820000000  0.5819770000000 1.0
C      1  0.5140820000000  0.3835350000000  0.4165810000000 1.0
C      1  0.5134230000000  0.5440040000000  0.3642700000000 1.0
C      1  0.5149790000000  0.6414420000000  0.4997320000000 1.0
C      1  0.4058210000000  0.7027980000000  0.6450080000000 1.0
C      1  0.4053120000000  0.7003040000000  0.3530730000000 1.0
C      1  0.4052030000000  0.4221200000000  0.2636280000000 1.0
C      1  0.4059270000000  0.2510880000000  0.5018860000000 1.0
C      1  0.4058380000000  0.4242250000000  0.7362670000000 1.0
C      1  0.4058210000000  0.2972020000000  0.6450080000000 1.0
C      1  0.4053120000000  0.2996960000000  0.3530730000000 1.0
C      1  0.4052030000000  0.5778800000000  0.2636280000000 1.0
C      1  0.4059270000000  0.7489120000000  0.5018860000000 1.0
C      1  0.4058380000000  0.5757750000000  0.7362670000000 1.0
C      1  0.3570100000000  0.3689500000000  0.5951070000000 1.0
C      1  0.3567250000000  0.5502080000000  0.6536400000000 1.0
C      1  0.3569210000000  0.6617250000000  0.5002740000000 1.0
C      1  0.3568150000000  0.5500720000000  0.3458210000000 1.0
C      1  0.3568100000000  0.3689190000000  0.4052010000000 1.0
C      1  0.3570100000000  0.6310500000000  0.5951070000000 1.0
C      1  0.3567250000000  0.4497920000000  0.6536400000000 1.0
C      1  0.3569210000000  0.3382750000000  0.5002740000000 1.0
C      1  0.3568150000000  0.4499280000000  0.3458210000000 1.0
C      1  0.3568100000000  0.6310810000000  0.4052010000000 1.0
END
