TITL C-1525613-7943-7096 -0.000740629053742239 3375 -9640.32909127782 0 0 60 (D5h) n - 1
REM
REM in /home/nfs/bkarasulu/CARBON/AIRSS/Generating-Clusters/ReaxFF-fromJPCA2015/Units_Real/Try2-Higher-symm/Only-C60
REM
REM
REM
REM
REM
REM ./C.cell (863b2abdce7293c0672fb3ba77bf323a)
REM AIRSS Version 0.9.1 bugfix July 2018 build 013d7b7c2542+ Fri, 06 Jul 2018 19:26:36 +0100
REM compiler GCC version 9.2.1 20190827 (Red Hat 9.2.1-1)
REM options -cpp -mtune=generic -march=x86-64 -g -O0 -fpre-include=/usr/include/finclude/math-vector-fortran.h
REM seed 139843671 -87850501 45400096 1384446951 1809877867 -378787032 1051072192 -91874195 -816387194 -1312668032 22750290 -1171097663 -1024260564 767863306 1465030413 -1895029044 -346770109 1115323065 -1153212117 1221479324 1348964527 1488825831 22205070 -1689342242 -1719282777 593668081 1167161770 -2052857545 -442024619 851902474 570820090 -260916685 2133493713
REM
CELL 1.54180   15.00000   15.00000   15.00000   90.00000   90.00000   90.00000
LATT -1
SFAC C  
C      1  0.4787820000000  0.7099980000000  0.5773270000000 1.0
C      1  0.4198850000000  0.7103750000000  0.5030440000000 1.0
C      1  0.4728660000000  0.7099170000000  0.4244000000000 1.0
C      1  0.5632570000000  0.7088660000000  0.4504840000000 1.0
C      1  0.5670420000000  0.7092240000000  0.5441100000000 1.0
C      1  0.4788480000000  0.2899940000000  0.5773230000000 1.0
C      1  0.4199510000000  0.2895990000000  0.5030410000000 1.0
C      1  0.4729300000000  0.2900750000000  0.4243950000000 1.0
C      1  0.5633220000000  0.2911530000000  0.4504800000000 1.0
C      1  0.5671070000000  0.2907970000000  0.5441050000000 1.0
C      1  0.6338070000000  0.6585590000000  0.5887440000000 1.0
C      1  0.4567680000000  0.6592080000000  0.6550500000000 1.0
C      1  0.3389980000000  0.6594490000000  0.5062130000000 1.0
C      1  0.4446670000000  0.6593150000000  0.3486120000000 1.0
C      1  0.6256730000000  0.6581060000000  0.4011900000000 1.0
C      1  0.6338560000000  0.3414840000000  0.5887370000000 1.0
C      1  0.4568180000000  0.3407760000000  0.6550460000000 1.0
C      1  0.3390470000000  0.3405010000000  0.5062090000000 1.0
C      1  0.4447150000000  0.3406690000000  0.3486080000000 1.0
C      1  0.6257220000000  0.3419340000000  0.4011840000000 1.0
C      1  0.6979140000000  0.3884880000000  0.4438850000000 1.0
C      1  0.6157080000000  0.3855370000000  0.6727760000000 1.0
C      1  0.3714400000000  0.3853670000000  0.6630670000000 1.0
C      1  0.3052740000000  0.3852690000000  0.4274160000000 1.0
C      1  0.5090370000000  0.3852560000000  0.2920770000000 1.0
C      1  0.6978810000000  0.6115790000000  0.4438920000000 1.0
C      1  0.6156730000000  0.6144970000000  0.6727820000000 1.0
C      1  0.3714040000000  0.6145890000000  0.6630700000000 1.0
C      1  0.3052390000000  0.6146720000000  0.4274190000000 1.0
C      1  0.5090030000000  0.6147490000000  0.2920800000000 1.0
C      1  0.2403300000000  0.4504680000000  0.4606710000000 1.0
C      1  0.4575160000000  0.4505450000000  0.2405550000000 1.0
C      1  0.7288540000000  0.4532510000000  0.3811220000000 1.0
C      1  0.6877900000000  0.4505500000000  0.6843290000000 1.0
C      1  0.3829540000000  0.4504860000000  0.7351760000000 1.0
C      1  0.2403140000000  0.5494510000000  0.4606720000000 1.0
C      1  0.4575010000000  0.5494460000000  0.2405570000000 1.0
C      1  0.7288460000000  0.5468180000000  0.3811270000000 1.0
C      1  0.6877750000000  0.5495060000000  0.6843310000000 1.0
C      1  0.3829390000000  0.5494720000000  0.7351780000000 1.0
C      1  0.3590060000000  0.6146510000000  0.3472980000000 1.0
C      1  0.6012790000000  0.6146710000000  0.3188080000000 1.0
C      1  0.7029530000000  0.6132530000000  0.5393810000000 1.0
C      1  0.5253680000000  0.6146020000000  0.7064490000000 1.0
C      1  0.3115060000000  0.6146530000000  0.5874020000000 1.0
C      1  0.3590410000000  0.3853070000000  0.3472940000000 1.0
C      1  0.6013140000000  0.3853620000000  0.3188020000000 1.0
C      1  0.7029860000000  0.3868150000000  0.5393740000000 1.0
C      1  0.5254040000000  0.3854020000000  0.7064460000000 1.0
C      1  0.3115410000000  0.3852860000000  0.5874000000000 1.0
C      1  0.3649090000000  0.5494760000000  0.2745750000000 1.0
C      1  0.6719150000000  0.5493030000000  0.3025650000000 1.0
C      1  0.7421250000000  0.5494070000000  0.6020400000000 1.0
C      1  0.4779230000000  0.5494710000000  0.7619470000000 1.0
C      1  0.2441650000000  0.5494520000000  0.5593080000000 1.0
C      1  0.3649240000000  0.4504860000000  0.2745730000000 1.0
C      1  0.6719310000000  0.4507530000000  0.3025610000000 1.0
C      1  0.7421380000000  0.4506690000000  0.6020370000000 1.0
C      1  0.4779390000000  0.4505160000000  0.7619460000000 1.0
C      1  0.2441800000000  0.4504670000000  0.5593080000000 1.0
END
