TITL C-1525613-7943-634 0.297037444332051 3375 -8683.03466786858 0 0 60 (C1) n - 1
REM
REM in /home/nfs/bkarasulu/CARBON/AIRSS/Generating-Clusters/ReaxFF-fromJPCA2015/Units_Real/Try2-Higher-symm/Only-C60
REM
REM
REM
REM
REM
REM ./C.cell (863b2abdce7293c0672fb3ba77bf323a)
REM AIRSS Version 0.9.1 bugfix July 2018 build 013d7b7c2542+ Fri, 06 Jul 2018 19:26:36 +0100
REM compiler GCC version 9.2.1 20190827 (Red Hat 9.2.1-1)
REM options -cpp -mtune=generic -march=x86-64 -g -O0 -fpre-include=/usr/include/finclude/math-vector-fortran.h
REM seed -1804112108 1000150953 1461236368 -888655733 -990289677 2082544746 1416157067 -1745092382 260479897 -305826528 -1602723372 -1213269350 1147771640 301164418 -193209749 1169517930 -1049797366 1377761062 2132271190 -735067452 1411867173 979675329 238858398 1361176003 1172490604 -109259146 257024293 1308531505 1730610797 362066965 -796185168 -802888187 99425668
REM
CELL 1.54180   15.00000   15.00000   15.00000   90.00000   90.00000   90.00000
LATT -1
SFAC C  
C      1  0.3018760000000  0.4392670000000  0.4312380000000 1.0
C      1  0.4940450000000  0.3046960000000  0.4307390000000 1.0
C      1  0.6930790000000  0.4317630000000  0.4328200000000 1.0
C      1  0.6265410000000  0.6669050000000  0.4312160000000 1.0
C      1  0.3834180000000  0.6673330000000  0.4333110000000 1.0
C      1  0.6983760000000  0.4393600000000  0.5685220000000 1.0
C      1  0.5058160000000  0.3047720000000  0.5693530000000 1.0
C      1  0.3064850000000  0.4316160000000  0.5668600000000 1.0
C      1  0.3732470000000  0.6671440000000  0.5685710000000 1.0
C      1  0.6167290000000  0.6671580000000  0.5665710000000 1.0
C      1  0.6395230000000  0.4694680000000  0.6543360000000 1.0
C      1  0.5716830000000  0.6303350000000  0.6612080000000 1.0
C      1  0.3952890000000  0.6108480000000  0.6638960000000 1.0
C      1  0.3656360000000  0.4361820000000  0.6597590000000 1.0
C      1  0.5157530000000  0.3412110000000  0.6633080000000 1.0
C      1  0.3601920000000  0.4695450000000  0.3466510000000 1.0
C      1  0.4281660000000  0.6306860000000  0.3378550000000 1.0
C      1  0.6047320000000  0.6112220000000  0.3375270000000 1.0
C      1  0.6348970000000  0.4361770000000  0.3396530000000 1.0
C      1  0.4842660000000  0.3409270000000  0.3364790000000 1.0
C      1  0.3611470000000  0.5248300000000  0.7072140000000 1.0
C      1  0.4358060000000  0.3720570000000  0.7073420000000 1.0
C      1  0.5888720000000  0.3930320000000  0.7020650000000 1.0
C      1  0.6259200000000  0.5566720000000  0.7045140000000 1.0
C      1  0.4802150000000  0.6394130000000  0.7079900000000 1.0
C      1  0.6389070000000  0.5249160000000  0.2926600000000 1.0
C      1  0.5642470000000  0.3718930000000  0.2925100000000 1.0
C      1  0.4114680000000  0.3930980000000  0.2981810000000 1.0
C      1  0.3740180000000  0.5569540000000  0.2953780000000 1.0
C      1  0.5198010000000  0.6395120000000  0.2919560000000 1.0
C      1  0.5736820000000  0.4927400000000  0.5769040000000 1.0
C      1  0.5292090000000  0.5696990000000  0.5935520000000 1.0
C      1  0.4414020000000  0.5544430000000  0.5898670000000 1.0
C      1  0.4352290000000  0.4661760000000  0.5926480000000 1.0
C      1  0.5049840000000  0.4351980000000  0.5454720000000 1.0
C      1  0.4263130000000  0.4932710000000  0.4227270000000 1.0
C      1  0.4712090000000  0.5700020000000  0.4069050000000 1.0
C      1  0.5579280000000  0.5549990000000  0.4092010000000 1.0
C      1  0.5655780000000  0.4663600000000  0.4082680000000 1.0
C      1  0.4941990000000  0.4354390000000  0.4554270000000 1.0
C      1  0.4878710000000  0.5825700000000  0.7820490000000 1.0
C      1  0.4165760000000  0.5132630000000  0.7820620000000 1.0
C      1  0.4605360000000  0.4238430000000  0.7830500000000 1.0
C      1  0.5584040000000  0.4380540000000  0.7803530000000 1.0
C      1  0.5757420000000  0.5360610000000  0.7809000000000 1.0
C      1  0.5122730000000  0.5827540000000  0.2178710000000 1.0
C      1  0.5836750000000  0.5132750000000  0.2178820000000 1.0
C      1  0.5394610000000  0.4237010000000  0.2170080000000 1.0
C      1  0.4416890000000  0.4379060000000  0.2199020000000 1.0
C      1  0.4241210000000  0.5359910000000  0.2191220000000 1.0
C      1  0.3323090000000  0.6122280000000  0.4983200000000 1.0
C      1  0.3422600000000  0.3732240000000  0.4975920000000 1.0
C      1  0.5703460000000  0.3157910000000  0.4982960000000 1.0
C      1  0.7004530000000  0.5067590000000  0.4972930000000 1.0
C      1  0.5559090000000  0.6947590000000  0.4971420000000 1.0
C      1  0.6680030000000  0.6125980000000  0.5013100000000 1.0
C      1  0.6568440000000  0.3733810000000  0.5019310000000 1.0
C      1  0.4298700000000  0.3153300000000  0.5021000000000 1.0
C      1  0.2993560000000  0.5066940000000  0.5024380000000 1.0
C      1  0.4444150000000  0.6944980000000  0.5027270000000 1.0
END
