TITL C-1525613-7943-849 0.0346698957015336 3375 -8976.80951737594 0 0 60 (Cs) n - 1
REM
REM in /home/nfs/bkarasulu/CARBON/AIRSS/Generating-Clusters/ReaxFF-fromJPCA2015/Units_Real/Try2-Higher-symm/Only-C60
REM
REM
REM
REM
REM
REM ./C.cell (863b2abdce7293c0672fb3ba77bf323a)
REM AIRSS Version 0.9.1 bugfix July 2018 build 013d7b7c2542+ Fri, 06 Jul 2018 19:26:36 +0100
REM compiler GCC version 9.2.1 20190827 (Red Hat 9.2.1-1)
REM options -cpp -mtune=generic -march=x86-64 -g -O0 -fpre-include=/usr/include/finclude/math-vector-fortran.h
REM seed -1657828391 1190285673 89944002 -391012669 -1800225881 111549477 -1865574095 1090357530 -1024307143 1621400506 79122195 129665718 1066000803 -1306561376 -605357609 -928359525 1167877291 258355212 -655563087 1708637093 1773793456 -1537985728 -1663185213 -1037784979 -938912827 103232517 881964747 1333938016 438467461 57440002 -161755016 2015281589 1240263391
REM
CELL 1.54180   15.00000   15.00000   15.00000   90.00000   90.00000   90.00000
LATT -1
SFAC C  
C      1  0.3241230000000  0.6607400000000  0.3944770000000 1.0
C      1  0.5968100000000  0.7202770000000  0.3908620000000 1.0
C      1  0.7365200000000  0.4767850000000  0.3966430000000 1.0
C      1  0.5497670000000  0.2668380000000  0.3931910000000 1.0
C      1  0.2924420000000  0.3817060000000  0.3945670000000 1.0
C      1  0.6760650000000  0.6607230000000  0.3943190000000 1.0
C      1  0.4033550000000  0.7203130000000  0.3908660000000 1.0
C      1  0.2636590000000  0.4768770000000  0.3968330000000 1.0
C      1  0.4503270000000  0.2668870000000  0.3932530000000 1.0
C      1  0.7077210000000  0.3816250000000  0.3943680000000 1.0
C      1  0.4276760000000  0.2642350000000  0.6114570000000 1.0
C      1  0.2505310000000  0.4928370000000  0.6125700000000 1.0
C      1  0.4142750000000  0.7329320000000  0.6030840000000 1.0
C      1  0.6847090000000  0.6408860000000  0.6106610000000 1.0
C      1  0.6993710000000  0.3578380000000  0.6121690000000 1.0
C      1  0.5724290000000  0.2637440000000  0.6110650000000 1.0
C      1  0.7490160000000  0.4931710000000  0.6125520000000 1.0
C      1  0.5855800000000  0.7330810000000  0.6032230000000 1.0
C      1  0.3148880000000  0.6405330000000  0.6110370000000 1.0
C      1  0.3005280000000  0.3579120000000  0.6122730000000 1.0
C      1  0.2156550000000  0.5440460000000  0.4498300000000 1.0
C      1  0.4508330000000  0.7875590000000  0.4436820000000 1.0
C      1  0.7512640000000  0.6360850000000  0.4511710000000 1.0
C      1  0.7064510000000  0.2994770000000  0.4475860000000 1.0
C      1  0.3726820000000  0.2412380000000  0.4470320000000 1.0
C      1  0.7842820000000  0.5439030000000  0.4498280000000 1.0
C      1  0.5493250000000  0.7874550000000  0.4437620000000 1.0
C      1  0.2489030000000  0.6361020000000  0.4513280000000 1.0
C      1  0.2936490000000  0.2994950000000  0.4477040000000 1.0
C      1  0.6274820000000  0.2411500000000  0.4467990000000 1.0
C      1  0.3363390000000  0.4951360000000  0.6614740000000 1.0
C      1  0.4476920000000  0.6522910000000  0.6505480000000 1.0
C      1  0.6304950000000  0.5926700000000  0.6661170000000 1.0
C      1  0.6312460000000  0.4031130000000  0.6663180000000 1.0
C      1  0.4507970000000  0.3439190000000  0.6638320000000 1.0
C      1  0.6633970000000  0.4950680000000  0.6615940000000 1.0
C      1  0.5523150000000  0.6524250000000  0.6509540000000 1.0
C      1  0.3695760000000  0.5926030000000  0.6662670000000 1.0
C      1  0.3684520000000  0.4032890000000  0.6666300000000 1.0
C      1  0.5488050000000  0.3438110000000  0.6627310000000 1.0
C      1  0.3641870000000  0.2260370000000  0.5452020000000 1.0
C      1  0.1986420000000  0.5475640000000  0.5478760000000 1.0
C      1  0.4496270000000  0.8043140000000  0.5415090000000 1.0
C      1  0.7587010000000  0.6399460000000  0.5513630000000 1.0
C      1  0.7173990000000  0.2858870000000  0.5456550000000 1.0
C      1  0.6360960000000  0.2257090000000  0.5449600000000 1.0
C      1  0.8012350000000  0.5475510000000  0.5478810000000 1.0
C      1  0.5503690000000  0.8044660000000  0.5415290000000 1.0
C      1  0.2410680000000  0.6399630000000  0.5515180000000 1.0
C      1  0.2826410000000  0.2859150000000  0.5457900000000 1.0
C      1  0.5484040000000  0.6528890000000  0.3370500000000 1.0
C      1  0.6586840000000  0.5017440000000  0.3411760000000 1.0
C      1  0.5498340000000  0.3514480000000  0.3422790000000 1.0
C      1  0.3706900000000  0.4067420000000  0.3395710000000 1.0
C      1  0.3725910000000  0.5931040000000  0.3409020000000 1.0
C      1  0.4517790000000  0.6528950000000  0.3371020000000 1.0
C      1  0.3414360000000  0.5018030000000  0.3412890000000 1.0
C      1  0.4502390000000  0.3514920000000  0.3423370000000 1.0
C      1  0.6293900000000  0.4066830000000  0.3395080000000 1.0
C      1  0.6275550000000  0.5930690000000  0.3408480000000 1.0
END
