TITL C-1525613-7943-4494 0.0133717417526268 3375 -8315.31420081305 0 0 60 (Ci) n - 1
REM
REM in /home/nfs/bkarasulu/CARBON/AIRSS/Generating-Clusters/ReaxFF-fromJPCA2015/Units_Real/Try2-Higher-symm/Only-C60
REM
REM
REM
REM
REM
REM ./C.cell (863b2abdce7293c0672fb3ba77bf323a)
REM AIRSS Version 0.9.1 bugfix July 2018 build 013d7b7c2542+ Fri, 06 Jul 2018 19:26:36 +0100
REM compiler GCC version 9.2.1 20190827 (Red Hat 9.2.1-1)
REM options -cpp -mtune=generic -march=x86-64 -g -O0 -fpre-include=/usr/include/finclude/math-vector-fortran.h
REM seed 1172211765 -1658990052 1186454609 -843742435 1040706598 121004525 -1224945992 1428703070 -1759597528 1391489230 582186196 1621895754 1784657906 -2084344069 -1589011329 -1909597508 -366011001 1654257591 -737120577 94368812 1525515320 1676595120 -1820070085 -499319749 292036021 1896803159 721181131 1001513771 -874506787 -1877381036 -945270539 -707677982 -1703530828
REM
CELL 1.54180   15.00000   15.00000   15.00000   90.00000   90.00000   90.00000
LATT -1
SFAC C  
C      1  0.4187770000000  0.2453970000000  0.5522600000000 1.0
C      1  0.5475120000000  0.3132410000000  0.6838680000000 1.0
C      1  0.4060870000000  0.4832580000000  0.7620040000000 1.0
C      1  0.5869250000000  0.6295570000000  0.7135990000000 1.0
C      1  0.4055260000000  0.7369190000000  0.6077300000000 1.0
C      1  0.5812340000000  0.7546050000000  0.4477850000000 1.0
C      1  0.4524740000000  0.6867450000000  0.3160930000000 1.0
C      1  0.5939100000000  0.5167470000000  0.2379830000000 1.0
C      1  0.4130720000000  0.3704480000000  0.2863680000000 1.0
C      1  0.5944420000000  0.2630780000000  0.3922590000000 1.0
C      1  0.4791810000000  0.3472460000000  0.7156300000000 1.0
C      1  0.4852690000000  0.5408550000000  0.7520610000000 1.0
C      1  0.4871580000000  0.6337760000000  0.7237710000000 1.0
C      1  0.4808350000000  0.7546020000000  0.5459210000000 1.0
C      1  0.4823500000000  0.7637540000000  0.4501970000000 1.0
C      1  0.5208090000000  0.6527390000000  0.2843560000000 1.0
C      1  0.5147120000000  0.4591500000000  0.2479490000000 1.0
C      1  0.5128470000000  0.3662160000000  0.2762100000000 1.0
C      1  0.5191460000000  0.2454080000000  0.4541020000000 1.0
C      1  0.5176540000000  0.2362480000000  0.5498180000000 1.0
C      1  0.4147590000000  0.4642280000000  0.2571010000000 1.0
C      1  0.5897640000000  0.3155600000000  0.3116760000000 1.0
C      1  0.4179740000000  0.2520800000000  0.4539440000000 1.0
C      1  0.5910910000000  0.2667260000000  0.6154750000000 1.0
C      1  0.4037370000000  0.3860620000000  0.7481610000000 1.0
C      1  0.5852530000000  0.5357810000000  0.7428940000000 1.0
C      1  0.4102190000000  0.6844270000000  0.6883250000000 1.0
C      1  0.5820200000000  0.7479090000000  0.5460720000000 1.0
C      1  0.4089350000000  0.7332650000000  0.3845210000000 1.0
C      1  0.5962560000000  0.6139490000000  0.2518280000000 1.0
C      1  0.6502620000000  0.3402670000000  0.6005850000000 1.0
C      1  0.3404670000000  0.4499660000000  0.6984950000000 1.0
C      1  0.6515980000000  0.5651590000000  0.6754000000000 1.0
C      1  0.3414670000000  0.6619680000000  0.6201310000000 1.0
C      1  0.6487780000000  0.6974240000000  0.4940780000000 1.0
C      1  0.3497610000000  0.6597280000000  0.3994220000000 1.0
C      1  0.6595410000000  0.5500260000000  0.3015120000000 1.0
C      1  0.3484010000000  0.4348380000000  0.3246110000000 1.0
C      1  0.6585440000000  0.3380190000000  0.3798600000000 1.0
C      1  0.3512350000000  0.3025730000000  0.5059580000000 1.0
C      1  0.4257130000000  0.5685370000000  0.5603390000000 1.0
C      1  0.5693820000000  0.5836470000000  0.4866020000000 1.0
C      1  0.4263180000000  0.5662900000000  0.4618400000000 1.0
C      1  0.5720420000000  0.5249660000000  0.4073590000000 1.0
C      1  0.4287640000000  0.4727720000000  0.4319630000000 1.0
C      1  0.5743040000000  0.4314490000000  0.4396820000000 1.0
C      1  0.4306190000000  0.4163560000000  0.5133520000000 1.0
C      1  0.5737080000000  0.4337690000000  0.5382100000000 1.0
C      1  0.4279670000000  0.4750090000000  0.5926000000000 1.0
C      1  0.5712390000000  0.5272580000000  0.5680330000000 1.0
C      1  0.6731320000000  0.4189170000000  0.5501330000000 1.0
C      1  0.3299350000000  0.4721650000000  0.6029740000000 1.0
C      1  0.6681490000000  0.5345090000000  0.5821890000000 1.0
C      1  0.3278330000000  0.5797360000000  0.5660470000000 1.0
C      1  0.6666720000000  0.5988500000000  0.4911770000000 1.0
C      1  0.3268810000000  0.5810720000000  0.4498570000000 1.0
C      1  0.6700410000000  0.5278000000000  0.3970250000000 1.0
C      1  0.3318520000000  0.4655250000000  0.4178110000000 1.0
C      1  0.6721490000000  0.4202600000000  0.4339630000000 1.0
C      1  0.3333180000000  0.4011730000000  0.5088280000000 1.0
END
