TITL C-1525613-7943-2168 0.00865153402967085 3375 -8628.88191932805 0 0 60 (S10) n - 1
REM
REM in /home/nfs/bkarasulu/CARBON/AIRSS/Generating-Clusters/ReaxFF-fromJPCA2015/Units_Real/Try2-Higher-symm/Only-C60
REM
REM
REM
REM
REM
REM ./C.cell (863b2abdce7293c0672fb3ba77bf323a)
REM AIRSS Version 0.9.1 bugfix July 2018 build 013d7b7c2542+ Fri, 06 Jul 2018 19:26:36 +0100
REM compiler GCC version 9.2.1 20190827 (Red Hat 9.2.1-1)
REM options -cpp -mtune=generic -march=x86-64 -g -O0 -fpre-include=/usr/include/finclude/math-vector-fortran.h
REM seed 622872266 1786669379 978137853 -2085821713 -116684854 1524927144 2036199536 -1505443088 -1514543873 1539548567 1302175433 2071271563 1012900082 1269885652 -1413046287 -1558922250 1924197593 2135015871 1593636282 -2060136969 -1818979107 1871586794 737840037 -880155682 770734651 1761049047 306428168 -1420861735 -611245774 400890517 459950774 -2123909618 -1359767503
REM
CELL 1.54180   15.00000   15.00000   15.00000   90.00000   90.00000   90.00000
LATT -1
SFAC C  
C      1  0.7126610000000  0.5666190000000  0.4067820000000 1.0
C      1  0.7112100000000  0.4288670000000  0.5931670000000 1.0
C      1  0.6290930000000  0.3183290000000  0.4068130000000 1.0
C      1  0.4976380000000  0.2771620000000  0.5932040000000 1.0
C      1  0.3671320000000  0.3211280000000  0.4068280000000 1.0
C      1  0.2873280000000  0.4334080000000  0.5931890000000 1.0
C      1  0.2887780000000  0.5711140000000  0.4068210000000 1.0
C      1  0.3709240000000  0.6816770000000  0.5932020000000 1.0
C      1  0.5023370000000  0.7228340000000  0.4068100000000 1.0
C      1  0.6328980000000  0.6788620000000  0.5931600000000 1.0
C      1  0.4209540000000  0.4932460000000  0.4307520000000 1.0
C      1  0.4320910000000  0.5410500000000  0.5692540000000 1.0
C      1  0.4691470000000  0.5730990000000  0.4307500000000 1.0
C      1  0.5180510000000  0.5772430000000  0.5692440000000 1.0
C      1  0.5599850000000  0.5519370000000  0.4307440000000 1.0
C      1  0.5790510000000  0.5066870000000  0.5692430000000 1.0
C      1  0.5679430000000  0.4590080000000  0.4307470000000 1.0
C      1  0.5307920000000  0.4268730000000  0.5692520000000 1.0
C      1  0.4820130000000  0.4227410000000  0.4307510000000 1.0
C      1  0.4399750000000  0.4481150000000  0.5692530000000 1.0
C      1  0.6463060000000  0.6238710000000  0.3580270000000 1.0
C      1  0.6911800000000  0.5141840000000  0.6419330000000 1.0
C      1  0.6630250000000  0.3991210000000  0.3580380000000 1.0
C      1  0.5725910000000  0.3225690000000  0.6419680000000 1.0
C      1  0.4544580000000  0.3137990000000  0.3580610000000 1.0
C      1  0.3536710000000  0.3761510000000  0.6419610000000 1.0
C      1  0.3088260000000  0.4858030000000  0.3580520000000 1.0
C      1  0.3369820000000  0.6008850000000  0.6419690000000 1.0
C      1  0.4273850000000  0.6774270000000  0.3580510000000 1.0
C      1  0.5455780000000  0.6861960000000  0.6419430000000 1.0
C      1  0.3565090000000  0.6828460000000  0.5020780000000 1.0
C      1  0.4914040000000  0.7322340000000  0.4979390000000 1.0
C      1  0.6295480000000  0.6929050000000  0.5020390000000 1.0
C      1  0.7182650000000  0.5799040000000  0.4979140000000 1.0
C      1  0.7235460000000  0.4363950000000  0.5020420000000 1.0
C      1  0.6434840000000  0.3171160000000  0.4979440000000 1.0
C      1  0.5086180000000  0.2677590000000  0.5020820000000 1.0
C      1  0.3704480000000  0.3071080000000  0.4979540000000 1.0
C      1  0.2817590000000  0.4200990000000  0.5020610000000 1.0
C      1  0.2764150000000  0.5636320000000  0.4979510000000 1.0
C      1  0.4178550000000  0.5503380000000  0.6687150000000 1.0
C      1  0.4631000000000  0.5889980000000  0.3312890000000 1.0
C      1  0.5224940000000  0.5936670000000  0.6687040000000 1.0
C      1  0.5732370000000  0.5625810000000  0.3312820000000 1.0
C      1  0.5960460000000  0.5075480000000  0.6687030000000 1.0
C      1  0.5821580000000  0.4496790000000  0.3312900000000 1.0
C      1  0.5368670000000  0.4109960000000  0.6687140000000 1.0
C      1  0.4775430000000  0.4063240000000  0.3313050000000 1.0
C      1  0.4267380000000  0.4374400000000  0.6687140000000 1.0
C      1  0.4039640000000  0.4924240000000  0.3312990000000 1.0
C      1  0.5330390000000  0.2805770000000  0.4122980000000 1.0
C      1  0.3977380000000  0.3030970000000  0.5877310000000 1.0
C      1  0.3015230000000  0.4008050000000  0.4122880000000 1.0
C      1  0.2810990000000  0.5364270000000  0.5877340000000 1.0
C      1  0.3442910000000  0.6581180000000  0.4122930000000 1.0
C      1  0.4669880000000  0.7194110000000  0.5877210000000 1.0
C      1  0.6022440000000  0.6969250000000  0.4122660000000 1.0
C      1  0.6984860000000  0.5991740000000  0.5876950000000 1.0
C      1  0.7189060000000  0.4635970000000  0.4122620000000 1.0
C      1  0.6556850000000  0.3418700000000  0.5877260000000 1.0
END
