TITL C-1525613-7943-7742 -0.00141906771868892 3375 -8686.56821877135 0 0 60 (C1) n - 1
REM
REM in /home/nfs/bkarasulu/CARBON/AIRSS/Generating-Clusters/ReaxFF-fromJPCA2015/Units_Real/Try2-Higher-symm/Only-C60
REM
REM
REM
REM
REM
REM ./C.cell (863b2abdce7293c0672fb3ba77bf323a)
REM AIRSS Version 0.9.1 bugfix July 2018 build 013d7b7c2542+ Fri, 06 Jul 2018 19:26:36 +0100
REM compiler GCC version 9.2.1 20190827 (Red Hat 9.2.1-1)
REM options -cpp -mtune=generic -march=x86-64 -g -O0 -fpre-include=/usr/include/finclude/math-vector-fortran.h
REM seed -1637501682 -257953920 1190381641 -15430820 1946248243 2007623554 -1585528484 -1118493594 -1011443187 1665233135 -1273071698 -1917991413 1944277084 -2027690544 591762904 -91214409 -1036559559 1594386775 1656540507 631321953 1083633096 -1212939292 -1612448011 1239862733 981388751 1364433274 -1587179102 979296690 -872912745 -818850674 1029584895 -1645102459 -285999496
REM
CELL 1.54180   15.00000   15.00000   15.00000   90.00000   90.00000   90.00000
LATT -1
SFAC C  
C      1  0.6821690000000  0.6800640000000  0.5067800000000 1.0
C      1  0.6712570000000  0.5622610000000  0.6873190000000 1.0
C      1  0.6749770000000  0.3300790000000  0.6066460000000 1.0
C      1  0.6749040000000  0.3379930000000  0.3890410000000 1.0
C      1  0.6644920000000  0.5504560000000  0.3001550000000 1.0
C      1  0.3289420000000  0.6845000000000  0.5045140000000 1.0
C      1  0.3301730000000  0.5686180000000  0.6864070000000 1.0
C      1  0.3049340000000  0.3506170000000  0.5898660000000 1.0
C      1  0.3125280000000  0.3190170000000  0.3832900000000 1.0
C      1  0.3322570000000  0.5423780000000  0.3154240000000 1.0
C      1  0.3236430000000  0.4047570000000  0.3360190000000 1.0
C      1  0.3500880000000  0.6392980000000  0.3312740000000 1.0
C      1  0.3184470000000  0.6738720000000  0.5949640000000 1.0
C      1  0.3501590000000  0.4753880000000  0.7143870000000 1.0
C      1  0.3152360000000  0.2826130000000  0.5222860000000 1.0
C      1  0.6728980000000  0.4125030000000  0.3270500000000 1.0
C      1  0.6449140000000  0.6425520000000  0.3308370000000 1.0
C      1  0.6912790000000  0.6688720000000  0.5981830000000 1.0
C      1  0.6443850000000  0.4713540000000  0.7182120000000 1.0
C      1  0.6821550000000  0.2900070000000  0.5228460000000 1.0
C      1  0.6750040000000  0.3756260000000  0.4789200000000 1.0
C      1  0.6809910000000  0.4962730000000  0.3792660000000 1.0
C      1  0.6673700000000  0.6668640000000  0.4225550000000 1.0
C      1  0.6868120000000  0.5702610000000  0.5905950000000 1.0
C      1  0.6626390000000  0.3942080000000  0.6626270000000 1.0
C      1  0.2665540000000  0.3333510000000  0.4644720000000 1.0
C      1  0.3347760000000  0.4832870000000  0.3934720000000 1.0
C      1  0.3388400000000  0.6712960000000  0.4191670000000 1.0
C      1  0.3196800000000  0.5747010000000  0.5888080000000 1.0
C      1  0.3252480000000  0.4086700000000  0.6495970000000 1.0
C      1  0.4547330000000  0.5673590000000  0.4744850000000 1.0
C      1  0.4116070000000  0.5466440000000  0.5593150000000 1.0
C      1  0.4560330000000  0.4605990000000  0.5725900000000 1.0
C      1  0.4694090000000  0.4173880000000  0.4861450000000 1.0
C      1  0.4278980000000  0.4841280000000  0.4304390000000 1.0
C      1  0.5533760000000  0.5761960000000  0.4778510000000 1.0
C      1  0.5904160000000  0.5543840000000  0.5658250000000 1.0
C      1  0.5533650000000  0.4671060000000  0.5830100000000 1.0
C      1  0.5745580000000  0.4249150000000  0.4909090000000 1.0
C      1  0.5974030000000  0.5025920000000  0.4324430000000 1.0
C      1  0.4303300000000  0.6898340000000  0.3147020000000 1.0
C      1  0.3697130000000  0.6594860000000  0.6870430000000 1.0
C      1  0.4274120000000  0.4483630000000  0.7653800000000 1.0
C      1  0.3762930000000  0.2570400000000  0.4364630000000 1.0
C      1  0.3579500000000  0.4630880000000  0.2591470000000 1.0
C      1  0.5676450000000  0.6941890000000  0.3070100000000 1.0
C      1  0.6372950000000  0.6552610000000  0.6886820000000 1.0
C      1  0.5650400000000  0.4504940000000  0.7687550000000 1.0
C      1  0.6370120000000  0.2532200000000  0.4321080000000 1.0
C      1  0.6261590000000  0.4682550000000  0.2551120000000 1.0
C      1  0.4502140000000  0.4605740000000  0.2456560000000 1.0
C      1  0.4568430000000  0.7725670000000  0.3043420000000 1.0
C      1  0.4610660000000  0.6667870000000  0.6925210000000 1.0
C      1  0.4543980000000  0.3957320000000  0.8241980000000 1.0
C      1  0.4638950000000  0.2536070000000  0.4341240000000 1.0
C      1  0.5339330000000  0.4625790000000  0.2458280000000 1.0
C      1  0.5377030000000  0.7727870000000  0.2986150000000 1.0
C      1  0.5458780000000  0.6658380000000  0.6931100000000 1.0
C      1  0.5365310000000  0.3964230000000  0.8268040000000 1.0
C      1  0.5481420000000  0.2508330000000  0.4324120000000 1.0
END
