TITL C-1525613-7943-4184 -0.0291217798176804 3375 -8487.08531720136 0 0 60 (S10) n - 1
REM
REM in /home/nfs/bkarasulu/CARBON/AIRSS/Generating-Clusters/ReaxFF-fromJPCA2015/Units_Real/Try2-Higher-symm/Only-C60
REM
REM
REM
REM
REM
REM ./C.cell (863b2abdce7293c0672fb3ba77bf323a)
REM AIRSS Version 0.9.1 bugfix July 2018 build 013d7b7c2542+ Fri, 06 Jul 2018 19:26:36 +0100
REM compiler GCC version 9.2.1 20190827 (Red Hat 9.2.1-1)
REM options -cpp -mtune=generic -march=x86-64 -g -O0 -fpre-include=/usr/include/finclude/math-vector-fortran.h
REM seed -2088583488 28173987 -914696364 1943696463 391151853 -66590157 -202204224 -2139040677 -1866858588 1632149832 -562361204 1769071841 816747956 -1308225957 -1570168346 -1156833779 -973175171 -1262508946 -1327427342 -1799762381 217536842 1849395890 309640602 1008244250 738316515 545643010 -615452963 -47092670 1919221029 -869807096 -1224669168 -1222026527 273472014
REM
CELL 1.54180   15.00000   15.00000   15.00000   90.00000   90.00000   90.00000
LATT -1
SFAC C  
C      1  0.8040570000000  0.4773730000000  0.4187550000000 1.0
C      1  0.1961720000000  0.5299470000000  0.4202690000000 1.0
C      1  0.8040760000000  0.5707010000000  0.4528540000000 1.0
C      1  0.1972950000000  0.5853130000000  0.5026780000000 1.0
C      1  0.8042560000000  0.5670870000000  0.5521450000000 1.0
C      1  0.1961490000000  0.5241490000000  0.5809020000000 1.0
C      1  0.8043930000000  0.4715140000000  0.5793620000000 1.0
C      1  0.1959280000000  0.4307760000000  0.5468610000000 1.0
C      1  0.8041770000000  0.4160630000000  0.4969320000000 1.0
C      1  0.1959290000000  0.4343770000000  0.4476020000000 1.0
C      1  0.2656850000000  0.3824120000000  0.5836480000000 1.0
C      1  0.7342510000000  0.3555160000000  0.4983830000000 1.0
C      1  0.2657000000000  0.3843140000000  0.4132720000000 1.0
C      1  0.7341430000000  0.4571960000000  0.3616710000000 1.0
C      1  0.2658130000000  0.5471040000000  0.3618450000000 1.0
C      1  0.7342040000000  0.6188410000000  0.4160630000000 1.0
C      1  0.2683170000000  0.6453350000000  0.5013670000000 1.0
C      1  0.7343140000000  0.6167860000000  0.5867490000000 1.0
C      1  0.2657070000000  0.5435720000000  0.6387310000000 1.0
C      1  0.7346040000000  0.4539110000000  0.6374500000000 1.0
C      1  0.4544350000000  0.5794460000000  0.7407980000000 1.0
C      1  0.5459130000000  0.4232520000000  0.7413600000000 1.0
C      1  0.4541620000000  0.2965170000000  0.6502540000000 1.0
C      1  0.5456570000000  0.2471290000000  0.5020580000000 1.0
C      1  0.4542350000000  0.2940250000000  0.3530780000000 1.0
C      1  0.5455780000000  0.4196100000000  0.2599740000000 1.0
C      1  0.4545240000000  0.5761050000000  0.2576970000000 1.0
C      1  0.5449520000000  0.7030770000000  0.3492930000000 1.0
C      1  0.4532020000000  0.7512050000000  0.4982820000000 1.0
C      1  0.5452450000000  0.7055420000000  0.6476080000000 1.0
C      1  0.4213150000000  0.6753160000000  0.4539010000000 1.0
C      1  0.5786950000000  0.6707470000000  0.5669500000000 1.0
C      1  0.4211310000000  0.5986470000000  0.6552240000000 1.0
C      1  0.5794040000000  0.4895430000000  0.6839010000000 1.0
C      1  0.4208000000000  0.3839810000000  0.6424590000000 1.0
C      1  0.5790180000000  0.3226280000000  0.5468900000000 1.0
C      1  0.4206110000000  0.3286560000000  0.4336740000000 1.0
C      1  0.5790080000000  0.4006310000000  0.3456700000000 1.0
C      1  0.4209340000000  0.5106990000000  0.3160970000000 1.0
C      1  0.5796890000000  0.6160160000000  0.3561580000000 1.0
C      1  0.4767800000000  0.4838040000000  0.2437100000000 1.0
C      1  0.5231960000000  0.6376830000000  0.2824780000000 1.0
C      1  0.4753900000000  0.7365270000000  0.4055790000000 1.0
C      1  0.5224040000000  0.7475450000000  0.5642690000000 1.0
C      1  0.4766780000000  0.6626700000000  0.6985320000000 1.0
C      1  0.5234670000000  0.5152990000000  0.7566300000000 1.0
C      1  0.4767950000000  0.3622050000000  0.7164470000000 1.0
C      1  0.5231750000000  0.2615910000000  0.5942270000000 1.0
C      1  0.4766600000000  0.2516050000000  0.4361630000000 1.0
C      1  0.5231900000000  0.3365670000000  0.3025120000000 1.0
C      1  0.6619440000000  0.6553070000000  0.6014700000000 1.0
C      1  0.3378940000000  0.5657860000000  0.6737690000000 1.0
C      1  0.6624220000000  0.4517450000000  0.6790440000000 1.0
C      1  0.3378100000000  0.3562780000000  0.6162020000000 1.0
C      1  0.6620410000000  0.3154800000000  0.5094510000000 1.0
C      1  0.3377930000000  0.3451530000000  0.3988380000000 1.0
C      1  0.6619520000000  0.4341360000000  0.3271490000000 1.0
C      1  0.3379570000000  0.5487130000000  0.3203340000000 1.0
C      1  0.6619840000000  0.6446000000000  0.3832260000000 1.0
C      1  0.3367900000000  0.6822430000000  0.4911040000000 1.0
END
