TITL C-1525613-7943-2633 0.0538889540672517 3375 -8990.07120984855 0 0 60 (C1) n - 1
REM
REM in /home/nfs/bkarasulu/CARBON/AIRSS/Generating-Clusters/ReaxFF-fromJPCA2015/Units_Real/Try2-Higher-symm/Only-C60
REM
REM
REM
REM
REM
REM ./C.cell (863b2abdce7293c0672fb3ba77bf323a)
REM AIRSS Version 0.9.1 bugfix July 2018 build 013d7b7c2542+ Fri, 06 Jul 2018 19:26:36 +0100
REM compiler GCC version 9.2.1 20190827 (Red Hat 9.2.1-1)
REM options -cpp -mtune=generic -march=x86-64 -g -O0 -fpre-include=/usr/include/finclude/math-vector-fortran.h
REM seed 189483159 -583822068 1896692984 -943746 -317989130 -461460008 -1463578898 1709912640 -1566482589 142464337 499013728 2110166736 -2096479285 2102273094 560318915 -50880466 873409041 1351541044 -487295355 187859605 -1249890264 261894602 894073476 -1805062807 2146814926 -1812301068 1000217960 -1778005944 1338887686 -195988558 -1409758630 -720528442 -15432997
REM
CELL 1.54180   15.00000   15.00000   15.00000   90.00000   90.00000   90.00000
LATT -1
SFAC C  
C      1  0.4626010000000  0.5152890000000  0.7527500000000 1.0
C      1  0.4631150000000  0.6720920000000  0.5989660000000 1.0
C      1  0.4535280000000  0.7265460000000  0.5166390000000 1.0
C      1  0.4729190000000  0.7048090000000  0.4214030000000 1.0
C      1  0.4763340000000  0.5736350000000  0.2589250000000 1.0
C      1  0.4667730000000  0.4816150000000  0.2442160000000 1.0
C      1  0.4575070000000  0.3336870000000  0.3969230000000 1.0
C      1  0.4577570000000  0.2758570000000  0.4826400000000 1.0
C      1  0.4735430000000  0.2975600000000  0.5816990000000 1.0
C      1  0.4745140000000  0.4225620000000  0.7492630000000 1.0
C      1  0.3237830000000  0.3764880000000  0.5959490000000 1.0
C      1  0.3251450000000  0.4383580000000  0.6741990000000 1.0
C      1  0.3360490000000  0.5734410000000  0.6563760000000 1.0
C      1  0.3055880000000  0.6832800000000  0.5828640000000 1.0
C      1  0.2887710000000  0.6770000000000  0.4826940000000 1.0
C      1  0.3214310000000  0.6351160000000  0.4071110000000 1.0
C      1  0.3308010000000  0.5395470000000  0.3159780000000 1.0
C      1  0.3259500000000  0.4466490000000  0.3478130000000 1.0
C      1  0.3065180000000  0.3116100000000  0.4221230000000 1.0
C      1  0.2889530000000  0.3269840000000  0.5198200000000 1.0
C      1  0.6207980000000  0.5174580000000  0.2640110000000 1.0
C      1  0.5963820000000  0.3820490000000  0.3062460000000 1.0
C      1  0.6074960000000  0.2818850000000  0.4134820000000 1.0
C      1  0.6210100000000  0.2685910000000  0.5521080000000 1.0
C      1  0.6083860000000  0.3513810000000  0.6718050000000 1.0
C      1  0.6189710000000  0.4836970000000  0.7349750000000 1.0
C      1  0.5946450000000  0.6178980000000  0.6924560000000 1.0
C      1  0.6095130000000  0.7210510000000  0.5848210000000 1.0
C      1  0.6209160000000  0.7318070000000  0.4465790000000 1.0
C      1  0.6069920000000  0.6496000000000  0.3301850000000 1.0
C      1  0.6642850000000  0.5833330000000  0.6324050000000 1.0
C      1  0.6729560000000  0.6482270000000  0.5604000000000 1.0
C      1  0.6800040000000  0.6535240000000  0.4643020000000 1.0
C      1  0.6701410000000  0.5994040000000  0.3842690000000 1.0
C      1  0.6775380000000  0.5108870000000  0.3432860000000 1.0
C      1  0.6647210000000  0.4175850000000  0.3673510000000 1.0
C      1  0.6717540000000  0.3529390000000  0.4395980000000 1.0
C      1  0.6791680000000  0.3471780000000  0.5358270000000 1.0
C      1  0.6700290000000  0.4013170000000  0.6161120000000 1.0
C      1  0.6769050000000  0.4900120000000  0.6564850000000 1.0
C      1  0.5593360000000  0.7600120000000  0.5137750000000 1.0
C      1  0.5571430000000  0.7150400000000  0.3786030000000 1.0
C      1  0.5681550000000  0.5969760000000  0.2625900000000 1.0
C      1  0.5580330000000  0.4457760000000  0.2456640000000 1.0
C      1  0.5399140000000  0.3159260000000  0.3505350000000 1.0
C      1  0.5586980000000  0.2406240000000  0.4843690000000 1.0
C      1  0.5593360000000  0.2846280000000  0.6231640000000 1.0
C      1  0.5689060000000  0.4028400000000  0.7409410000000 1.0
C      1  0.5522380000000  0.5529770000000  0.7494920000000 1.0
C      1  0.5431790000000  0.6873370000000  0.6482980000000 1.0
C      1  0.3757820000000  0.6530290000000  0.6333970000000 1.0
C      1  0.3532330000000  0.7370920000000  0.5209550000000 1.0
C      1  0.4017090000000  0.6622270000000  0.3745410000000 1.0
C      1  0.3979750000000  0.6062640000000  0.2997130000000 1.0
C      1  0.3723360000000  0.4629970000000  0.2658580000000 1.0
C      1  0.3703450000000  0.3608770000000  0.3630610000000 1.0
C      1  0.3529980000000  0.2618390000000  0.4872140000000 1.0
C      1  0.3984650000000  0.3300680000000  0.6338110000000 1.0
C      1  0.3967400000000  0.3839300000000  0.7087890000000 1.0
C      1  0.3712870000000  0.5175960000000  0.7101740000000 1.0
END
