TITL C-1525613-7943-5610 -0.053033871060234 3375 -8988.02374239786 0 0 60 (C5) n - 1
REM
REM in /home/nfs/bkarasulu/CARBON/AIRSS/Generating-Clusters/ReaxFF-fromJPCA2015/Units_Real/Try2-Higher-symm/Only-C60
REM
REM
REM
REM
REM
REM ./C.cell (863b2abdce7293c0672fb3ba77bf323a)
REM AIRSS Version 0.9.1 bugfix July 2018 build 013d7b7c2542+ Fri, 06 Jul 2018 19:26:36 +0100
REM compiler GCC version 9.2.1 20190827 (Red Hat 9.2.1-1)
REM options -cpp -mtune=generic -march=x86-64 -g -O0 -fpre-include=/usr/include/finclude/math-vector-fortran.h
REM seed -1224101415 1739919549 1162054317 858963693 1016983948 -789294137 -1777266803 857894875 -315582813 -1932871403 2102352317 -1872854441 1232724294 991862669 863761417 712711028 -1037406890 852587640 -592826306 1632350873 1168583117 -438296530 192850266 374912434 1400756468 1580284390 716321831 1909455071 1156104192 370173333 689369718 -1182093772 1352841125
REM
CELL 1.54180   15.00000   15.00000   15.00000   90.00000   90.00000   90.00000
LATT -1
SFAC C  
C      1  0.3617920000000  0.5369100000000  0.6610730000000 1.0
C      1  0.4221360000000  0.3802540000000  0.6611930000000 1.0
C      1  0.5898500000000  0.3888590000000  0.6611350000000 1.0
C      1  0.6338610000000  0.5511570000000  0.6612830000000 1.0
C      1  0.4924610000000  0.6431700000000  0.6610260000000 1.0
C      1  0.3617550000000  0.5369600000000  0.3388810000000 1.0
C      1  0.4222040000000  0.3802120000000  0.3390500000000 1.0
C      1  0.5898120000000  0.3888730000000  0.3388800000000 1.0
C      1  0.6338080000000  0.5511260000000  0.3386980000000 1.0
C      1  0.4925040000000  0.6431910000000  0.3389380000000 1.0
C      1  0.5075910000000  0.2822620000000  0.5476540000000 1.0
C      1  0.7095080000000  0.4400970000000  0.5476430000000 1.0
C      1  0.6218200000000  0.6800220000000  0.5478000000000 1.0
C      1  0.3661800000000  0.6718580000000  0.5478080000000 1.0
C      1  0.2948720000000  0.4255460000000  0.5477320000000 1.0
C      1  0.5075950000000  0.2822230000000  0.4524060000000 1.0
C      1  0.7094900000000  0.4400600000000  0.4524080000000 1.0
C      1  0.6217890000000  0.6799670000000  0.4522290000000 1.0
C      1  0.3662720000000  0.6718470000000  0.4521700000000 1.0
C      1  0.2948680000000  0.4256350000000  0.4522640000000 1.0
C      1  0.4458010000000  0.7042090000000  0.3993290000000 1.0
C      1  0.2893600000000  0.5116710000000  0.3995730000000 1.0
C      1  0.4238930000000  0.3037840000000  0.3996250000000 1.0
C      1  0.6630800000000  0.3671900000000  0.3996240000000 1.0
C      1  0.6770880000000  0.6142570000000  0.3993700000000 1.0
C      1  0.4458800000000  0.7041880000000  0.6006940000000 1.0
C      1  0.2894470000000  0.5116370000000  0.6004290000000 1.0
C      1  0.4238730000000  0.3037650000000  0.6003250000000 1.0
C      1  0.6632670000000  0.3671900000000  0.6003790000000 1.0
C      1  0.6772270000000  0.6143120000000  0.6006770000000 1.0
C      1  0.4178160000000  0.5153910000000  0.2607550000000 1.0
C      1  0.4598620000000  0.4266460000000  0.2605690000000 1.0
C      1  0.5573480000000  0.4392800000000  0.2605760000000 1.0
C      1  0.5754130000000  0.5358310000000  0.2606050000000 1.0
C      1  0.4890970000000  0.5828670000000  0.2607190000000 1.0
C      1  0.4178630000000  0.5152620000000  0.7392220000000 1.0
C      1  0.4599280000000  0.4267690000000  0.7393540000000 1.0
C      1  0.5572630000000  0.4392550000000  0.7393550000000 1.0
C      1  0.5754420000000  0.5357660000000  0.7393680000000 1.0
C      1  0.4891290000000  0.5828840000000  0.7392230000000 1.0
C      1  0.2947490000000  0.5971720000000  0.4513130000000 1.0
C      1  0.3439550000000  0.3348940000000  0.4514460000000 1.0
C      1  0.6089420000000  0.3007200000000  0.4514780000000 1.0
C      1  0.7232980000000  0.5422300000000  0.4513550000000 1.0
C      1  0.5286700000000  0.7252490000000  0.4511220000000 1.0
C      1  0.2947210000000  0.5971650000000  0.5486900000000 1.0
C      1  0.3439310000000  0.3349050000000  0.5485610000000 1.0
C      1  0.6089510000000  0.3006710000000  0.5485400000000 1.0
C      1  0.7232700000000  0.5422500000000  0.5487040000000 1.0
C      1  0.5286960000000  0.7252090000000  0.5488840000000 1.0
C      1  0.5462890000000  0.4347900000000  0.4146700000000 1.0
C      1  0.5766930000000  0.5233950000000  0.4146480000000 1.0
C      1  0.5010770000000  0.5799910000000  0.4146490000000 1.0
C      1  0.4243030000000  0.5248960000000  0.4147590000000 1.0
C      1  0.4531580000000  0.4355160000000  0.4146820000000 1.0
C      1  0.5462810000000  0.4346520000000  0.5852770000000 1.0
C      1  0.5765340000000  0.5234840000000  0.5853370000000 1.0
C      1  0.5010280000000  0.5799180000000  0.5853450000000 1.0
C      1  0.4242430000000  0.5248540000000  0.5852470000000 1.0
C      1  0.4529680000000  0.4356550000000  0.5852510000000 1.0
END
