TITL C-1525613-7943-6943 -0.0155712248083707 3375 -9540.48715856496 0 0 60 (D5d) n - 1
REM
REM in /home/nfs/bkarasulu/CARBON/AIRSS/Generating-Clusters/ReaxFF-fromJPCA2015/Units_Real/Try2-Higher-symm/Only-C60
REM
REM
REM
REM
REM
REM ./C.cell (863b2abdce7293c0672fb3ba77bf323a)
REM AIRSS Version 0.9.1 bugfix July 2018 build 013d7b7c2542+ Fri, 06 Jul 2018 19:26:36 +0100
REM compiler GCC version 9.2.1 20190827 (Red Hat 9.2.1-1)
REM options -cpp -mtune=generic -march=x86-64 -g -O0 -fpre-include=/usr/include/finclude/math-vector-fortran.h
REM seed 19975566 -744568032 -1458325209 -446863408 -1707927251 -1698596438 -1337052905 -279405001 720566091 475291464 1488790140 1738938378 1059341445 -857085766 -785899667 -412796412 1860700778 -137738877 2042180762 81959627 -1295116754 -1051258375 -1557940941 1776527213 640376834 -1901753042 -19813368 -1720711084 1198359313 -1140122427 435985392 1426743028 -655784042
REM
CELL 1.54180   15.00000   15.00000   15.00000   90.00000   90.00000   90.00000
LATT -1
SFAC C  
C      1  0.2679900000000  0.4590210000000  0.5249640000000 1.0
C      1  0.4520550000000  0.4590110000000  0.7282940000000 1.0
C      1  0.7023750000000  0.4589950000000  0.6161600000000 1.0
C      1  0.6730040000000  0.4590120000000  0.3434760000000 1.0
C      1  0.4045650000000  0.4589910000000  0.2871110000000 1.0
C      1  0.7320210000000  0.4590040000000  0.5249700000000 1.0
C      1  0.5479490000000  0.4590130000000  0.7282940000000 1.0
C      1  0.2976320000000  0.4590040000000  0.6161630000000 1.0
C      1  0.3269860000000  0.4590040000000  0.3434590000000 1.0
C      1  0.5954160000000  0.4590050000000  0.2871230000000 1.0
C      1  0.7222190000000  0.3781750000000  0.4765680000000 1.0
C      1  0.5463730000000  0.3781610000000  0.2815050000000 1.0
C      1  0.3064710000000  0.3781970000000  0.3883680000000 1.0
C      1  0.3340180000000  0.3781720000000  0.6495330000000 1.0
C      1  0.5909300000000  0.3781940000000  0.7040170000000 1.0
C      1  0.2777890000000  0.3781870000000  0.4765720000000 1.0
C      1  0.4536160000000  0.3781640000000  0.2814950000000 1.0
C      1  0.6935210000000  0.3781820000000  0.3883820000000 1.0
C      1  0.6660010000000  0.3781780000000  0.6495330000000 1.0
C      1  0.4090810000000  0.3781970000000  0.7040150000000 1.0
C      1  0.3339000000000  0.6218710000000  0.3503380000000 1.0
C      1  0.3063280000000  0.6218730000000  0.6116920000000 1.0
C      1  0.5463830000000  0.6218820000000  0.7186890000000 1.0
C      1  0.7223580000000  0.6218710000000  0.5234590000000 1.0
C      1  0.5910330000000  0.6218700000000  0.2958330000000 1.0
C      1  0.6660600000000  0.6218800000000  0.3503290000000 1.0
C      1  0.6936790000000  0.6218650000000  0.6117150000000 1.0
C      1  0.4536260000000  0.6218870000000  0.7186850000000 1.0
C      1  0.2776500000000  0.6218710000000  0.5234720000000 1.0
C      1  0.4089860000000  0.6218580000000  0.2958050000000 1.0
C      1  0.3725070000000  0.3094320000000  0.4065710000000 1.0
C      1  0.3717160000000  0.3094020000000  0.5923470000000 1.0
C      1  0.5482130000000  0.3094450000000  0.6504560000000 1.0
C      1  0.6581150000000  0.3093970000000  0.5006660000000 1.0
C      1  0.5494550000000  0.3094240000000  0.3499390000000 1.0
C      1  0.6274870000000  0.3094350000000  0.4065810000000 1.0
C      1  0.6282960000000  0.3093990000000  0.5923560000000 1.0
C      1  0.4518010000000  0.3094510000000  0.6504540000000 1.0
C      1  0.3418980000000  0.3094150000000  0.5006610000000 1.0
C      1  0.4505230000000  0.3094070000000  0.3499350000000 1.0
C      1  0.6282740000000  0.6904740000000  0.4076570000000 1.0
C      1  0.4517750000000  0.6904640000000  0.3495000000000 1.0
C      1  0.3419280000000  0.6904760000000  0.4993200000000 1.0
C      1  0.4505280000000  0.6904820000000  0.6501040000000 1.0
C      1  0.6274840000000  0.6904680000000  0.5934270000000 1.0
C      1  0.3717470000000  0.6904710000000  0.4076320000000 1.0
C      1  0.5481870000000  0.6904630000000  0.3494830000000 1.0
C      1  0.6580620000000  0.6904750000000  0.4993490000000 1.0
C      1  0.5494830000000  0.6904840000000  0.6501010000000 1.0
C      1  0.3725350000000  0.6904590000000  0.5934350000000 1.0
C      1  0.2975880000000  0.5410550000000  0.3838170000000 1.0
C      1  0.3269450000000  0.5410510000000  0.6565720000000 1.0
C      1  0.5954590000000  0.5410520000000  0.7129340000000 1.0
C      1  0.7320580000000  0.5410580000000  0.4750400000000 1.0
C      1  0.5479340000000  0.5410260000000  0.2716340000000 1.0
C      1  0.7024090000000  0.5410360000000  0.3838370000000 1.0
C      1  0.6730590000000  0.5410570000000  0.6565770000000 1.0
C      1  0.4045340000000  0.5410480000000  0.7129320000000 1.0
C      1  0.2679420000000  0.5410540000000  0.4750310000000 1.0
C      1  0.4520430000000  0.5410460000000  0.2716310000000 1.0
END
