TITL C-1525613-7943-292 0.0379349705036911 3375 -8523.99283951015 0 0 60 (Ci) n - 1
REM
REM in /home/nfs/bkarasulu/CARBON/AIRSS/Generating-Clusters/ReaxFF-fromJPCA2015/Units_Real/Try2-Higher-symm/Only-C60
REM
REM
REM
REM
REM
REM ./C.cell (863b2abdce7293c0672fb3ba77bf323a)
REM AIRSS Version 0.9.1 bugfix July 2018 build 013d7b7c2542+ Fri, 06 Jul 2018 19:26:36 +0100
REM compiler GCC version 9.2.1 20190827 (Red Hat 9.2.1-1)
REM options -cpp -mtune=generic -march=x86-64 -g -O0 -fpre-include=/usr/include/finclude/math-vector-fortran.h
REM seed 1566252103 1084584608 -1755693819 -1639405808 738227279 664913341 -420712722 -1294972217 448565878 142406689 -1052675565 456490456 415093565 -1779654515 1869685283 -1016521962 -1270685224 1246519848 -1463416249 1765711784 931971739 -516107981 1188080192 -1644117886 -2076025488 -501818702 1327683962 -1862727038 -1805093744 1250804046 -2042430549 -1294261367 -737076246
REM
CELL 1.54180   15.00000   15.00000   15.00000   90.00000   90.00000   90.00000
LATT -1
SFAC C  
C      1  0.4464980000000  0.2961220000000  0.3798350000000 1.0
C      1  0.3366130000000  0.3766590000000  0.6199680000000 1.0
C      1  0.2942120000000  0.4961550000000  0.3850370000000 1.0
C      1  0.3314030000000  0.6201850000000  0.6165240000000 1.0
C      1  0.4347210000000  0.6925010000000  0.3830590000000 1.0
C      1  0.5530760000000  0.7037280000000  0.6204030000000 1.0
C      1  0.6634520000000  0.6233590000000  0.3802000000000 1.0
C      1  0.7060050000000  0.5041370000000  0.6151710000000 1.0
C      1  0.6685990000000  0.3798870000000  0.3837880000000 1.0
C      1  0.5652760000000  0.3074500000000  0.6169330000000 1.0
C      1  0.5521570000000  0.4372280000000  0.6241430000000 1.0
C      1  0.4990240000000  0.4174110000000  0.3669930000000 1.0
C      1  0.4554550000000  0.4348310000000  0.6204270000000 1.0
C      1  0.4223590000000  0.4718070000000  0.3728450000000 1.0
C      1  0.4275980000000  0.5266240000000  0.6262400000000 1.0
C      1  0.4481910000000  0.5627040000000  0.3759320000000 1.0
C      1  0.5012740000000  0.5820730000000  0.6328870000000 1.0
C      1  0.5446350000000  0.5651640000000  0.3794210000000 1.0
C      1  0.5777560000000  0.5278370000000  0.6269000000000 1.0
C      1  0.5725130000000  0.4732180000000  0.3726230000000 1.0
C      1  0.5147180000000  0.6531760000000  0.6980390000000 1.0
C      1  0.6067520000000  0.6088550000000  0.3020720000000 1.0
C      1  0.6532230000000  0.5246140000000  0.6951150000000 1.0
C      1  0.6361420000000  0.4376010000000  0.3084190000000 1.0
C      1  0.5679300000000  0.3615810000000  0.6980460000000 1.0
C      1  0.4847060000000  0.3463060000000  0.3018480000000 1.0
C      1  0.3932320000000  0.3909500000000  0.6979670000000 1.0
C      1  0.3470070000000  0.4752350000000  0.3051220000000 1.0
C      1  0.3643500000000  0.5620390000000  0.6910920000000 1.0
C      1  0.4319650000000  0.6383760000000  0.3020710000000 1.0
C      1  0.4927440000000  0.3011920000000  0.5502050000000 1.0
C      1  0.3775490000000  0.3460630000000  0.4167770000000 1.0
C      1  0.2919020000000  0.4546040000000  0.5756080000000 1.0
C      1  0.3120250000000  0.5681930000000  0.4496250000000 1.0
C      1  0.4010240000000  0.6694810000000  0.5782080000000 1.0
C      1  0.5072540000000  0.6992580000000  0.4497200000000 1.0
C      1  0.6227540000000  0.6548000000000  0.5834340000000 1.0
C      1  0.7081720000000  0.5453050000000  0.4243700000000 1.0
C      1  0.6883150000000  0.4320000000000  0.5506260000000 1.0
C      1  0.5985720000000  0.3310100000000  0.4216710000000 1.0
C      1  0.3937340000000  0.6192010000000  0.4325540000000 1.0
C      1  0.4789290000000  0.7072010000000  0.5454140000000 1.0
C      1  0.5821030000000  0.6397040000000  0.4350010000000 1.0
C      1  0.6601100000000  0.5736170000000  0.5628310000000 1.0
C      1  0.6965950000000  0.4537190000000  0.4538410000000 1.0
C      1  0.6068830000000  0.3806000000000  0.5676630000000 1.0
C      1  0.5208360000000  0.2928740000000  0.4544410000000 1.0
C      1  0.4178210000000  0.3606580000000  0.5648800000000 1.0
C      1  0.3388070000000  0.4262350000000  0.4375360000000 1.0
C      1  0.3037080000000  0.5463440000000  0.5463440000000 1.0
C      1  0.5336680000000  0.4252590000000  0.7629690000000 1.0
C      1  0.4848490000000  0.4166500000000  0.2336590000000 1.0
C      1  0.4359770000000  0.4451100000000  0.7655310000000 1.0
C      1  0.4178690000000  0.4890870000000  0.2386540000000 1.0
C      1  0.4248690000000  0.5431670000000  0.7656190000000 1.0
C      1  0.4662100000000  0.5748760000000  0.2369590000000 1.0
C      1  0.5149450000000  0.5831840000000  0.7663970000000 1.0
C      1  0.5638650000000  0.5549520000000  0.2343750000000 1.0
C      1  0.5822320000000  0.5109620000000  0.7613810000000 1.0
C      1  0.5748400000000  0.4568810000000  0.2345850000000 1.0
END
