TITL C-1525613-7943-4088 0.105073820483255 3375 -8500.52191984101 0 0 60 (C5) n - 1
REM
REM in /home/nfs/bkarasulu/CARBON/AIRSS/Generating-Clusters/ReaxFF-fromJPCA2015/Units_Real/Try2-Higher-symm/Only-C60
REM
REM
REM
REM
REM
REM ./C.cell (863b2abdce7293c0672fb3ba77bf323a)
REM AIRSS Version 0.9.1 bugfix July 2018 build 013d7b7c2542+ Fri, 06 Jul 2018 19:26:36 +0100
REM compiler GCC version 9.2.1 20190827 (Red Hat 9.2.1-1)
REM options -cpp -mtune=generic -march=x86-64 -g -O0 -fpre-include=/usr/include/finclude/math-vector-fortran.h
REM seed -1720788002 1820085665 -1583539166 -925827726 -234972510 1807746672 -2094863189 1630422945 1211889730 144936956 1515481320 -1452325935 -1253936370 -1579185714 1256757193 1451706707 921638652 2045145551 -734240357 -1613742136 61580141 1272133181 -2080259486 25983510 1303062338 925986139 739667666 1601638889 490704522 1490677142 -1607229417 -907737367 -1462477729
REM
CELL 1.54180   15.00000   15.00000   15.00000   90.00000   90.00000   90.00000
LATT -1
SFAC C  
C      1  0.6357800000000  0.4568900000000  0.4644900000000 1.0
C      1  0.5837330000000  0.6144010000000  0.4634560000000 1.0
C      1  0.4167400000000  0.6127190000000  0.4660170000000 1.0
C      1  0.3646910000000  0.4542540000000  0.4639410000000 1.0
C      1  0.5013480000000  0.3589760000000  0.4637820000000 1.0
C      1  0.6352290000000  0.5461240000000  0.4660530000000 1.0
C      1  0.5860270000000  0.3871180000000  0.4664920000000 1.0
C      1  0.4192000000000  0.3835200000000  0.4675930000000 1.0
C      1  0.3642730000000  0.5406930000000  0.4626580000000 1.0
C      1  0.4985140000000  0.6409560000000  0.4661730000000 1.0
C      1  0.4755150000000  0.7373610000000  0.5967550000000 1.0
C      1  0.2671240000000  0.5502730000000  0.5966590000000 1.0
C      1  0.3800300000000  0.2939630000000  0.5966820000000 1.0
C      1  0.6587570000000  0.3224000000000  0.5969560000000 1.0
C      1  0.7176630000000  0.5962600000000  0.5964310000000 1.0
C      1  0.4746900000000  0.2620760000000  0.5965900000000 1.0
C      1  0.2663180000000  0.4506810000000  0.5963890000000 1.0
C      1  0.3803770000000  0.7075260000000  0.5969230000000 1.0
C      1  0.6599700000000  0.6776100000000  0.5966170000000 1.0
C      1  0.7181580000000  0.4025920000000  0.5965850000000 1.0
C      1  0.3603330000000  0.5457040000000  0.3298420000000 1.0
C      1  0.4131530000000  0.3815150000000  0.3283110000000 1.0
C      1  0.5859680000000  0.3807050000000  0.3296360000000 1.0
C      1  0.6400350000000  0.5452090000000  0.3299700000000 1.0
C      1  0.5000480000000  0.6485780000000  0.3296100000000 1.0
C      1  0.3634370000000  0.4557780000000  0.3297940000000 1.0
C      1  0.4161120000000  0.6158310000000  0.3292380000000 1.0
C      1  0.5831470000000  0.6149870000000  0.3301890000000 1.0
C      1  0.6357450000000  0.4556980000000  0.3296250000000 1.0
C      1  0.4996240000000  0.3572470000000  0.3292770000000 1.0
C      1  0.5008210000000  0.6600300000000  0.6529200000000 1.0
C      1  0.3482740000000  0.5502860000000  0.6532810000000 1.0
C      1  0.4054060000000  0.3711820000000  0.6530640000000 1.0
C      1  0.5933360000000  0.3700000000000  0.6536760000000 1.0
C      1  0.6522430000000  0.5485990000000  0.6531690000000 1.0
C      1  0.4999250000000  0.3398640000000  0.6534430000000 1.0
C      1  0.3478110000000  0.4505940000000  0.6535460000000 1.0
C      1  0.4059430000000  0.6295760000000  0.6534670000000 1.0
C      1  0.5940470000000  0.6295390000000  0.6537400000000 1.0
C      1  0.6521620000000  0.4504830000000  0.6537630000000 1.0
C      1  0.5361200000000  0.7673750000000  0.5236410000000 1.0
C      1  0.2568580000000  0.6172850000000  0.5237420000000 1.0
C      1  0.3130940000000  0.3055030000000  0.5242920000000 1.0
C      1  0.6273590000000  0.2623590000000  0.5238690000000 1.0
C      1  0.7653230000000  0.5480920000000  0.5233430000000 1.0
C      1  0.5344370000000  0.2328590000000  0.5245840000000 1.0
C      1  0.2566570000000  0.3847310000000  0.5240900000000 1.0
C      1  0.3147000000000  0.6958500000000  0.5249380000000 1.0
C      1  0.6286700000000  0.7365880000000  0.5247230000000 1.0
C      1  0.7644240000000  0.4506290000000  0.5245800000000 1.0
C      1  0.7298860000000  0.4508530000000  0.4302510000000 1.0
C      1  0.6176350000000  0.7030040000000  0.4308490000000 1.0
C      1  0.3445390000000  0.6740980000000  0.4318040000000 1.0
C      1  0.2845440000000  0.4044190000000  0.4304480000000 1.0
C      1  0.5237980000000  0.2670080000000  0.4308330000000 1.0
C      1  0.7264560000000  0.5506000000000  0.4305350000000 1.0
C      1  0.6171200000000  0.3013580000000  0.4318150000000 1.0
C      1  0.3475190000000  0.3273740000000  0.4320640000000 1.0
C      1  0.2876060000000  0.5921680000000  0.4313410000000 1.0
C      1  0.5215490000000  0.7300470000000  0.4314570000000 1.0
END
