TITL C-1525613-7943-2822 -0.1927261468203 3375 -8912.45342811681 0 0 60 (C10) n - 1
REM
REM in /home/nfs/bkarasulu/CARBON/AIRSS/Generating-Clusters/ReaxFF-fromJPCA2015/Units_Real/Try2-Higher-symm/Only-C60
REM
REM
REM
REM
REM
REM ./C.cell (863b2abdce7293c0672fb3ba77bf323a)
REM AIRSS Version 0.9.1 bugfix July 2018 build 013d7b7c2542+ Fri, 06 Jul 2018 19:26:36 +0100
REM compiler GCC version 9.2.1 20190827 (Red Hat 9.2.1-1)
REM options -cpp -mtune=generic -march=x86-64 -g -O0 -fpre-include=/usr/include/finclude/math-vector-fortran.h
REM seed 1244044146 -1145561586 -1799631792 -442345373 1623371798 224482508 -984310335 104553063 2007739985 -1465326925 307913893 -1143770765 -2123456237 -1409742409 1864077174 1529666324 -861656396 1851264934 -252711334 1845565775 -83881945 1759217680 2012928800 1009823863 -389593386 2147303915 1405281164 -1831916058 -1621923262 493314945 358104810 -1761637969 -1819651321
REM
CELL 1.54180   15.00000   15.00000   15.00000   90.00000   90.00000   90.00000
LATT -1
SFAC C  
C      1  0.3180900000000  0.3340740000000  0.4748690000000 1.0
C      1  0.2555250000000  0.4728470000000  0.4753290000000 1.0
C      1  0.2865030000000  0.6214690000000  0.4757260000000 1.0
C      1  0.3986190000000  0.7241640000000  0.4752350000000 1.0
C      1  0.5495560000000  0.7409990000000  0.4756110000000 1.0
C      1  0.6817880000000  0.6659000000000  0.4749040000000 1.0
C      1  0.7444430000000  0.5272770000000  0.4752720000000 1.0
C      1  0.7135710000000  0.3785520000000  0.4756350000000 1.0
C      1  0.6014370000000  0.2757620000000  0.4751450000000 1.0
C      1  0.4503370000000  0.2588590000000  0.4755400000000 1.0
C      1  0.3761660000000  0.3874710000000  0.4067220000000 1.0
C      1  0.3349940000000  0.4813360000000  0.4087700000000 1.0
C      1  0.3560750000000  0.5821210000000  0.4091290000000 1.0
C      1  0.4306600000000  0.6525740000000  0.4063100000000 1.0
C      1  0.5332450000000  0.6612850000000  0.4107250000000 1.0
C      1  0.6240010000000  0.6124790000000  0.4067610000000 1.0
C      1  0.6650600000000  0.5185940000000  0.4088220000000 1.0
C      1  0.6439530000000  0.4178330000000  0.4092380000000 1.0
C      1  0.5693460000000  0.3474100000000  0.4064700000000 1.0
C      1  0.4668230000000  0.3386820000000  0.4107620000000 1.0
C      1  0.4359270000000  0.6413270000000  0.3041290000000 1.0
C      1  0.5312120000000  0.6511080000000  0.3090900000000 1.0
C      1  0.6147890000000  0.6044260000000  0.3043180000000 1.0
C      1  0.6542830000000  0.5171200000000  0.3058800000000 1.0
C      1  0.6348300000000  0.4233730000000  0.3063590000000 1.0
C      1  0.5640810000000  0.3587060000000  0.3041760000000 1.0
C      1  0.4688440000000  0.3487670000000  0.3090120000000 1.0
C      1  0.3852780000000  0.3954720000000  0.3043140000000 1.0
C      1  0.3457960000000  0.4828190000000  0.3059290000000 1.0
C      1  0.3651530000000  0.5766270000000  0.3063350000000 1.0
C      1  0.6593050000000  0.6454050000000  0.6600260000000 1.0
C      1  0.7138880000000  0.5239440000000  0.6600380000000 1.0
C      1  0.6870890000000  0.3934830000000  0.6600430000000 1.0
C      1  0.5887910000000  0.3036360000000  0.6601830000000 1.0
C      1  0.4564200000000  0.2887640000000  0.6601280000000 1.0
C      1  0.3407070000000  0.3546120000000  0.6600240000000 1.0
C      1  0.2861740000000  0.4760800000000  0.6601100000000 1.0
C      1  0.3128550000000  0.6065730000000  0.6601170000000 1.0
C      1  0.4111870000000  0.6964330000000  0.6602610000000 1.0
C      1  0.5435400000000  0.7112160000000  0.6601970000000 1.0
C      1  0.2607160000000  0.3915280000000  0.5239610000000 1.0
C      1  0.2422920000000  0.5530180000000  0.5243650000000 1.0
C      1  0.3228390000000  0.6946270000000  0.5240580000000 1.0
C      1  0.4707100000000  0.7615590000000  0.5242980000000 1.0
C      1  0.6302140000000  0.7285900000000  0.5240280000000 1.0
C      1  0.7392690000000  0.6086320000000  0.5240240000000 1.0
C      1  0.7576210000000  0.4471060000000  0.5243590000000 1.0
C      1  0.6770930000000  0.3054040000000  0.5240630000000 1.0
C      1  0.5292560000000  0.2385170000000  0.5241770000000 1.0
C      1  0.3696780000000  0.2713400000000  0.5239870000000 1.0
C      1  0.3783990000000  0.2863230000000  0.6260440000000 1.0
C      1  0.2762840000000  0.3986170000000  0.6260360000000 1.0
C      1  0.2595060000000  0.5494620000000  0.6263010000000 1.0
C      1  0.3347560000000  0.6814040000000  0.6260520000000 1.0
C      1  0.4728400000000  0.7442960000000  0.6263730000000 1.0
C      1  0.6215290000000  0.7136330000000  0.6260160000000 1.0
C      1  0.7238160000000  0.6014640000000  0.6259330000000 1.0
C      1  0.7404660000000  0.4505490000000  0.6260930000000 1.0
C      1  0.6652430000000  0.3185930000000  0.6259270000000 1.0
C      1  0.5271300000000  0.2557580000000  0.6262620000000 1.0
END
