TITL C-1525613-7943-4640 0.15542041956467 3375 -9002.43003501404 0 0 60 (C1) n - 1
REM
REM in /home/nfs/bkarasulu/CARBON/AIRSS/Generating-Clusters/ReaxFF-fromJPCA2015/Units_Real/Try2-Higher-symm/Only-C60
REM
REM
REM
REM
REM
REM ./C.cell (863b2abdce7293c0672fb3ba77bf323a)
REM AIRSS Version 0.9.1 bugfix July 2018 build 013d7b7c2542+ Fri, 06 Jul 2018 19:26:36 +0100
REM compiler GCC version 9.2.1 20190827 (Red Hat 9.2.1-1)
REM options -cpp -mtune=generic -march=x86-64 -g -O0 -fpre-include=/usr/include/finclude/math-vector-fortran.h
REM seed 1165441509 -1189777758 4230754 500870670 -87454597 451300200 -1613620667 879405823 1607590800 -931887868 625683900 -853316122 -1419049152 1687961515 1920361634 1928001313 1709377620 380753821 1744163745 -1771214486 -1019395443 2121391384 822498679 1975894017 -1400070687 -1033918318 1915911962 1382623007 986779805 -1348793558 1024569098 -1185368751 338903365
REM
CELL 1.54180   15.00000   15.00000   15.00000   90.00000   90.00000   90.00000
LATT -1
SFAC C  
C      1  0.4370600000000  0.6038720000000  0.7234440000000 1.0
C      1  0.3337640000000  0.6119820000000  0.5250430000000 1.0
C      1  0.4333730000000  0.6043920000000  0.3088680000000 1.0
C      1  0.6754490000000  0.6091070000000  0.3539530000000 1.0
C      1  0.6326160000000  0.5962000000000  0.5786040000000 1.0
C      1  0.4283580000000  0.3986150000000  0.7174680000000 1.0
C      1  0.3093580000000  0.4262700000000  0.5168990000000 1.0
C      1  0.4344070000000  0.3983540000000  0.3167690000000 1.0
C      1  0.6801000000000  0.3941960000000  0.3538000000000 1.0
C      1  0.6387360000000  0.4033100000000  0.5767480000000 1.0
C      1  0.5493070000000  0.6808230000000  0.4478970000000 1.0
C      1  0.5755280000000  0.6722530000000  0.5390380000000 1.0
C      1  0.4906520000000  0.6798550000000  0.5818130000000 1.0
C      1  0.4088660000000  0.6839150000000  0.5327970000000 1.0
C      1  0.4523710000000  0.6918370000000  0.4496150000000 1.0
C      1  0.5568080000000  0.3197990000000  0.4481180000000 1.0
C      1  0.5898510000000  0.3218230000000  0.5383110000000 1.0
C      1  0.5116290000000  0.2981450000000  0.5907230000000 1.0
C      1  0.4383600000000  0.2546880000000  0.5364720000000 1.0
C      1  0.4601030000000  0.2963700000000  0.4480260000000 1.0
C      1  0.6753150000000  0.4522330000000  0.2748980000000 1.0
C      1  0.7373240000000  0.4543180000000  0.5837760000000 1.0
C      1  0.4857690000000  0.4502240000000  0.7791730000000 1.0
C      1  0.2384720000000  0.4751210000000  0.5667430000000 1.0
C      1  0.3589400000000  0.4507560000000  0.2817110000000 1.0
C      1  0.6743150000000  0.5506410000000  0.2752900000000 1.0
C      1  0.7347130000000  0.5498850000000  0.5834910000000 1.0
C      1  0.4900690000000  0.5497620000000  0.7840760000000 1.0
C      1  0.2534910000000  0.5712930000000  0.5778300000000 1.0
C      1  0.3575950000000  0.5487340000000  0.2823440000000 1.0
C      1  0.5734800000000  0.5545120000000  0.6482030000000 1.0
C      1  0.3615750000000  0.5778710000000  0.6716980000000 1.0
C      1  0.3259180000000  0.6037340000000  0.4254230000000 1.0
C      1  0.5279230000000  0.6021380000000  0.2989940000000 1.0
C      1  0.7039710000000  0.5860410000000  0.4435250000000 1.0
C      1  0.5708630000000  0.4395360000000  0.6474100000000 1.0
C      1  0.3498710000000  0.4174060000000  0.6626290000000 1.0
C      1  0.3169320000000  0.3942960000000  0.4257640000000 1.0
C      1  0.5294510000000  0.4007270000000  0.3019030000000 1.0
C      1  0.7073130000000  0.4188040000000  0.4432450000000 1.0
C      1  0.4893610000000  0.6026360000000  0.6390810000000 1.0
C      1  0.4008500000000  0.5470630000000  0.5855230000000 1.0
C      1  0.4006530000000  0.6449970000000  0.3869930000000 1.0
C      1  0.5845170000000  0.6400050000000  0.3664970000000 1.0
C      1  0.6281500000000  0.5479380000000  0.4915970000000 1.0
C      1  0.4869260000000  0.3829200000000  0.6401990000000 1.0
C      1  0.3867980000000  0.4477690000000  0.5746360000000 1.0
C      1  0.4000960000000  0.3532990000000  0.3944930000000 1.0
C      1  0.5889530000000  0.3641200000000  0.3674950000000 1.0
C      1  0.6300570000000  0.4541340000000  0.4908990000000 1.0
C      1  0.2651600000000  0.5600600000000  0.6742180000000 1.0
C      1  0.2901410000000  0.5478150000000  0.3550310000000 1.0
C      1  0.5825920000000  0.5471690000000  0.2432010000000 1.0
C      1  0.7806370000000  0.5535650000000  0.4977070000000 1.0
C      1  0.5815990000000  0.5458940000000  0.7476790000000 1.0
C      1  0.2610770000000  0.4613000000000  0.6627300000000 1.0
C      1  0.2873870000000  0.4492270000000  0.3499670000000 1.0
C      1  0.5833810000000  0.4541580000000  0.2445990000000 1.0
C      1  0.7828660000000  0.4529100000000  0.4976350000000 1.0
C      1  0.5788020000000  0.4491850000000  0.7472870000000 1.0
END
