TITL C-1525613-7943-5602 0.139790575149842 3375 -8553.25318553671 0 0 60 (C1) n - 1
REM
REM in /home/nfs/bkarasulu/CARBON/AIRSS/Generating-Clusters/ReaxFF-fromJPCA2015/Units_Real/Try2-Higher-symm/Only-C60
REM
REM
REM
REM
REM
REM ./C.cell (863b2abdce7293c0672fb3ba77bf323a)
REM AIRSS Version 0.9.1 bugfix July 2018 build 013d7b7c2542+ Fri, 06 Jul 2018 19:26:36 +0100
REM compiler GCC version 9.2.1 20190827 (Red Hat 9.2.1-1)
REM options -cpp -mtune=generic -march=x86-64 -g -O0 -fpre-include=/usr/include/finclude/math-vector-fortran.h
REM seed -1614781011 2138060880 -464304702 -862687099 497868164 178783272 -2115422606 1396491936 -796255118 939672670 1813096796 -1043810681 1239940166 -973160816 869052791 -1243938029 1486874482 1112482998 -889375690 2138290866 876659558 -1708851388 -1302639244 -2032266253 1090995708 -2110734053 -1523045112 300536417 -656562913 859814676 76766652 1357331535 2066581686
REM
CELL 1.54180   15.00000   15.00000   15.00000   90.00000   90.00000   90.00000
LATT -1
SFAC C  
C      1  0.6418530000000  0.3793260000000  0.4179850000000 1.0
C      1  0.3630370000000  0.4533000000000  0.3661080000000 1.0
C      1  0.6423330000000  0.5392330000000  0.3566770000000 1.0
C      1  0.3704880000000  0.6273840000000  0.4240310000000 1.0
C      1  0.6425420000000  0.6468220000000  0.4918910000000 1.0
C      1  0.3562530000000  0.6181820000000  0.5915120000000 1.0
C      1  0.6387670000000  0.5516020000000  0.6333660000000 1.0
C      1  0.3574920000000  0.4589340000000  0.6440750000000 1.0
C      1  0.6378610000000  0.3856250000000  0.5878910000000 1.0
C      1  0.3591460000000  0.3555320000000  0.5067020000000 1.0
C      1  0.2880390000000  0.4773050000000  0.4258740000000 1.0
C      1  0.7184440000000  0.5213020000000  0.4171110000000 1.0
C      1  0.2921570000000  0.5709490000000  0.4528980000000 1.0
C      1  0.7187570000000  0.5831660000000  0.4925860000000 1.0
C      1  0.2827270000000  0.5698490000000  0.5496880000000 1.0
C      1  0.7160510000000  0.5305140000000  0.5753790000000 1.0
C      1  0.2817390000000  0.4775100000000  0.5835140000000 1.0
C      1  0.7155310000000  0.4355940000000  0.5519960000000 1.0
C      1  0.2836730000000  0.4194270000000  0.5056570000000 1.0
C      1  0.7175110000000  0.4304260000000  0.4542240000000 1.0
C      1  0.4810750000000  0.6897710000000  0.3113410000000 1.0
C      1  0.5215240000000  0.7574520000000  0.4583680000000 1.0
C      1  0.4698220000000  0.7285390000000  0.5983970000000 1.0
C      1  0.5224060000000  0.6234520000000  0.7320370000000 1.0
C      1  0.4704730000000  0.4603550000000  0.7599890000000 1.0
C      1  0.5209210000000  0.3128880000000  0.6837780000000 1.0
C      1  0.4725480000000  0.2406010000000  0.5406850000000 1.0
C      1  0.5298230000000  0.2643560000000  0.3846920000000 1.0
C      1  0.4740400000000  0.3786790000000  0.2640360000000 1.0
C      1  0.5285560000000  0.5398470000000  0.2418420000000 1.0
C      1  0.4639480000000  0.3074590000000  0.3276650000000 1.0
C      1  0.5389930000000  0.4478560000000  0.2431210000000 1.0
C      1  0.4690190000000  0.6052550000000  0.2749110000000 1.0
C      1  0.5453230000000  0.7364070000000  0.3677530000000 1.0
C      1  0.4463360000000  0.7131200000000  0.5031820000000 1.0
C      1  0.5304830000000  0.6920820000000  0.6646520000000 1.0
C      1  0.4604010000000  0.5524050000000  0.7559140000000 1.0
C      1  0.5288830000000  0.3936790000000  0.7275870000000 1.0
C      1  0.4594430000000  0.2703920000000  0.6268800000000 1.0
C      1  0.5392490000000  0.2450750000000  0.4745060000000 1.0
C      1  0.6113780000000  0.7224860000000  0.4395790000000 1.0
C      1  0.3841640000000  0.7054940000000  0.5759100000000 1.0
C      1  0.6057860000000  0.6290830000000  0.6803700000000 1.0
C      1  0.3889350000000  0.4945980000000  0.7278690000000 1.0
C      1  0.6016280000000  0.3620360000000  0.6742210000000 1.0
C      1  0.3899840000000  0.2826130000000  0.5616660000000 1.0
C      1  0.6104170000000  0.2895270000000  0.4281940000000 1.0
C      1  0.3920440000000  0.3748470000000  0.3180130000000 1.0
C      1  0.6103580000000  0.5049340000000  0.2726550000000 1.0
C      1  0.4031280000000  0.6411020000000  0.3328590000000 1.0
C      1  0.5647530000000  0.4346200000000  0.4448100000000 1.0
C      1  0.4382440000000  0.4795910000000  0.4247900000000 1.0
C      1  0.5686210000000  0.5297920000000  0.4192820000000 1.0
C      1  0.4351070000000  0.5678750000000  0.4651330000000 1.0
C      1  0.5692470000000  0.5827110000000  0.4985400000000 1.0
C      1  0.4335600000000  0.5645210000000  0.5620650000000 1.0
C      1  0.5624970000000  0.5234580000000  0.5770470000000 1.0
C      1  0.4323260000000  0.4685740000000  0.5827000000000 1.0
C      1  0.5665510000000  0.4324830000000  0.5422100000000 1.0
C      1  0.4336060000000  0.4180000000000  0.5015880000000 1.0
END
