TITL C-1525613-7943-5654 -3.33698079791928e-05 3375 -8843.817857993 0 0 60 (C5) n - 1
REM
REM in /home/nfs/bkarasulu/CARBON/AIRSS/Generating-Clusters/ReaxFF-fromJPCA2015/Units_Real/Try2-Higher-symm/Only-C60
REM
REM
REM
REM
REM
REM ./C.cell (863b2abdce7293c0672fb3ba77bf323a)
REM AIRSS Version 0.9.1 bugfix July 2018 build 013d7b7c2542+ Fri, 06 Jul 2018 19:26:36 +0100
REM compiler GCC version 9.2.1 20190827 (Red Hat 9.2.1-1)
REM options -cpp -mtune=generic -march=x86-64 -g -O0 -fpre-include=/usr/include/finclude/math-vector-fortran.h
REM seed -348147126 -854830146 -1175838420 -982778196 -1448657160 -1812378743 -769428675 -55749563 -754755680 452296332 1756425582 1161229869 -536062080 975358666 -1023069379 974912689 847927360 -1634382176 -1600184736 -2060373490 -829901947 -447456161 -1029941127 1628934274 1370667520 -1793000774 1864976897 1693639768 28998781 1903693082 564209729 -1115582595 386649077
REM
CELL 1.54180   15.00000   15.00000   15.00000   90.00000   90.00000   90.00000
LATT -1
SFAC C  
C      1  0.5177100000000  0.4508800000000  0.7206020000000 1.0
C      1  0.2956680000000  0.4508800000000  0.5850130000000 1.0
C      1  0.3560060000000  0.4508800000000  0.3319390000000 1.0
C      1  0.6153390000000  0.4508800000000  0.3111200000000 1.0
C      1  0.7152770000000  0.4508800000000  0.5513270000000 1.0
C      1  0.5177100000000  0.5491200000000  0.7206020000000 1.0
C      1  0.2956680000000  0.5491200000000  0.5850130000000 1.0
C      1  0.3560060000000  0.5491200000000  0.3319390000000 1.0
C      1  0.6153390000000  0.5491200000000  0.3111200000000 1.0
C      1  0.7152770000000  0.5491200000000  0.5513270000000 1.0
C      1  0.5994940000000  0.7195530000000  0.5604010000000 1.0
C      1  0.4733010000000  0.7195530000000  0.6132890000000 1.0
C      1  0.3840050000000  0.7195530000000  0.5096160000000 1.0
C      1  0.4550100000000  0.7195530000000  0.3926540000000 1.0
C      1  0.5881900000000  0.7195530000000  0.4240400000000 1.0
C      1  0.5994940000000  0.2804470000000  0.5604010000000 1.0
C      1  0.4733010000000  0.2804470000000  0.6132890000000 1.0
C      1  0.3840050000000  0.2804470000000  0.5096160000000 1.0
C      1  0.4550100000000  0.2804470000000  0.3926540000000 1.0
C      1  0.5881900000000  0.2804470000000  0.4240400000000 1.0
C      1  0.5414460000000  0.3927090000000  0.2981030000000 1.0
C      1  0.7048230000000  0.3927090000000  0.4770280000000 1.0
C      1  0.5851410000000  0.3927090000000  0.6876990000000 1.0
C      1  0.3477970000000  0.3927090000000  0.6389760000000 1.0
C      1  0.3207930000000  0.3927090000000  0.3981930000000 1.0
C      1  0.5414470000000  0.6072910000000  0.2981030000000 1.0
C      1  0.7048230000000  0.6072910000000  0.4770280000000 1.0
C      1  0.5851410000000  0.6072910000000  0.6876990000000 1.0
C      1  0.3477970000000  0.6072910000000  0.6389760000000 1.0
C      1  0.3207930000000  0.6072910000000  0.3981930000000 1.0
C      1  0.4286590000000  0.4431280000000  0.6663270000000 1.0
C      1  0.3197680000000  0.4431280000000  0.4835480000000 1.0
C      1  0.4599520000000  0.4431280000000  0.3235050000000 1.0
C      1  0.6554810000000  0.4431280000000  0.4073720000000 1.0
C      1  0.6361400000000  0.4431280000000  0.6192470000000 1.0
C      1  0.4286590000000  0.5568720000000  0.6663270000000 1.0
C      1  0.3197680000000  0.5568720000000  0.4835480000000 1.0
C      1  0.4599520000000  0.5568720000000  0.3235050000000 1.0
C      1  0.6554810000000  0.5568720000000  0.4073720000000 1.0
C      1  0.6361400000000  0.5568720000000  0.6192470000000 1.0
C      1  0.5362050000000  0.3009870000000  0.3460270000000 1.0
C      1  0.6576250000000  0.3009870000000  0.4868530000000 1.0
C      1  0.5612120000000  0.3009870000000  0.6458480000000 1.0
C      1  0.3802060000000  0.3009870000000  0.6032860000000 1.0
C      1  0.3647510000000  0.3009870000000  0.4179860000000 1.0
C      1  0.5362060000000  0.6990130000000  0.3460270000000 1.0
C      1  0.6576250000000  0.6990130000000  0.4868530000000 1.0
C      1  0.5612120000000  0.6990130000000  0.6458480000000 1.0
C      1  0.3802060000000  0.6990130000000  0.6032860000000 1.0
C      1  0.3647510000000  0.6990130000000  0.4179860000000 1.0
C      1  0.4815510000000  0.5732970000000  0.4231750000000 1.0
C      1  0.5673630000000  0.5732970000000  0.4587140000000 1.0
C      1  0.5600820000000  0.5732970000000  0.5513080000000 1.0
C      1  0.4697690000000  0.5732970000000  0.5729960000000 1.0
C      1  0.4212350000000  0.5732970000000  0.4938060000000 1.0
C      1  0.4815510000000  0.4267030000000  0.4231750000000 1.0
C      1  0.5673630000000  0.4267030000000  0.4587140000000 1.0
C      1  0.5600820000000  0.4267030000000  0.5513080000000 1.0
C      1  0.4697690000000  0.4267030000000  0.5729960000000 1.0
C      1  0.4212350000000  0.4267030000000  0.4938060000000 1.0
END
