TITL C-1525613-7943-939 0.0857842528387477 3375 -8789.15853390934 0 0 60 (C1) n - 1
REM
REM in /home/nfs/bkarasulu/CARBON/AIRSS/Generating-Clusters/ReaxFF-fromJPCA2015/Units_Real/Try2-Higher-symm/Only-C60
REM
REM
REM
REM
REM
REM ./C.cell (863b2abdce7293c0672fb3ba77bf323a)
REM AIRSS Version 0.9.1 bugfix July 2018 build 013d7b7c2542+ Fri, 06 Jul 2018 19:26:36 +0100
REM compiler GCC version 9.2.1 20190827 (Red Hat 9.2.1-1)
REM options -cpp -mtune=generic -march=x86-64 -g -O0 -fpre-include=/usr/include/finclude/math-vector-fortran.h
REM seed -1525008432 -35132655 -856562340 215404530 -1825379307 99126622 59666334 1021826364 1364747190 -717831961 -1854753810 -240604656 65846129 -777184242 1900296435 1834195867 1087346124 -247087771 188193651 479769786 1328237946 -1257749231 -1501308292 1291493559 -1419231119 728874015 -481975248 -1117966073 -483189032 -1277611034 1662293759 314004430 171062794
REM
CELL 1.54180   15.00000   15.00000   15.00000   90.00000   90.00000   90.00000
LATT -1
SFAC C  
C      1  0.2130840000000  0.6210620000000  0.3587650000000 1.0
C      1  0.2954010000000  0.6078120000000  0.7316850000000 1.0
C      1  0.6496510000000  0.6234360000000  0.7832450000000 1.0
C      1  0.8000640000000  0.6081770000000  0.4328090000000 1.0
C      1  0.5464060000000  0.6225200000000  0.1834220000000 1.0
C      1  0.7865410000000  0.6218200000000  0.3580240000000 1.0
C      1  0.7043950000000  0.6078130000000  0.7306490000000 1.0
C      1  0.3505760000000  0.6234550000000  0.7838250000000 1.0
C      1  0.1985630000000  0.6084410000000  0.4335840000000 1.0
C      1  0.4707660000000  0.6103100000000  0.1941400000000 1.0
C      1  0.5478010000000  0.5802480000000  0.6493060000000 1.0
C      1  0.6550450000000  0.5701550000000  0.4997940000000 1.0
C      1  0.5482070000000  0.5780080000000  0.3517470000000 1.0
C      1  0.3722860000000  0.5763530000000  0.4088250000000 1.0
C      1  0.3744540000000  0.5689870000000  0.5932730000000 1.0
C      1  0.4523740000000  0.5802910000000  0.6497580000000 1.0
C      1  0.3437780000000  0.5705280000000  0.5007110000000 1.0
C      1  0.4508230000000  0.5720990000000  0.3533460000000 1.0
C      1  0.6255190000000  0.5781030000000  0.4075530000000 1.0
C      1  0.6250000000000  0.5690510000000  0.5919700000000 1.0
C      1  0.6275920000000  0.3734590000000  0.4075600000000 1.0
C      1  0.4513770000000  0.3719250000000  0.3490600000000 1.0
C      1  0.3421100000000  0.3708730000000  0.4994120000000 1.0
C      1  0.4504720000000  0.3750610000000  0.6497440000000 1.0
C      1  0.6274030000000  0.3690190000000  0.5933270000000 1.0
C      1  0.3718330000000  0.3717470000000  0.4078540000000 1.0
C      1  0.5478010000000  0.3729020000000  0.3491160000000 1.0
C      1  0.6575640000000  0.3702230000000  0.4989640000000 1.0
C      1  0.5493800000000  0.3751230000000  0.6495500000000 1.0
C      1  0.3723040000000  0.3692980000000  0.5936240000000 1.0
C      1  0.3671140000000  0.4818210000000  0.2363230000000 1.0
C      1  0.2081600000000  0.4791630000000  0.5440630000000 1.0
C      1  0.4515390000000  0.4856830000000  0.7906500000000 1.0
C      1  0.7616310000000  0.4776360000000  0.6366000000000 1.0
C      1  0.7095230000000  0.4839210000000  0.2933810000000 1.0
C      1  0.6312480000000  0.4835120000000  0.2361440000000 1.0
C      1  0.7915340000000  0.4783670000000  0.5433980000000 1.0
C      1  0.5484810000000  0.4858250000000  0.7904620000000 1.0
C      1  0.2376740000000  0.4777710000000  0.6373580000000 1.0
C      1  0.2888030000000  0.4812470000000  0.2942200000000 1.0
C      1  0.2927490000000  0.5680290000000  0.3449870000000 1.0
C      1  0.2931680000000  0.5582170000000  0.6504340000000 1.0
C      1  0.5750140000000  0.5728880000000  0.7479810000000 1.0
C      1  0.7544680000000  0.5596510000000  0.5012690000000 1.0
C      1  0.5835470000000  0.5695360000000  0.2560530000000 1.0
C      1  0.7057550000000  0.5703940000000  0.3439580000000 1.0
C      1  0.7062590000000  0.5581460000000  0.6493670000000 1.0
C      1  0.4249760000000  0.5728900000000  0.7485640000000 1.0
C      1  0.2440490000000  0.5609210000000  0.5024650000000 1.0
C      1  0.4191650000000  0.5626350000000  0.2586550000000 1.0
C      1  0.6857210000000  0.3937540000000  0.3281610000000 1.0
C      1  0.3927410000000  0.3910570000000  0.2699520000000 1.0
C      1  0.2480330000000  0.3887410000000  0.5299420000000 1.0
C      1  0.4504570000000  0.3958140000000  0.7479930000000 1.0
C      1  0.7214200000000  0.3873680000000  0.6235160000000 1.0
C      1  0.3129840000000  0.3914690000000  0.3286320000000 1.0
C      1  0.6057190000000  0.3934550000000  0.2696260000000 1.0
C      1  0.7515380000000  0.3882200000000  0.5293590000000 1.0
C      1  0.5496850000000  0.3958990000000  0.7478760000000 1.0
C      1  0.2782780000000  0.3876680000000  0.6239680000000 1.0
END
