TITL C-1525613-7943-4974 -0.140621838882886 3375 -9008.91134964846 0 0 60 (Cs) n - 1
REM
REM in /home/nfs/bkarasulu/CARBON/AIRSS/Generating-Clusters/ReaxFF-fromJPCA2015/Units_Real/Try2-Higher-symm/Only-C60
REM
REM
REM
REM
REM
REM ./C.cell (863b2abdce7293c0672fb3ba77bf323a)
REM AIRSS Version 0.9.1 bugfix July 2018 build 013d7b7c2542+ Fri, 06 Jul 2018 19:26:36 +0100
REM compiler GCC version 9.2.1 20190827 (Red Hat 9.2.1-1)
REM options -cpp -mtune=generic -march=x86-64 -g -O0 -fpre-include=/usr/include/finclude/math-vector-fortran.h
REM seed 902753045 1873431245 -1389361899 -1744902415 1559266547 779975867 1332138708 607907990 -1171802864 -787142536 1683158566 -753593500 81099462 -441957232 115898681 1048495895 -919079155 506272961 1223719856 1914468703 1472906620 -1223892598 -382327312 -299328340 -858276774 -731667165 1188056850 -898859555 1418876310 -238855581 1857723063 1075155277 -1997232552
REM
CELL 1.54180   15.00000   15.00000   15.00000   90.00000   90.00000   90.00000
LATT -1
SFAC C  
C      1  0.5481990000000  0.7235830000000  0.4899390000000 1.0
C      1  0.5478830000000  0.5544840000000  0.2904460000000 1.0
C      1  0.5499710000000  0.3141720000000  0.3707970000000 1.0
C      1  0.5481950000000  0.3275970000000  0.6388780000000 1.0
C      1  0.5482120000000  0.5794680000000  0.7086260000000 1.0
C      1  0.4517760000000  0.7235740000000  0.4899350000000 1.0
C      1  0.4521270000000  0.5544830000000  0.2904370000000 1.0
C      1  0.4500310000000  0.3141700000000  0.3707970000000 1.0
C      1  0.4518050000000  0.3275950000000  0.6388770000000 1.0
C      1  0.4517910000000  0.5794700000000  0.7086300000000 1.0
C      1  0.5486840000000  0.3865150000000  0.3036290000000 1.0
C      1  0.5554380000000  0.3259900000000  0.5380240000000 1.0
C      1  0.5552440000000  0.4837680000000  0.6777170000000 1.0
C      1  0.5551620000000  0.6653850000000  0.5718030000000 1.0
C      1  0.5560840000000  0.6213200000000  0.3657310000000 1.0
C      1  0.4513160000000  0.3865200000000  0.3036250000000 1.0
C      1  0.4445590000000  0.3259830000000  0.5380230000000 1.0
C      1  0.4447570000000  0.4837690000000  0.6777220000000 1.0
C      1  0.4448350000000  0.6653860000000  0.5718030000000 1.0
C      1  0.4439250000000  0.6213080000000  0.3657240000000 1.0
C      1  0.7457610000000  0.5818080000000  0.4725150000000 1.0
C      1  0.7427630000000  0.4955590000000  0.4178000000000 1.0
C      1  0.7476560000000  0.4175190000000  0.4814540000000 1.0
C      1  0.7473240000000  0.4540410000000  0.5758530000000 1.0
C      1  0.7469540000000  0.5552930000000  0.5699780000000 1.0
C      1  0.2542280000000  0.5818100000000  0.4725240000000 1.0
C      1  0.2572400000000  0.4955710000000  0.4177890000000 1.0
C      1  0.2523540000000  0.4175240000000  0.4814600000000 1.0
C      1  0.2526770000000  0.4540490000000  0.5758530000000 1.0
C      1  0.2530400000000  0.5552980000000  0.5699870000000 1.0
C      1  0.6856550000000  0.4169630000000  0.6339050000000 1.0
C      1  0.6850380000000  0.5998600000000  0.6220000000000 1.0
C      1  0.6858260000000  0.6465520000000  0.4460180000000 1.0
C      1  0.6774840000000  0.4840040000000  0.3540500000000 1.0
C      1  0.6838520000000  0.3543230000000  0.4614530000000 1.0
C      1  0.3143440000000  0.4169620000000  0.6339040000000 1.0
C      1  0.3149580000000  0.5998570000000  0.6220090000000 1.0
C      1  0.3141660000000  0.6465450000000  0.4460320000000 1.0
C      1  0.3225260000000  0.4840240000000  0.3540530000000 1.0
C      1  0.3161630000000  0.3543410000000  0.4614480000000 1.0
C      1  0.3960850000000  0.4729800000000  0.2972240000000 1.0
C      1  0.3901070000000  0.3027760000000  0.4497580000000 1.0
C      1  0.3909810000000  0.3927500000000  0.6799030000000 1.0
C      1  0.3907650000000  0.6377840000000  0.6587870000000 1.0
C      1  0.3894850000000  0.6940230000000  0.4201890000000 1.0
C      1  0.6039190000000  0.4729820000000  0.2972320000000 1.0
C      1  0.6098940000000  0.3027780000000  0.4497610000000 1.0
C      1  0.6090200000000  0.3927530000000  0.6799000000000 1.0
C      1  0.6092350000000  0.6377860000000  0.6587810000000 1.0
C      1  0.6105110000000  0.6940400000000  0.4201950000000 1.0
C      1  0.5760480000000  0.4947200000000  0.5787780000000 1.0
C      1  0.5760200000000  0.5750120000000  0.5302880000000 1.0
C      1  0.5749070000000  0.5557850000000  0.4389220000000 1.0
C      1  0.5490350000000  0.4632170000000  0.4364480000000 1.0
C      1  0.5760360000000  0.4227190000000  0.5190720000000 1.0
C      1  0.4239500000000  0.4947210000000  0.5787830000000 1.0
C      1  0.4239820000000  0.5750160000000  0.5302910000000 1.0
C      1  0.4251020000000  0.5557860000000  0.4389260000000 1.0
C      1  0.4509680000000  0.4632130000000  0.4364430000000 1.0
C      1  0.4239500000000  0.4227170000000  0.5190700000000 1.0
END
