TITL C-1525613-7943-3931 0.121781578196418 3375 -8957.69038198492 0 0 60 (C2) n - 1
REM
REM in /home/nfs/bkarasulu/CARBON/AIRSS/Generating-Clusters/ReaxFF-fromJPCA2015/Units_Real/Try2-Higher-symm/Only-C60
REM
REM
REM
REM
REM
REM ./C.cell (863b2abdce7293c0672fb3ba77bf323a)
REM AIRSS Version 0.9.1 bugfix July 2018 build 013d7b7c2542+ Fri, 06 Jul 2018 19:26:36 +0100
REM compiler GCC version 9.2.1 20190827 (Red Hat 9.2.1-1)
REM options -cpp -mtune=generic -march=x86-64 -g -O0 -fpre-include=/usr/include/finclude/math-vector-fortran.h
REM seed -1601307505 1558721072 676466284 1612847241 1265927864 1669586150 39293318 -149040186 -672465647 1919099154 1812883292 354601302 1825273113 1749437071 532632825 807472279 1335240685 -80850779 491268579 -1548323627 321849201 142694164 1326816183 -1239281599 1861603954 1466356426 -617847713 -542859227 1036388991 636244432 536527852 735209555 613146378
REM
CELL 1.54180   15.00000   15.00000   15.00000   90.00000   90.00000   90.00000
LATT -1
SFAC C  
C      1  0.2839800000000  0.6243800000000  0.3908770000000 1.0
C      1  0.3779330000000  0.6425870000000  0.2846600000000 1.0
C      1  0.5167930000000  0.6189920000000  0.2742530000000 1.0
C      1  0.6641700000000  0.6280900000000  0.3292860000000 1.0
C      1  0.7403450000000  0.6292840000000  0.4538900000000 1.0
C      1  0.7163270000000  0.6247080000000  0.6093180000000 1.0
C      1  0.6223040000000  0.6424280000000  0.7153570000000 1.0
C      1  0.4836240000000  0.6190100000000  0.7258630000000 1.0
C      1  0.3360000000000  0.6278320000000  0.6710940000000 1.0
C      1  0.2598250000000  0.6290630000000  0.5464790000000 1.0
C      1  0.2691800000000  0.4024520000000  0.4680490000000 1.0
C      1  0.3262590000000  0.3846060000000  0.3297530000000 1.0
C      1  0.4503480000000  0.3787400000000  0.2639660000000 1.0
C      1  0.5935420000000  0.4046330000000  0.2962410000000 1.0
C      1  0.7084530000000  0.3870960000000  0.3873690000000 1.0
C      1  0.7308390000000  0.4022440000000  0.5317580000000 1.0
C      1  0.6736000000000  0.3852360000000  0.6687320000000 1.0
C      1  0.5481390000000  0.3791270000000  0.7351370000000 1.0
C      1  0.4063430000000  0.4046450000000  0.7036940000000 1.0
C      1  0.2913750000000  0.3870210000000  0.6126320000000 1.0
C      1  0.3725940000000  0.4353480000000  0.2623670000000 1.0
C      1  0.5189540000000  0.4477380000000  0.2511790000000 1.0
C      1  0.6792230000000  0.4447700000000  0.3152590000000 1.0
C      1  0.7574820000000  0.4437430000000  0.4490040000000 1.0
C      1  0.7273440000000  0.4488290000000  0.6172730000000 1.0
C      1  0.6265480000000  0.4340380000000  0.7363600000000 1.0
C      1  0.4807200000000  0.4480660000000  0.7492540000000 1.0
C      1  0.3205370000000  0.4445670000000  0.6849940000000 1.0
C      1  0.2425420000000  0.4437320000000  0.5510400000000 1.0
C      1  0.2731120000000  0.4485570000000  0.3825520000000 1.0
C      1  0.3008240000000  0.5356210000000  0.6589750000000 1.0
C      1  0.2540260000000  0.5356370000000  0.5799650000000 1.0
C      1  0.3108650000000  0.5339340000000  0.3664020000000 1.0
C      1  0.3754560000000  0.5384130000000  0.2894490000000 1.0
C      1  0.4766350000000  0.5288060000000  0.2790690000000 1.0
C      1  0.6989180000000  0.5357550000000  0.3415240000000 1.0
C      1  0.7457990000000  0.5358240000000  0.4204850000000 1.0
C      1  0.6890900000000  0.5343480000000  0.6333740000000 1.0
C      1  0.6246330000000  0.5383100000000  0.7101580000000 1.0
C      1  0.5238300000000  0.5287870000000  0.7206090000000 1.0
C      1  0.4536950000000  0.6774780000000  0.2909480000000 1.0
C      1  0.5833580000000  0.6532300000000  0.3177670000000 1.0
C      1  0.6845040000000  0.6706350000000  0.4017370000000 1.0
C      1  0.7143260000000  0.6593740000000  0.5299860000000 1.0
C      1  0.6626430000000  0.6799320000000  0.6521680000000 1.0
C      1  0.5465020000000  0.6775260000000  0.7091440000000 1.0
C      1  0.4168400000000  0.6530720000000  0.6825200000000 1.0
C      1  0.3156930000000  0.6702980000000  0.5985510000000 1.0
C      1  0.2860830000000  0.6588570000000  0.4702410000000 1.0
C      1  0.3376610000000  0.6796740000000  0.3481250000000 1.0
C      1  0.6172400000000  0.3287960000000  0.6099710000000 1.0
C      1  0.5308460000000  0.3252730000000  0.6537090000000 1.0
C      1  0.4364820000000  0.3418570000000  0.6355930000000 1.0
C      1  0.3614080000000  0.3309030000000  0.5740140000000 1.0
C      1  0.3432750000000  0.3393240000000  0.4785760000000 1.0
C      1  0.3831310000000  0.3292540000000  0.3903160000000 1.0
C      1  0.4690870000000  0.3258880000000  0.3467930000000 1.0
C      1  0.5634900000000  0.3417250000000  0.3644670000000 1.0
C      1  0.6385430000000  0.3308470000000  0.4261360000000 1.0
C      1  0.6566820000000  0.3390600000000  0.5215380000000 1.0
END
