TITL C-1525613-7943-1008 0.454035728474614 3375 -8121.26939196816 0 0 60 (C5) n - 1
REM
REM in /home/nfs/bkarasulu/CARBON/AIRSS/Generating-Clusters/ReaxFF-fromJPCA2015/Units_Real/Try2-Higher-symm/Only-C60
REM
REM
REM
REM
REM
REM ./C.cell (863b2abdce7293c0672fb3ba77bf323a)
REM AIRSS Version 0.9.1 bugfix July 2018 build 013d7b7c2542+ Fri, 06 Jul 2018 19:26:36 +0100
REM compiler GCC version 9.2.1 20190827 (Red Hat 9.2.1-1)
REM options -cpp -mtune=generic -march=x86-64 -g -O0 -fpre-include=/usr/include/finclude/math-vector-fortran.h
REM seed -796638320 -1651156356 2112043496 687909383 -1383527875 93893918 -1611592765 -1958009600 1625293263 881027918 -1647934360 -1766777044 315805432 777079294 1402186537 1797070207 -1587303570 19928203 374768097 1086690884 1952790237 935923850 2144127948 -1353393907 1183972583 -1863200325 1563890970 1871761919 1505762418 895361793 -897985723 665092970 2116706844
REM
CELL 1.54180   15.00000   15.00000   15.00000   90.00000   90.00000   90.00000
LATT -1
SFAC C  
C      1  0.3191790000000  0.6042470000000  0.5813670000000 1.0
C      1  0.5228480000000  0.6036530000000  0.6961720000000 1.0
C      1  0.6943250000000  0.6047640000000  0.5397410000000 1.0
C      1  0.5969040000000  0.6043920000000  0.3279440000000 1.0
C      1  0.3655730000000  0.6051740000000  0.3548910000000 1.0
C      1  0.3173720000000  0.3946340000000  0.5803810000000 1.0
C      1  0.5200780000000  0.3959790000000  0.6963080000000 1.0
C      1  0.6950380000000  0.3971190000000  0.5404110000000 1.0
C      1  0.5968490000000  0.3944810000000  0.3265570000000 1.0
C      1  0.3657150000000  0.3956320000000  0.3529510000000 1.0
C      1  0.4483440000000  0.7303530000000  0.4343120000000 1.0
C      1  0.4217890000000  0.7302950000000  0.5300190000000 1.0
C      1  0.5047240000000  0.7296930000000  0.5846820000000 1.0
C      1  0.5820870000000  0.7294200000000  0.5227510000000 1.0
C      1  0.5472880000000  0.7297550000000  0.4297400000000 1.0
C      1  0.4479990000000  0.2693350000000  0.4364940000000 1.0
C      1  0.4228680000000  0.2710420000000  0.5323880000000 1.0
C      1  0.5064910000000  0.2733230000000  0.5857610000000 1.0
C      1  0.5836010000000  0.2724050000000  0.5231750000000 1.0
C      1  0.5471890000000  0.2697320000000  0.4309580000000 1.0
C      1  0.4604390000000  0.4498110000000  0.7505510000000 1.0
C      1  0.7274490000000  0.4505970000000  0.6151780000000 1.0
C      1  0.6781590000000  0.4477020000000  0.3184520000000 1.0
C      1  0.3819930000000  0.4501750000000  0.2743380000000 1.0
C      1  0.2469020000000  0.4492080000000  0.5405750000000 1.0
C      1  0.4607180000000  0.5523700000000  0.7513160000000 1.0
C      1  0.7277600000000  0.5524930000000  0.6147410000000 1.0
C      1  0.6781150000000  0.5516410000000  0.3195080000000 1.0
C      1  0.3822500000000  0.5530560000000  0.2739190000000 1.0
C      1  0.2478260000000  0.5511120000000  0.5409900000000 1.0
C      1  0.6858480000000  0.4533540000000  0.4138680000000 1.0
C      1  0.4736680000000  0.4514250000000  0.3000450000000 1.0
C      1  0.3020230000000  0.4525690000000  0.4622130000000 1.0
C      1  0.4019450000000  0.4521590000000  0.6750200000000 1.0
C      1  0.6379100000000  0.4502090000000  0.6474710000000 1.0
C      1  0.6853690000000  0.5449020000000  0.4142530000000 1.0
C      1  0.4747730000000  0.5437380000000  0.2969930000000 1.0
C      1  0.3034690000000  0.5463510000000  0.4633440000000 1.0
C      1  0.4002780000000  0.5447970000000  0.6776040000000 1.0
C      1  0.6388090000000  0.5426080000000  0.6490740000000 1.0
C      1  0.5936740000000  0.4481980000000  0.7319560000000 1.0
C      1  0.7518880000000  0.4491610000000  0.4815980000000 1.0
C      1  0.5588400000000  0.4487280000000  0.2559220000000 1.0
C      1  0.2858560000000  0.4492860000000  0.3677060000000 1.0
C      1  0.3066940000000  0.4476390000000  0.6612380000000 1.0
C      1  0.5948370000000  0.5502730000000  0.7340090000000 1.0
C      1  0.7526370000000  0.5522070000000  0.4821690000000 1.0
C      1  0.5599640000000  0.5514750000000  0.2548280000000 1.0
C      1  0.2863100000000  0.5514680000000  0.3689670000000 1.0
C      1  0.3071750000000  0.5500330000000  0.6620310000000 1.0
C      1  0.4082780000000  0.3678250000000  0.5396370000000 1.0
C      1  0.5108660000000  0.3705520000000  0.5970890000000 1.0
C      1  0.5986730000000  0.3693200000000  0.5195630000000 1.0
C      1  0.5496430000000  0.3659790000000  0.4112630000000 1.0
C      1  0.4315090000000  0.3655550000000  0.4256530000000 1.0
C      1  0.4079810000000  0.6337720000000  0.5417350000000 1.0
C      1  0.5114530000000  0.6328680000000  0.6009290000000 1.0
C      1  0.6001780000000  0.6327850000000  0.5203460000000 1.0
C      1  0.5504370000000  0.6331840000000  0.4115340000000 1.0
C      1  0.4311450000000  0.6339860000000  0.4253730000000 1.0
END
