TITL C-1525613-7943-3566 0.241086774454188 3375 -8785.42596084202 0 0 60 (Ci) n - 1
REM
REM in /home/nfs/bkarasulu/CARBON/AIRSS/Generating-Clusters/ReaxFF-fromJPCA2015/Units_Real/Try2-Higher-symm/Only-C60
REM
REM
REM
REM
REM
REM ./C.cell (863b2abdce7293c0672fb3ba77bf323a)
REM AIRSS Version 0.9.1 bugfix July 2018 build 013d7b7c2542+ Fri, 06 Jul 2018 19:26:36 +0100
REM compiler GCC version 9.2.1 20190827 (Red Hat 9.2.1-1)
REM options -cpp -mtune=generic -march=x86-64 -g -O0 -fpre-include=/usr/include/finclude/math-vector-fortran.h
REM seed 1390297427 -1786589317 1535381402 1863922540 -584044089 -1136153819 115285198 -504408629 -1260739955 1834305932 -747241330 -1389723694 126214019 -981538835 -393651530 2046660234 998587984 1042327031 527549210 -208991877 1529027476 958940559 -1795408024 527050577 1459261153 -1138993259 289812829 -1487621142 -1832776669 833631624 -1193367703 814771947 815608955
REM
CELL 1.54180   15.00000   15.00000   15.00000   90.00000   90.00000   90.00000
LATT -1
SFAC C  
C      1  0.7241400000000  0.5390640000000  0.6387890000000 1.0
C      1  0.6655740000000  0.6596100000000  0.3553110000000 1.0
C      1  0.5235030000000  0.7276350000000  0.6470980000000 1.0
C      1  0.4013730000000  0.7065700000000  0.3585180000000 1.0
C      1  0.2879180000000  0.5896840000000  0.6467130000000 1.0
C      1  0.2759210000000  0.4609890000000  0.3611880000000 1.0
C      1  0.3344270000000  0.3404110000000  0.6446970000000 1.0
C      1  0.4764650000000  0.2723670000000  0.3529110000000 1.0
C      1  0.5985380000000  0.2933520000000  0.6414850000000 1.0
C      1  0.7120800000000  0.4103040000000  0.3532910000000 1.0
C      1  0.7390200000000  0.6171830000000  0.6122660000000 1.0
C      1  0.6209810000000  0.7249270000000  0.3835540000000 1.0
C      1  0.4591200000000  0.7624590000000  0.6228440000000 1.0
C      1  0.3245740000000  0.6827510000000  0.3844250000000 1.0
C      1  0.2346290000000  0.5395310000000  0.6224180000000 1.0
C      1  0.2609980000000  0.3828650000000  0.3877530000000 1.0
C      1  0.3790130000000  0.2750380000000  0.6164430000000 1.0
C      1  0.5408990000000  0.2375380000000  0.3771760000000 1.0
C      1  0.6754350000000  0.3172570000000  0.6156250000000 1.0
C      1  0.7653920000000  0.4604500000000  0.3775870000000 1.0
C      1  0.6025460000000  0.6039040000000  0.5151540000000 1.0
C      1  0.5204150000000  0.6460880000000  0.4812240000000 1.0
C      1  0.4313560000000  0.6307780000000  0.5189310000000 1.0
C      1  0.3661940000000  0.5645270000000  0.4856000000000 1.0
C      1  0.3541630000000  0.4750190000000  0.5235670000000 1.0
C      1  0.3974240000000  0.3961000000000  0.4848690000000 1.0
C      1  0.4795580000000  0.3538790000000  0.5187610000000 1.0
C      1  0.5686870000000  0.3692490000000  0.4810680000000 1.0
C      1  0.6338210000000  0.4355330000000  0.5143760000000 1.0
C      1  0.6458020000000  0.5249900000000  0.4763820000000 1.0
C      1  0.3287640000000  0.5314640000000  0.3318310000000 1.0
C      1  0.3359500000000  0.4256830000000  0.6767640000000 1.0
C      1  0.4170800000000  0.3443640000000  0.3351040000000 1.0
C      1  0.5184050000000  0.3239880000000  0.6726660000000 1.0
C      1  0.6267140000000  0.3734420000000  0.3333920000000 1.0
C      1  0.6712260000000  0.4685480000000  0.6680660000000 1.0
C      1  0.6640380000000  0.5743020000000  0.3232040000000 1.0
C      1  0.5829080000000  0.6556370000000  0.6649290000000 1.0
C      1  0.4815830000000  0.6759840000000  0.3272770000000 1.0
C      1  0.3732950000000  0.6265540000000  0.6666640000000 1.0
C      1  0.5076420000000  0.4198400000000  0.6969160000000 1.0
C      1  0.5595520000000  0.4387160000000  0.3050390000000 1.0
C      1  0.5773820000000  0.4859400000000  0.6933690000000 1.0
C      1  0.5763490000000  0.5337450000000  0.3007900000000 1.0
C      1  0.5371170000000  0.5737830000000  0.6921900000000 1.0
C      1  0.4923990000000  0.5801510000000  0.3031000000000 1.0
C      1  0.4404530000000  0.5612730000000  0.6950010000000 1.0
C      1  0.4226280000000  0.5140580000000  0.3066140000000 1.0
C      1  0.4236140000000  0.4662570000000  0.6992190000000 1.0
C      1  0.4628960000000  0.4261860000000  0.3078180000000 1.0
C      1  0.4712590000000  0.2857360000000  0.5929320000000 1.0
C      1  0.5981170000000  0.3099270000000  0.4054960000000 1.0
C      1  0.6922990000000  0.4079550000000  0.5917000000000 1.0
C      1  0.7149180000000  0.5398290000000  0.4028340000000 1.0
C      1  0.6510630000000  0.6480960000000  0.5915930000000 1.0
C      1  0.5287610000000  0.7142990000000  0.4070730000000 1.0
C      1  0.4018640000000  0.6900490000000  0.5945340000000 1.0
C      1  0.3077160000000  0.5920770000000  0.4082220000000 1.0
C      1  0.2851050000000  0.4601820000000  0.5971900000000 1.0
C      1  0.3489380000000  0.3518820000000  0.4084470000000 1.0
END
