TITL C-1525613-7943-139 -0.000657958127455677 3375 -9505.77554902052 0 0 60 (C2) n - 1
REM
REM in /home/nfs/bkarasulu/CARBON/AIRSS/Generating-Clusters/ReaxFF-fromJPCA2015/Units_Real/Try2-Higher-symm/Only-C60
REM
REM
REM
REM
REM
REM ./C.cell (863b2abdce7293c0672fb3ba77bf323a)
REM AIRSS Version 0.9.1 bugfix July 2018 build 013d7b7c2542+ Fri, 06 Jul 2018 19:26:36 +0100
REM compiler GCC version 9.2.1 20190827 (Red Hat 9.2.1-1)
REM options -cpp -mtune=generic -march=x86-64 -g -O0 -fpre-include=/usr/include/finclude/math-vector-fortran.h
REM seed -294487851 -301068024 1681048593 1827570720 -1345524542 -1096610092 1176003246 218564996 1430829785 1293775892 383679592 -1033746002 1884656417 1806996325 -1605162947 -1416075335 -432735890 1752861396 1818737421 -428493211 -213828176 396118871 497683081 931762797 280182801 716465280 381446442 -964060966 -1564778221 -716457906 318591491 -1832816636 1091929684
REM
CELL 1.54180   15.00000   15.00000   15.00000   90.00000   90.00000   90.00000
LATT -1
SFAC C  
C      1  0.2680410000000  0.4468680000000  0.5981480000000 1.0
C      1  0.2789690000000  0.5955090000000  0.6064920000000 1.0
C      1  0.3852080000000  0.6978700000000  0.5798100000000 1.0
C      1  0.5257590000000  0.7392950000000  0.6009810000000 1.0
C      1  0.6659030000000  0.6845210000000  0.6246030000000 1.0
C      1  0.7318730000000  0.5531710000000  0.5983370000000 1.0
C      1  0.7209350000000  0.4045350000000  0.6067300000000 1.0
C      1  0.6147220000000  0.3021650000000  0.5799900000000 1.0
C      1  0.4741490000000  0.2607480000000  0.6010510000000 1.0
C      1  0.3339880000000  0.3155300000000  0.6245290000000 1.0
C      1  0.4523830000000  0.7550610000000  0.5391550000000 1.0
C      1  0.6177030000000  0.7508290000000  0.5727330000000 1.0
C      1  0.7322410000000  0.6445230000000  0.5658750000000 1.0
C      1  0.7667550000000  0.4731770000000  0.5557270000000 1.0
C      1  0.7015820000000  0.3304390000000  0.5471370000000 1.0
C      1  0.5475840000000  0.2449540000000  0.5393030000000 1.0
C      1  0.3822310000000  0.2491990000000  0.5727280000000 1.0
C      1  0.2677010000000  0.3555030000000  0.5657260000000 1.0
C      1  0.2331960000000  0.5268450000000  0.5554760000000 1.0
C      1  0.2983800000000  0.6695780000000  0.5468860000000 1.0
C      1  0.4731950000000  0.7543810000000  0.4434340000000 1.0
C      1  0.6379210000000  0.7335310000000  0.4784160000000 1.0
C      1  0.7110580000000  0.6701050000000  0.4735430000000 1.0
C      1  0.7580020000000  0.4500030000000  0.4609220000000 1.0
C      1  0.7209320000000  0.3604910000000  0.4559680000000 1.0
C      1  0.5268550000000  0.2455980000000  0.4435640000000 1.0
C      1  0.3621000000000  0.2664630000000  0.4783860000000 1.0
C      1  0.2889640000000  0.3298840000000  0.4734220000000 1.0
C      1  0.2420330000000  0.5499810000000  0.4606690000000 1.0
C      1  0.2791020000000  0.6394940000000  0.4557120000000 1.0
C      1  0.5165470000000  0.6567220000000  0.6531160000000 1.0
C      1  0.6057190000000  0.6190340000000  0.6660190000000 1.0
C      1  0.6513960000000  0.5342800000000  0.6510920000000 1.0
C      1  0.6433050000000  0.4374100000000  0.6568000000000 1.0
C      1  0.5760300000000  0.3687800000000  0.6404200000000 1.0
C      1  0.4833170000000  0.3433390000000  0.6531660000000 1.0
C      1  0.3941350000000  0.3810340000000  0.6659710000000 1.0
C      1  0.3484700000000  0.4657810000000  0.6509680000000 1.0
C      1  0.3565550000000  0.5626530000000  0.6566440000000 1.0
C      1  0.4238470000000  0.6312750000000  0.6402970000000 1.0
C      1  0.6558570000000  0.4988590000000  0.3319030000000 1.0
C      1  0.6188930000000  0.4091860000000  0.3283980000000 1.0
C      1  0.5382170000000  0.3510060000000  0.3206830000000 1.0
C      1  0.4461840000000  0.3493860000000  0.3540400000000 1.0
C      1  0.3674380000000  0.4045810000000  0.3388930000000 1.0
C      1  0.3442900000000  0.5010730000000  0.3317620000000 1.0
C      1  0.3812590000000  0.5907440000000  0.3282550000000 1.0
C      1  0.4619440000000  0.6489210000000  0.3205880000000 1.0
C      1  0.5539460000000  0.6505550000000  0.3540280000000 1.0
C      1  0.6327060000000  0.5953560000000  0.3389750000000 1.0
C      1  0.4379720000000  0.2757550000000  0.4180390000000 1.0
C      1  0.2876820000000  0.3899210000000  0.3964230000000 1.0
C      1  0.2654370000000  0.4860130000000  0.3903050000000 1.0
C      1  0.3351950000000  0.6623330000000  0.3788000000000 1.0
C      1  0.4156560000000  0.7195640000000  0.3723460000000 1.0
C      1  0.5621010000000  0.7242110000000  0.4180070000000 1.0
C      1  0.7124110000000  0.6100350000000  0.3965720000000 1.0
C      1  0.7346600000000  0.5139400000000  0.3905110000000 1.0
C      1  0.6649120000000  0.3376170000000  0.3790110000000 1.0
C      1  0.5844570000000  0.2803850000000  0.3725120000000 1.0
END
