TITL C-1525613-7943-7443 -0.00157590969993278 3375 -9645.98446282361 0 0 60 (D5h) n - 1
REM
REM in /home/nfs/bkarasulu/CARBON/AIRSS/Generating-Clusters/ReaxFF-fromJPCA2015/Units_Real/Try2-Higher-symm/Only-C60
REM
REM
REM
REM
REM
REM ./C.cell (863b2abdce7293c0672fb3ba77bf323a)
REM AIRSS Version 0.9.1 bugfix July 2018 build 013d7b7c2542+ Fri, 06 Jul 2018 19:26:36 +0100
REM compiler GCC version 9.2.1 20190827 (Red Hat 9.2.1-1)
REM options -cpp -mtune=generic -march=x86-64 -g -O0 -fpre-include=/usr/include/finclude/math-vector-fortran.h
REM seed 455845466 -2017190412 -603080937 126146430 -1090282665 -134742225 -439034547 -694656191 105446530 -1958475124 -204491904 780461696 -1915714697 -1258667431 -1619046863 1276345763 1708161096 -63264728 1536300762 -541822401 -292654846 312269663 1587678128 -1842335359 96457714 2078847823 -797606053 819865034 -1463058446 -571897243 1773747155 762774594 1233264439
REM
CELL 1.54180   15.00000   15.00000   15.00000   90.00000   90.00000   90.00000
LATT -1
SFAC C  
C      1  0.5911190000000  0.3174060000000  0.6136920000000 1.0
C      1  0.3524990000000  0.3562870000000  0.6153870000000 1.0
C      1  0.3189900000000  0.5943140000000  0.6133650000000 1.0
C      1  0.5350140000000  0.7020760000000  0.6150150000000 1.0
C      1  0.7042600000000  0.5296210000000  0.6152390000000 1.0
C      1  0.5913230000000  0.3150810000000  0.3846200000000 1.0
C      1  0.3545250000000  0.3570170000000  0.3862770000000 1.0
C      1  0.3174760000000  0.5959780000000  0.3844240000000 1.0
C      1  0.5331480000000  0.7018130000000  0.3862200000000 1.0
C      1  0.7019580000000  0.5299900000000  0.3865770000000 1.0
C      1  0.6563860000000  0.4601710000000  0.6598300000000 1.0
C      1  0.5106640000000  0.3415590000000  0.6589300000000 1.0
C      1  0.3501790000000  0.4406650000000  0.6598640000000 1.0
C      1  0.3986630000000  0.6218860000000  0.6582980000000 1.0
C      1  0.5853640000000  0.6345340000000  0.6595410000000 1.0
C      1  0.6538290000000  0.4610660000000  0.3413170000000 1.0
C      1  0.5104230000000  0.3390690000000  0.3400410000000 1.0
C      1  0.3525780000000  0.4409910000000  0.3410130000000 1.0
C      1  0.3968540000000  0.6243340000000  0.3397100000000 1.0
C      1  0.5842270000000  0.6344070000000  0.3418040000000 1.0
C      1  0.4490400000000  0.5627550000000  0.7107450000000 1.0
C      1  0.5429090000000  0.5688160000000  0.7110900000000 1.0
C      1  0.5792000000000  0.4799890000000  0.7128630000000 1.0
C      1  0.5053790000000  0.4186780000000  0.7121360000000 1.0
C      1  0.4242880000000  0.4701290000000  0.7127790000000 1.0
C      1  0.4478800000000  0.5628900000000  0.2869600000000 1.0
C      1  0.5436930000000  0.5681280000000  0.2890550000000 1.0
C      1  0.5785540000000  0.4806920000000  0.2890600000000 1.0
C      1  0.5053450000000  0.4186800000000  0.2871090000000 1.0
C      1  0.4242040000000  0.4698750000000  0.2877970000000 1.0
C      1  0.7320180000000  0.3898320000000  0.4531480000000 1.0
C      1  0.4691720000000  0.2468310000000  0.4523060000000 1.0
C      1  0.2479210000000  0.4527480000000  0.4530730000000 1.0
C      1  0.3756750000000  0.7233330000000  0.4518440000000 1.0
C      1  0.6736260000000  0.6865340000000  0.4525980000000 1.0
C      1  0.7314240000000  0.3922790000000  0.5477580000000 1.0
C      1  0.4670810000000  0.2456700000000  0.5468930000000 1.0
C      1  0.2496420000000  0.4511620000000  0.5476440000000 1.0
C      1  0.3770870000000  0.7253520000000  0.5464400000000 1.0
C      1  0.6763520000000  0.6867240000000  0.5468900000000 1.0
C      1  0.3003360000000  0.6645040000000  0.5483560000000 1.0
C      1  0.5954540000000  0.7413360000000  0.5495190000000 1.0
C      1  0.7589490000000  0.4836860000000  0.5497300000000 1.0
C      1  0.5649160000000  0.2496970000000  0.5486330000000 1.0
C      1  0.2812970000000  0.3610350000000  0.5496970000000 1.0
C      1  0.2999240000000  0.6652190000000  0.4500290000000 1.0
C      1  0.5943880000000  0.7410400000000  0.4510630000000 1.0
C      1  0.7584970000000  0.4841320000000  0.4514250000000 1.0
C      1  0.5646490000000  0.2489350000000  0.4503040000000 1.0
C      1  0.2820590000000  0.3609860000000  0.4513610000000 1.0
C      1  0.4340070000000  0.3070540000000  0.6136380000000 1.0
C      1  0.2951830000000  0.5021850000000  0.6122900000000 1.0
C      1  0.4401710000000  0.6948930000000  0.6128780000000 1.0
C      1  0.6675680000000  0.6175330000000  0.6136590000000 1.0
C      1  0.6645360000000  0.3779590000000  0.6123930000000 1.0
C      1  0.4347990000000  0.3059030000000  0.3875750000000 1.0
C      1  0.2960230000000  0.5032100000000  0.3863060000000 1.0
C      1  0.4381880000000  0.6959730000000  0.3870550000000 1.0
C      1  0.6657460000000  0.6180260000000  0.3882760000000 1.0
C      1  0.6633360000000  0.3773320000000  0.3864590000000 1.0
END
