TITL C-1525613-7943-1278 0.00122388363039418 3375 -9858.05356747675 0 0 60 (D5) n - 1
REM
REM in /home/nfs/bkarasulu/CARBON/AIRSS/Generating-Clusters/ReaxFF-fromJPCA2015/Units_Real/Try2-Higher-symm/Only-C60
REM
REM
REM
REM
REM
REM ./C.cell (863b2abdce7293c0672fb3ba77bf323a)
REM AIRSS Version 0.9.1 bugfix July 2018 build 013d7b7c2542+ Fri, 06 Jul 2018 19:26:36 +0100
REM compiler GCC version 9.2.1 20190827 (Red Hat 9.2.1-1)
REM options -cpp -mtune=generic -march=x86-64 -g -O0 -fpre-include=/usr/include/finclude/math-vector-fortran.h
REM seed 2078051651 1295190240 420206883 -1410415823 521225363 -1697869566 -1511789222 445223312 2114493536 451420159 617760507 1466411501 1660652296 -1140443846 -1363154312 -1560993279 -685046946 -2030503169 778428465 1161300373 1210674648 -1820800354 -87377590 -1070302926 -137134965 -284443025 -953150417 2108202109 1037783157 53479334 -194227606 -735296739 545179344
REM
CELL 1.54180   15.00000   15.00000   15.00000   90.00000   90.00000   90.00000
LATT -1
SFAC C  
C      1  0.7502950000000  0.5228040000000  0.4576040000000 1.0
C      1  0.5370230000000  0.5227870000000  0.2488540000000 1.0
C      1  0.2725890000000  0.5227970000000  0.3871810000000 1.0
C      1  0.3224290000000  0.5228200000000  0.6814140000000 1.0
C      1  0.6176620000000  0.5228200000000  0.7249400000000 1.0
C      1  0.7502910000000  0.4771970000000  0.5423950000000 1.0
C      1  0.5370230000000  0.4772100000000  0.7511420000000 1.0
C      1  0.2725940000000  0.4772030000000  0.6128200000000 1.0
C      1  0.3224300000000  0.4771810000000  0.3185890000000 1.0
C      1  0.6176610000000  0.4771780000000  0.2750640000000 1.0
C      1  0.3820740000000  0.3519800000000  0.6170690000000 1.0
C      1  0.5748860000000  0.3519820000000  0.6483380000000 1.0
C      1  0.6642140000000  0.3519720000000  0.4746260000000 1.0
C      1  0.5266010000000  0.3519600000000  0.3359920000000 1.0
C      1  0.3522270000000  0.3519640000000  0.4240240000000 1.0
C      1  0.3820670000000  0.6480230000000  0.3829290000000 1.0
C      1  0.5748850000000  0.6480220000000  0.3516520000000 1.0
C      1  0.6642150000000  0.6480330000000  0.5253760000000 1.0
C      1  0.5266040000000  0.6480430000000  0.6640100000000 1.0
C      1  0.3522290000000  0.6480370000000  0.5759760000000 1.0
C      1  0.5365660000000  0.3088370000000  0.5725740000000 1.0
C      1  0.5803090000000  0.3088320000000  0.4876590000000 1.0
C      1  0.5130660000000  0.3088240000000  0.4198160000000 1.0
C      1  0.4277690000000  0.3088310000000  0.4628070000000 1.0
C      1  0.4422930000000  0.3088350000000  0.5572150000000 1.0
C      1  0.5365660000000  0.6911640000000  0.4274270000000 1.0
C      1  0.5803120000000  0.6911720000000  0.5123400000000 1.0
C      1  0.5130680000000  0.6911760000000  0.5801810000000 1.0
C      1  0.4277680000000  0.6911720000000  0.5371890000000 1.0
C      1  0.4422970000000  0.6911620000000  0.4427830000000 1.0
C      1  0.4196500000000  0.3904520000000  0.6967900000000 1.0
C      1  0.6623190000000  0.3904480000000  0.6372350000000 1.0
C      1  0.6806690000000  0.3904320000000  0.3880380000000 1.0
C      1  0.4493410000000  0.3904220000000  0.2935780000000 1.0
C      1  0.2880230000000  0.3904390000000  0.4844000000000 1.0
C      1  0.4196490000000  0.6095430000000  0.3032110000000 1.0
C      1  0.6623170000000  0.6095470000000  0.3627710000000 1.0
C      1  0.6806670000000  0.6095660000000  0.6119620000000 1.0
C      1  0.4493420000000  0.6095750000000  0.7064160000000 1.0
C      1  0.2880240000000  0.6095600000000  0.5156030000000 1.0
C      1  0.6114540000000  0.6073250000000  0.6787740000000 1.0
C      1  0.7044730000000  0.6073100000000  0.4492410000000 1.0
C      1  0.5149140000000  0.6073000000000  0.2898360000000 1.0
C      1  0.3047440000000  0.6073070000000  0.4208690000000 1.0
C      1  0.3644110000000  0.6073270000000  0.6612400000000 1.0
C      1  0.6114530000000  0.3926740000000  0.3212290000000 1.0
C      1  0.7044700000000  0.3926920000000  0.5507620000000 1.0
C      1  0.5149150000000  0.3927000000000  0.7101530000000 1.0
C      1  0.3047500000000  0.3926920000000  0.5791330000000 1.0
C      1  0.3644140000000  0.3926750000000  0.3387610000000 1.0
C      1  0.7285470000000  0.5274460000000  0.6198490000000 1.0
C      1  0.6846060000000  0.5274270000000  0.3196780000000 1.0
C      1  0.3855460000000  0.5274230000000  0.2687030000000 1.0
C      1  0.2446570000000  0.5274410000000  0.5373720000000 1.0
C      1  0.4566410000000  0.5274580000000  0.7543930000000 1.0
C      1  0.7285480000000  0.4725530000000  0.3801510000000 1.0
C      1  0.6846110000000  0.4725730000000  0.6803300000000 1.0
C      1  0.3855480000000  0.4725780000000  0.7313010000000 1.0
C      1  0.2446530000000  0.4725560000000  0.4626280000000 1.0
C      1  0.4566370000000  0.4725440000000  0.2456040000000 1.0
END
