TITL C-1525613-7943-2181 -0.000288850929049828 3375 -9533.06222690331 0 0 60 (D5d) n - 1
REM
REM in /home/nfs/bkarasulu/CARBON/AIRSS/Generating-Clusters/ReaxFF-fromJPCA2015/Units_Real/Try2-Higher-symm/Only-C60
REM
REM
REM
REM
REM
REM ./C.cell (863b2abdce7293c0672fb3ba77bf323a)
REM AIRSS Version 0.9.1 bugfix July 2018 build 013d7b7c2542+ Fri, 06 Jul 2018 19:26:36 +0100
REM compiler GCC version 9.2.1 20190827 (Red Hat 9.2.1-1)
REM options -cpp -mtune=generic -march=x86-64 -g -O0 -fpre-include=/usr/include/finclude/math-vector-fortran.h
REM seed 1886522206 1230301729 859510190 -1419720132 2091099670 423582328 -1880721654 210018489 -699307202 -979239814 916013781 1924998403 1167834185 1798314946 -473052109 1575928241 1430420743 -1233691812 801103207 1702610438 1561452237 2097931376 -1022522726 2088768615 1214908031 510652831 1525887728 1545911854 2118922550 -109621708 -1889900365 2000179346 -1794376641
REM
CELL 1.54180   15.00000   15.00000   15.00000   90.00000   90.00000   90.00000
LATT -1
SFAC C  
C      1  0.5464090000000  0.7189620000000  0.3784050000000 1.0
C      1  0.7225690000000  0.5235260000000  0.3783740000000 1.0
C      1  0.5911350000000  0.2955960000000  0.3783660000000 1.0
C      1  0.3337430000000  0.3501600000000  0.3783870000000 1.0
C      1  0.3061040000000  0.6118130000000  0.3784120000000 1.0
C      1  0.4536030000000  0.7189660000000  0.3784120000000 1.0
C      1  0.2774180000000  0.5235540000000  0.3784040000000 1.0
C      1  0.4088200000000  0.2956050000000  0.3783780000000 1.0
C      1  0.6662190000000  0.3501400000000  0.3783640000000 1.0
C      1  0.6938950000000  0.6117890000000  0.3783870000000 1.0
C      1  0.7028110000000  0.6163180000000  0.5409250000000 1.0
C      1  0.6733140000000  0.3430620000000  0.5409010000000 1.0
C      1  0.4043050000000  0.2866870000000  0.5409170000000 1.0
C      1  0.2675480000000  0.5250910000000  0.5409470000000 1.0
C      1  0.4520410000000  0.7288150000000  0.5409540000000 1.0
C      1  0.2972100000000  0.6163470000000  0.5409540000000 1.0
C      1  0.3266750000000  0.3430880000000  0.5409270000000 1.0
C      1  0.5956750000000  0.2866730000000  0.5409040000000 1.0
C      1  0.7324640000000  0.5250580000000  0.5409150000000 1.0
C      1  0.5479950000000  0.7288070000000  0.5409480000000 1.0
C      1  0.5481790000000  0.3495020000000  0.3100640000000 1.0
C      1  0.3717300000000  0.4076680000000  0.3100780000000 1.0
C      1  0.3725290000000  0.5934600000000  0.3100960000000 1.0
C      1  0.5494680000000  0.6501200000000  0.3100840000000 1.0
C      1  0.6580270000000  0.4993430000000  0.3100670000000 1.0
C      1  0.4517720000000  0.3495050000000  0.3100680000000 1.0
C      1  0.6282290000000  0.4076550000000  0.3100620000000 1.0
C      1  0.6274580000000  0.5934460000000  0.3100790000000 1.0
C      1  0.4505250000000  0.6501240000000  0.3100920000000 1.0
C      1  0.3419460000000  0.4993600000000  0.3100870000000 1.0
C      1  0.6939110000000  0.3881850000000  0.6215860000000 1.0
C      1  0.4535930000000  0.2810570000000  0.6215940000000 1.0
C      1  0.2774170000000  0.4764740000000  0.6216250000000 1.0
C      1  0.4088650000000  0.7043970000000  0.6216360000000 1.0
C      1  0.6662570000000  0.6498350000000  0.6216150000000 1.0
C      1  0.3060960000000  0.3882130000000  0.6216140000000 1.0
C      1  0.5463980000000  0.2810480000000  0.6215880000000 1.0
C      1  0.7225980000000  0.4764430000000  0.6215920000000 1.0
C      1  0.5911730000000  0.7043810000000  0.6216220000000 1.0
C      1  0.3337740000000  0.6498620000000  0.6216390000000 1.0
C      1  0.5494770000000  0.3498970000000  0.6899010000000 1.0
C      1  0.3725310000000  0.4065640000000  0.6899220000000 1.0
C      1  0.3717540000000  0.5923480000000  0.6899470000000 1.0
C      1  0.5482220000000  0.6504740000000  0.6899270000000 1.0
C      1  0.6580760000000  0.5006390000000  0.6899150000000 1.0
C      1  0.4505340000000  0.3499080000000  0.6899050000000 1.0
C      1  0.6274890000000  0.4065420000000  0.6899050000000 1.0
C      1  0.6282760000000  0.5923250000000  0.6899260000000 1.0
C      1  0.4518160000000  0.6504860000000  0.6899370000000 1.0
C      1  0.3419490000000  0.5006630000000  0.6899390000000 1.0
C      1  0.6733210000000  0.6569080000000  0.4590730000000 1.0
C      1  0.7027940000000  0.3836480000000  0.4590430000000 1.0
C      1  0.4520050000000  0.2711870000000  0.4590560000000 1.0
C      1  0.2675420000000  0.4749370000000  0.4590830000000 1.0
C      1  0.4043280000000  0.7133280000000  0.4590960000000 1.0
C      1  0.3266950000000  0.6569320000000  0.4590970000000 1.0
C      1  0.2971880000000  0.3836760000000  0.4590720000000 1.0
C      1  0.5479600000000  0.2711810000000  0.4590490000000 1.0
C      1  0.7324530000000  0.4749060000000  0.4590510000000 1.0
C      1  0.5956960000000  0.7133140000000  0.4590850000000 1.0
END
