TITL C-1525613-7943-2989 0.206516375941562 3375 -8709.65056875192 0 0 60 (C1) n - 1
REM
REM in /home/nfs/bkarasulu/CARBON/AIRSS/Generating-Clusters/ReaxFF-fromJPCA2015/Units_Real/Try2-Higher-symm/Only-C60
REM
REM
REM
REM
REM
REM ./C.cell (863b2abdce7293c0672fb3ba77bf323a)
REM AIRSS Version 0.9.1 bugfix July 2018 build 013d7b7c2542+ Fri, 06 Jul 2018 19:26:36 +0100
REM compiler GCC version 9.2.1 20190827 (Red Hat 9.2.1-1)
REM options -cpp -mtune=generic -march=x86-64 -g -O0 -fpre-include=/usr/include/finclude/math-vector-fortran.h
REM seed -1259467391 -1067558930 -354476497 -1577242373 1024375100 878301800 1859880213 186926745 -1346865251 -2069479043 -1571692061 -347323530 1550320491 -1234898956 320116070 646716787 -1603351741 -2031538996 1931805517 1695154092 1851322042 -1866290544 -637430937 -1544163723 914711935 408825205 -1479936766 246722129 -573013230 1141389699 1840171537 -1369864982 1247275097
REM
CELL 1.54180   15.00000   15.00000   15.00000   90.00000   90.00000   90.00000
LATT -1
SFAC C  
C      1  0.4055620000000  0.3646380000000  0.3646080000000 1.0
C      1  0.3408370000000  0.3550830000000  0.4385160000000 1.0
C      1  0.3569530000000  0.3578140000000  0.5350150000000 1.0
C      1  0.4052780000000  0.3456560000000  0.6212520000000 1.0
C      1  0.4909050000000  0.3809110000000  0.6466740000000 1.0
C      1  0.5854510000000  0.3726310000000  0.6344520000000 1.0
C      1  0.6520240000000  0.3585520000000  0.5611940000000 1.0
C      1  0.6415570000000  0.3595030000000  0.4632000000000 1.0
C      1  0.5953750000000  0.3642630000000  0.3748520000000 1.0
C      1  0.5019400000000  0.3782750000000  0.3493750000000 1.0
C      1  0.3085820000000  0.5334670000000  0.6874270000000 1.0
C      1  0.3762620000000  0.6009310000000  0.7730820000000 1.0
C      1  0.5889280000000  0.5756860000000  0.7833940000000 1.0
C      1  0.7619550000000  0.5377300000000  0.6254410000000 1.0
C      1  0.8150930000000  0.5355040000000  0.4807760000000 1.0
C      1  0.7166580000000  0.5423590000000  0.3194460000000 1.0
C      1  0.6008840000000  0.5752690000000  0.2422680000000 1.0
C      1  0.3984160000000  0.5676480000000  0.2143430000000 1.0
C      1  0.2391650000000  0.5417210000000  0.3846610000000 1.0
C      1  0.1922730000000  0.5390860000000  0.5332260000000 1.0
C      1  0.6267560000000  0.5745880000000  0.5670240000000 1.0
C      1  0.6181370000000  0.5117240000000  0.4915020000000 1.0
C      1  0.5963390000000  0.5693870000000  0.4160140000000 1.0
C      1  0.5188320000000  0.5411890000000  0.3616920000000 1.0
C      1  0.4456680000000  0.6051720000000  0.3647250000000 1.0
C      1  0.3783020000000  0.5766580000000  0.4300830000000 1.0
C      1  0.3895500000000  0.5133340000000  0.5046380000000 1.0
C      1  0.4119470000000  0.5728870000000  0.5780960000000 1.0
C      1  0.4815200000000  0.5456910000000  0.6328550000000 1.0
C      1  0.5545020000000  0.6002700000000  0.6251850000000 1.0
C      1  0.3602590000000  0.4235430000000  0.3021820000000 1.0
C      1  0.2581220000000  0.4065990000000  0.4135950000000 1.0
C      1  0.3233740000000  0.4489440000000  0.5421180000000 1.0
C      1  0.3469170000000  0.3957950000000  0.6842420000000 1.0
C      1  0.4771010000000  0.4716780000000  0.6976050000000 1.0
C      1  0.6270950000000  0.4331190000000  0.6999160000000 1.0
C      1  0.7348560000000  0.4047580000000  0.5927970000000 1.0
C      1  0.6860820000000  0.4460400000000  0.4579100000000 1.0
C      1  0.6529740000000  0.4154000000000  0.3132450000000 1.0
C      1  0.5017770000000  0.4645010000000  0.3027020000000 1.0
C      1  0.5407550000000  0.6485950000000  0.2353960000000 1.0
C      1  0.4432410000000  0.6344640000000  0.2709490000000 1.0
C      1  0.2868320000000  0.6074560000000  0.4405090000000 1.0
C      1  0.2629130000000  0.6088150000000  0.5385360000000 1.0
C      1  0.3259150000000  0.5979750000000  0.6137410000000 1.0
C      1  0.4549470000000  0.6257630000000  0.7372930000000 1.0
C      1  0.5456960000000  0.6386820000000  0.7141580000000 1.0
C      1  0.7191070000000  0.6051910000000  0.5670410000000 1.0
C      1  0.7470870000000  0.6074780000000  0.4711120000000 1.0
C      1  0.6860760000000  0.6014960000000  0.3924020000000 1.0
C      1  0.2752540000000  0.4606230000000  0.3358140000000 1.0
C      1  0.1979510000000  0.4811600000000  0.4508650000000 1.0
C      1  0.2847710000000  0.4518840000000  0.6344150000000 1.0
C      1  0.3780890000000  0.4744610000000  0.7336910000000 1.0
C      1  0.5663330000000  0.4847270000000  0.7551840000000 1.0
C      1  0.7170760000000  0.4593740000000  0.6706080000000 1.0
C      1  0.8027440000000  0.4752850000000  0.5609200000000 1.0
C      1  0.7240960000000  0.4535170000000  0.3655540000000 1.0
C      1  0.6549740000000  0.5007920000000  0.2538140000000 1.0
C      1  0.4219320000000  0.4742570000000  0.2466700000000 1.0
END
