TITL C-1525613-7943-2419 0.0456422006618196 3375 -8720.99647609929 0 0 60 (Cs) n - 1
REM
REM in /home/nfs/bkarasulu/CARBON/AIRSS/Generating-Clusters/ReaxFF-fromJPCA2015/Units_Real/Try2-Higher-symm/Only-C60
REM
REM
REM
REM
REM
REM ./C.cell (863b2abdce7293c0672fb3ba77bf323a)
REM AIRSS Version 0.9.1 bugfix July 2018 build 013d7b7c2542+ Fri, 06 Jul 2018 19:26:36 +0100
REM compiler GCC version 9.2.1 20190827 (Red Hat 9.2.1-1)
REM options -cpp -mtune=generic -march=x86-64 -g -O0 -fpre-include=/usr/include/finclude/math-vector-fortran.h
REM seed -85992502 -1048697470 -1119873269 1918014778 -1395799696 1573328142 -1320432967 -1039725827 1244343326 -1740500092 581901544 -515212834 -1703842138 -617148798 1656869395 -2110596799 -1258627108 -1973162355 -1238737851 100300446 806580029 235963017 -652664255 -867060747 770944042 1751931043 202928997 1031282124 1792151852 -508507360 -2043759647 -1856260523 -1979942135
REM
CELL 1.54180   15.00000   15.00000   15.00000   90.00000   90.00000   90.00000
LATT -1
SFAC C  
C      1  0.7516330000000  0.4122170000000  0.3937930000000 1.0
C      1  0.5240790000000  0.1934660000000  0.3671420000000 1.0
C      1  0.2642120000000  0.4062380000000  0.3812000000000 1.0
C      1  0.3619910000000  0.6750710000000  0.3862780000000 1.0
C      1  0.6448950000000  0.7202090000000  0.3855110000000 1.0
C      1  0.7515980000000  0.4136150000000  0.6053830000000 1.0
C      1  0.5242860000000  0.1933980000000  0.6327540000000 1.0
C      1  0.2641860000000  0.4061970000000  0.6186130000000 1.0
C      1  0.3599750000000  0.6752430000000  0.6145060000000 1.0
C      1  0.6435740000000  0.7182020000000  0.6137630000000 1.0
C      1  0.5600150000000  0.7530050000000  0.5892880000000 1.0
C      1  0.7625590000000  0.5048350000000  0.5840170000000 1.0
C      1  0.5338670000000  0.2567970000000  0.5800400000000 1.0
C      1  0.3528220000000  0.3813310000000  0.6588480000000 1.0
C      1  0.3319930000000  0.5982970000000  0.6629260000000 1.0
C      1  0.5614400000000  0.7538000000000  0.4117080000000 1.0
C      1  0.7619160000000  0.5036260000000  0.4154410000000 1.0
C      1  0.5337930000000  0.2566310000000  0.4201410000000 1.0
C      1  0.3528960000000  0.3814020000000  0.3410430000000 1.0
C      1  0.3324910000000  0.5993210000000  0.3377050000000 1.0
C      1  0.5439360000000  0.4256880000000  0.6023980000000 1.0
C      1  0.4559450000000  0.4254160000000  0.5489440000000 1.0
C      1  0.4216570000000  0.5347240000000  0.5521600000000 1.0
C      1  0.4971960000000  0.5797940000000  0.6020370000000 1.0
C      1  0.5753800000000  0.5215950000000  0.6130100000000 1.0
C      1  0.5439380000000  0.4254000000000  0.3978470000000 1.0
C      1  0.4557590000000  0.4252710000000  0.4510390000000 1.0
C      1  0.4217660000000  0.5346730000000  0.4478110000000 1.0
C      1  0.4973230000000  0.5795720000000  0.3976290000000 1.0
C      1  0.5753720000000  0.5213870000000  0.3868990000000 1.0
C      1  0.4814280000000  0.7831460000000  0.4501690000000 1.0
C      1  0.7692670000000  0.5884150000000  0.4478160000000 1.0
C      1  0.6007560000000  0.3422020000000  0.4475810000000 1.0
C      1  0.4016880000000  0.3472220000000  0.4182140000000 1.0
C      1  0.3235810000000  0.5476700000000  0.4215030000000 1.0
C      1  0.4802330000000  0.7829980000000  0.5508630000000 1.0
C      1  0.7699810000000  0.5891680000000  0.5510870000000 1.0
C      1  0.6009000000000  0.3424000000000  0.5527220000000 1.0
C      1  0.4018320000000  0.3473370000000  0.5817950000000 1.0
C      1  0.3234620000000  0.5478330000000  0.5785470000000 1.0
C      1  0.2597070000000  0.4784570000000  0.5512940000000 1.0
C      1  0.3904590000000  0.7378620000000  0.5527250000000 1.0
C      1  0.7006800000000  0.6612630000000  0.5458510000000 1.0
C      1  0.6990610000000  0.3440140000000  0.5484300000000 1.0
C      1  0.4367710000000  0.2616840000000  0.5495700000000 1.0
C      1  0.2596110000000  0.4784910000000  0.4485280000000 1.0
C      1  0.3916120000000  0.7374040000000  0.4481500000000 1.0
C      1  0.7002280000000  0.6605510000000  0.4529980000000 1.0
C      1  0.6989520000000  0.3435070000000  0.4515820000000 1.0
C      1  0.4366550000000  0.2616210000000  0.4505200000000 1.0
C      1  0.5563880000000  0.5151240000000  0.2900340000000 1.0
C      1  0.5076480000000  0.4313110000000  0.3023070000000 1.0
C      1  0.4113950000000  0.4474080000000  0.2923710000000 1.0
C      1  0.3959290000000  0.5431440000000  0.2836270000000 1.0
C      1  0.4838600000000  0.5828180000000  0.2998550000000 1.0
C      1  0.5563900000000  0.5154980000000  0.7098340000000 1.0
C      1  0.5076020000000  0.4318470000000  0.6977370000000 1.0
C      1  0.4113410000000  0.4471440000000  0.7079580000000 1.0
C      1  0.3962580000000  0.5429630000000  0.7165590000000 1.0
C      1  0.4838320000000  0.5830790000000  0.6998980000000 1.0
END
