TITL C-1525613-7943-6387 -0.000504807238087562 3375 -9483.743644371 0 0 60 (C5v) n - 1
REM
REM in /home/nfs/bkarasulu/CARBON/AIRSS/Generating-Clusters/ReaxFF-fromJPCA2015/Units_Real/Try2-Higher-symm/Only-C60
REM
REM
REM
REM
REM
REM ./C.cell (863b2abdce7293c0672fb3ba77bf323a)
REM AIRSS Version 0.9.1 bugfix July 2018 build 013d7b7c2542+ Fri, 06 Jul 2018 19:26:36 +0100
REM compiler GCC version 9.2.1 20190827 (Red Hat 9.2.1-1)
REM options -cpp -mtune=generic -march=x86-64 -g -O0 -fpre-include=/usr/include/finclude/math-vector-fortran.h
REM seed -1487494331 -951024062 1445462943 811903974 492023310 1346676206 -2124829438 -1085572866 -2103242738 -790136045 1352376567 2308498 1055386925 1980460879 844511526 -1630605454 -1643264005 -434221172 -1962399862 -764919186 -149805047 1100849386 -1646478499 -1528193801 -472618185 586830479 -1705250474 -1316784215 2144218713 -1447707236 -2005970137 -1608379863 -1379828340
REM
CELL 1.54180   15.00000   15.00000   15.00000   90.00000   90.00000   90.00000
LATT -1
SFAC C  
C      1  0.6698230000000  0.4140260000000  0.6336760000000 1.0
C      1  0.6698100000000  0.5078190000000  0.6587720000000 1.0
C      1  0.6697630000000  0.6006490000000  0.6230970000000 1.0
C      1  0.6697510000000  0.6535210000000  0.5416620000000 1.0
C      1  0.6697410000000  0.6482850000000  0.4423520000000 1.0
C      1  0.6697160000000  0.5871290000000  0.3669380000000 1.0
C      1  0.6697200000000  0.4910540000000  0.3412530000000 1.0
C      1  0.6698040000000  0.4004110000000  0.3760510000000 1.0
C      1  0.6698460000000  0.3462670000000  0.4594680000000 1.0
C      1  0.6698470000000  0.3513970000000  0.5564260000000 1.0
C      1  0.6099000000000  0.6288250000000  0.6972320000000 1.0
C      1  0.6098440000000  0.7326760000000  0.5372280000000 1.0
C      1  0.6098310000000  0.7274650000000  0.4384480000000 1.0
C      1  0.6098310000000  0.6073480000000  0.2902670000000 1.0
C      1  0.6098430000000  0.5117880000000  0.2647130000000 1.0
C      1  0.6099370000000  0.3337300000000  0.3331160000000 1.0
C      1  0.6099780000000  0.2798750000000  0.4160880000000 1.0
C      1  0.6100030000000  0.2899370000000  0.6065770000000 1.0
C      1  0.6099870000000  0.3522270000000  0.6834180000000 1.0
C      1  0.6099400000000  0.5364900000000  0.7327140000000 1.0
C      1  0.3876900000000  0.6890340000000  0.3468060000000 1.0
C      1  0.4048860000000  0.5610790000000  0.2716120000000 1.0
C      1  0.3877620000000  0.4126640000000  0.2728660000000 1.0
C      1  0.4049980000000  0.3016140000000  0.3713190000000 1.0
C      1  0.3878670000000  0.2569330000000  0.5128470000000 1.0
C      1  0.4050360000000  0.3162640000000  0.6488840000000 1.0
C      1  0.3878410000000  0.4370690000000  0.7350990000000 1.0
C      1  0.4049660000000  0.5847860000000  0.7207160000000 1.0
C      1  0.3877350000000  0.7041180000000  0.6324840000000 1.0
C      1  0.4048660000000  0.7361010000000  0.4875550000000 1.0
C      1  0.4428260000000  0.6502670000000  0.2770510000000 1.0
C      1  0.4428660000000  0.4811100000000  0.2317890000000 1.0
C      1  0.4429330000000  0.3343660000000  0.2881840000000 1.0
C      1  0.4430000000000  0.2390460000000  0.4350710000000 1.0
C      1  0.4430230000000  0.2473350000000  0.5920580000000 1.0
C      1  0.4430000000000  0.3575880000000  0.7280940000000 1.0
C      1  0.4429660000000  0.5094550000000  0.7687200000000 1.0
C      1  0.4428990000000  0.6729070000000  0.7059110000000 1.0
C      1  0.4428460000000  0.7584870000000  0.5740400000000 1.0
C      1  0.4428180000000  0.7492540000000  0.3991830000000 1.0
C      1  0.5361940000000  0.3616810000000  0.2753860000000 1.0
C      1  0.5362790000000  0.2385170000000  0.4651780000000 1.0
C      1  0.5362910000000  0.2436370000000  0.5621390000000 1.0
C      1  0.5362660000000  0.3860960000000  0.7379150000000 1.0
C      1  0.5362450000000  0.4798930000000  0.7630080000000 1.0
C      1  0.5361600000000  0.6910970000000  0.6818480000000 1.0
C      1  0.5361280000000  0.7439540000000  0.6004010000000 1.0
C      1  0.5360930000000  0.7320300000000  0.3744660000000 1.0
C      1  0.5360940000000  0.6708930000000  0.2990350000000 1.0
C      1  0.5361490000000  0.4523140000000  0.2405540000000 1.0
C      1  0.3503240000000  0.3793880000000  0.5977240000000 1.0
C      1  0.3394440000000  0.4591240000000  0.6526020000000 1.0
C      1  0.3502820000000  0.5556150000000  0.6448600000000 1.0
C      1  0.3393720000000  0.6324570000000  0.5860050000000 1.0
C      1  0.3502130000000  0.6549210000000  0.4918490000000 1.0
C      1  0.3393430000000  0.6226650000000  0.4005850000000 1.0
C      1  0.3502320000000  0.5400560000000  0.3501370000000 1.0
C      1  0.3393960000000  0.4432860000000  0.3526000000000 1.0
C      1  0.3503020000000  0.3697750000000  0.4155670000000 1.0
C      1  0.3394570000000  0.3422030000000  0.5083550000000 1.0
END
