TITL C-1525613-7943-6559 0.186309517164709 3375 -8651.29966572802 0 0 60 (Ci) n - 1
REM
REM in /home/nfs/bkarasulu/CARBON/AIRSS/Generating-Clusters/ReaxFF-fromJPCA2015/Units_Real/Try2-Higher-symm/Only-C60
REM
REM
REM
REM
REM
REM ./C.cell (863b2abdce7293c0672fb3ba77bf323a)
REM AIRSS Version 0.9.1 bugfix July 2018 build 013d7b7c2542+ Fri, 06 Jul 2018 19:26:36 +0100
REM compiler GCC version 9.2.1 20190827 (Red Hat 9.2.1-1)
REM options -cpp -mtune=generic -march=x86-64 -g -O0 -fpre-include=/usr/include/finclude/math-vector-fortran.h
REM seed -1601110701 1865502085 -615790457 1966020130 1095620123 86714948 1496164826 760197633 -567162681 -11805679 308813949 669868947 -1963733612 -740983897 1915003373 99625920 494271276 1294168855 952913863 2044055621 -1005351059 -1681926702 -726795005 1011740362 458606925 1583188942 -1289820365 831475995 1546824056 -537080185 2016783462 1204456632 1555753123
REM
CELL 1.54180   15.00000   15.00000   15.00000   90.00000   90.00000   90.00000
LATT -1
SFAC C  
C      1  0.4666840000000  0.4166840000000  0.4155500000000 1.0
C      1  0.5241930000000  0.5601570000000  0.4336720000000 1.0
C      1  0.5576900000000  0.4267040000000  0.4386940000000 1.0
C      1  0.5834720000000  0.5731880000000  0.5051040000000 1.0
C      1  0.5640350000000  0.4394810000000  0.5313130000000 1.0
C      1  0.5333110000000  0.5832440000000  0.5845320000000 1.0
C      1  0.4769700000000  0.4403140000000  0.5662080000000 1.0
C      1  0.4426230000000  0.5722400000000  0.5605440000000 1.0
C      1  0.4173210000000  0.4276470000000  0.4952430000000 1.0
C      1  0.4371220000000  0.5598370000000  0.4678680000000 1.0
C      1  0.5671550000000  0.6052280000000  0.6712620000000 1.0
C      1  0.4496930000000  0.4480800000000  0.6599490000000 1.0
C      1  0.3709060000000  0.5582770000000  0.6251870000000 1.0
C      1  0.3206690000000  0.4411700000000  0.4979100000000 1.0
C      1  0.3528630000000  0.5515250000000  0.4184910000000 1.0
C      1  0.4317710000000  0.3947750000000  0.3292700000000 1.0
C      1  0.5519750000000  0.5524280000000  0.3400540000000 1.0
C      1  0.6288460000000  0.4405750000000  0.3734840000000 1.0
C      1  0.6801690000000  0.5600390000000  0.5033290000000 1.0
C      1  0.6484710000000  0.4480010000000  0.5804070000000 1.0
C      1  0.4913120000000  0.6441360000000  0.7204480000000 1.0
C      1  0.3697480000000  0.3900790000000  0.6585320000000 1.0
C      1  0.3005160000000  0.6076090000000  0.5735370000000 1.0
C      1  0.2899430000000  0.3831850000000  0.4248010000000 1.0
C      1  0.3855140000000  0.6115500000000  0.3457500000000 1.0
C      1  0.5069340000000  0.3547640000000  0.2798890000000 1.0
C      1  0.6317160000000  0.6107680000000  0.3423240000000 1.0
C      1  0.6992610000000  0.3911720000000  0.4249300000000 1.0
C      1  0.7094470000000  0.6185670000000  0.5766090000000 1.0
C      1  0.6158040000000  0.3880880000000  0.6532880000000 1.0
C      1  0.3018440000000  0.2932440000000  0.4648140000000 1.0
C      1  0.4025190000000  0.6957230000000  0.3937520000000 1.0
C      1  0.5294980000000  0.2583220000000  0.3068850000000 1.0
C      1  0.5948310000000  0.6972270000000  0.3739830000000 1.0
C      1  0.6680230000000  0.2982490000000  0.4270590000000 1.0
C      1  0.6970520000000  0.7084370000000  0.5365960000000 1.0
C      1  0.5980150000000  0.3039240000000  0.6056260000000 1.0
C      1  0.4681980000000  0.7406340000000  0.6940990000000 1.0
C      1  0.4057950000000  0.3033810000000  0.6265570000000 1.0
C      1  0.3313700000000  0.7006590000000  0.5719790000000 1.0
C      1  0.7057380000000  0.3908860000000  0.5237420000000 1.0
C      1  0.6563670000000  0.6440330000000  0.6564390000000 1.0
C      1  0.5238230000000  0.3880760000000  0.6896150000000 1.0
C      1  0.3983940000000  0.6174380000000  0.6987000000000 1.0
C      1  0.3054500000000  0.3908300000000  0.5832740000000 1.0
C      1  0.2947450000000  0.6082200000000  0.4746840000000 1.0
C      1  0.3421090000000  0.3571960000000  0.3445830000000 1.0
C      1  0.4777570000000  0.6122030000000  0.3100690000000 1.0
C      1  0.6002360000000  0.3809460000000  0.3007430000000 1.0
C      1  0.6954270000000  0.6104510000000  0.4180840000000 1.0
C      1  0.3415420000000  0.6956260000000  0.4726960000000 1.0
C      1  0.3421610000000  0.2601600000000  0.3780340000000 1.0
C      1  0.4964720000000  0.6963330000000  0.3573950000000 1.0
C      1  0.6197090000000  0.2914130000000  0.3386320000000 1.0
C      1  0.6702160000000  0.7027720000000  0.4393580000000 1.0
C      1  0.6585400000000  0.3037190000000  0.5263670000000 1.0
C      1  0.6552370000000  0.7410240000000  0.6228480000000 1.0
C      1  0.5042700000000  0.3039830000000  0.6424970000000 1.0
C      1  0.3786510000000  0.7070230000000  0.6609670000000 1.0
C      1  0.3298810000000  0.2983570000000  0.5617450000000 1.0
END
