TITL C-1525613-7943-1023 -0.000316786514575836 3375 -8958.88024479069 0 0 60 (C1) n - 1
REM
REM in /home/nfs/bkarasulu/CARBON/AIRSS/Generating-Clusters/ReaxFF-fromJPCA2015/Units_Real/Try2-Higher-symm/Only-C60
REM
REM
REM
REM
REM
REM ./C.cell (863b2abdce7293c0672fb3ba77bf323a)
REM AIRSS Version 0.9.1 bugfix July 2018 build 013d7b7c2542+ Fri, 06 Jul 2018 19:26:36 +0100
REM compiler GCC version 9.2.1 20190827 (Red Hat 9.2.1-1)
REM options -cpp -mtune=generic -march=x86-64 -g -O0 -fpre-include=/usr/include/finclude/math-vector-fortran.h
REM seed -2000100292 -851000579 -934853699 -2023573511 -650185559 -186131362 -530148010 -1114980507 2003957646 617690067 -49283653 113854553 -977623393 -1247287542 -1296226751 -977969841 544056801 -1634649824 -147060384 2030243522 -1580993907 -729923927 -1634638220 -1520314579 112787313 -1752348239 1950802337 553204902 1633504110 341438502 -1383973637 1765877555 -2071376772
REM
CELL 1.54180   15.00000   15.00000   15.00000   90.00000   90.00000   90.00000
LATT -1
SFAC C  
C      1  0.3006000000000  0.6403540000000  0.5033810000000 1.0
C      1  0.3002230000000  0.5434480000000  0.6351490000000 1.0
C      1  0.3017160000000  0.3895490000000  0.5824180000000 1.0
C      1  0.3010490000000  0.3901620000000  0.4201370000000 1.0
C      1  0.2994370000000  0.5452090000000  0.3711530000000 1.0
C      1  0.6984580000000  0.3589420000000  0.5027890000000 1.0
C      1  0.6995670000000  0.4565350000000  0.6340470000000 1.0
C      1  0.6975800000000  0.6101100000000  0.5804740000000 1.0
C      1  0.6972150000000  0.6086670000000  0.4182020000000 1.0
C      1  0.6985270000000  0.4531620000000  0.3692930000000 1.0
C      1  0.7286170000000  0.4068240000000  0.5688620000000 1.0
C      1  0.7277760000000  0.4054730000000  0.4358320000000 1.0
C      1  0.7277910000000  0.5311990000000  0.3926160000000 1.0
C      1  0.7284600000000  0.6100530000000  0.4992060000000 1.0
C      1  0.7294990000000  0.5338140000000  0.6076610000000 1.0
C      1  0.2708050000000  0.5927950000000  0.5699590000000 1.0
C      1  0.2705590000000  0.5934870000000  0.4370100000000 1.0
C      1  0.2701450000000  0.4675230000000  0.3945580000000 1.0
C      1  0.2701070000000  0.3891740000000  0.5014640000000 1.0
C      1  0.2700120000000  0.4660030000000  0.6094450000000 1.0
C      1  0.4570080000000  0.6956480000000  0.7345140000000 1.0
C      1  0.4752460000000  0.3410250000000  0.7355480000000 1.0
C      1  0.4732850000000  0.2271060000000  0.4220060000000 1.0
C      1  0.4760560000000  0.4907920000000  0.2140560000000 1.0
C      1  0.4568560000000  0.7842670000000  0.3876670000000 1.0
C      1  0.5434000000000  0.3046580000000  0.7349640000000 1.0
C      1  0.5251710000000  0.6592940000000  0.7347730000000 1.0
C      1  0.5254930000000  0.7727940000000  0.4212780000000 1.0
C      1  0.5450610000000  0.5198850000000  0.1954150000000 1.0
C      1  0.5416640000000  0.2154920000000  0.3879400000000 1.0
C      1  0.3907850000000  0.5606310000000  0.6659430000000 1.0
C      1  0.3909850000000  0.3660830000000  0.6075870000000 1.0
C      1  0.3896640000000  0.3566890000000  0.4053600000000 1.0
C      1  0.3902060000000  0.5494970000000  0.3327680000000 1.0
C      1  0.3907440000000  0.6774660000000  0.4951300000000 1.0
C      1  0.6092230000000  0.4394220000000  0.6654650000000 1.0
C      1  0.6085650000000  0.6337350000000  0.6063760000000 1.0
C      1  0.6084200000000  0.6425370000000  0.4036800000000 1.0
C      1  0.6084660000000  0.4490960000000  0.3310400000000 1.0
C      1  0.6083080000000  0.3220110000000  0.4952330000000 1.0
C      1  0.5807630000000  0.5971720000000  0.6884950000000 1.0
C      1  0.5854320000000  0.3434160000000  0.6557520000000 1.0
C      1  0.5848570000000  0.3020190000000  0.4004270000000 1.0
C      1  0.5850600000000  0.5332810000000  0.2832750000000 1.0
C      1  0.5815130000000  0.7094430000000  0.4649420000000 1.0
C      1  0.4193780000000  0.4029840000000  0.6893910000000 1.0
C      1  0.4144460000000  0.6566020000000  0.6557370000000 1.0
C      1  0.4140550000000  0.6975750000000  0.4003580000000 1.0
C      1  0.4182300000000  0.4677850000000  0.2870900000000 1.0
C      1  0.4172170000000  0.2901590000000  0.4661090000000 1.0
C      1  0.4505220000000  0.3203130000000  0.5513640000000 1.0
C      1  0.4506300000000  0.3948120000000  0.3445820000000 1.0
C      1  0.4521380000000  0.6187780000000  0.3510960000000 1.0
C      1  0.4524110000000  0.6784340000000  0.5656640000000 1.0
C      1  0.4521580000000  0.4927590000000  0.6873620000000 1.0
C      1  0.5486940000000  0.6793870000000  0.5504960000000 1.0
C      1  0.5477420000000  0.6048690000000  0.3430780000000 1.0
C      1  0.5471400000000  0.3809510000000  0.3513200000000 1.0
C      1  0.5468940000000  0.3212870000000  0.5660240000000 1.0
C      1  0.5479740000000  0.5073620000000  0.6870300000000 1.0
END
