TITL C-1525613-7943-4822 -0.00601257551860803 3375 -8963.18757044609 0 0 60 (C1) n - 1
REM
REM in /home/nfs/bkarasulu/CARBON/AIRSS/Generating-Clusters/ReaxFF-fromJPCA2015/Units_Real/Try2-Higher-symm/Only-C60
REM
REM
REM
REM
REM
REM ./C.cell (863b2abdce7293c0672fb3ba77bf323a)
REM AIRSS Version 0.9.1 bugfix July 2018 build 013d7b7c2542+ Fri, 06 Jul 2018 19:26:36 +0100
REM compiler GCC version 9.2.1 20190827 (Red Hat 9.2.1-1)
REM options -cpp -mtune=generic -march=x86-64 -g -O0 -fpre-include=/usr/include/finclude/math-vector-fortran.h
REM seed -866822136 1849173907 602988909 1358264581 845173693 -774159168 415912785 1772359759 762177728 1377963085 371943807 -1576095320 -313930420 1048813715 -1137667986 573148974 1656556692 -1643937688 1986870587 -595212017 -197773256 675816773 756407701 -1065144191 -736074717 -1550774583 -2067193033 1630297470 931876655 243739088 1078862552 -485199762 11363463
REM
CELL 1.54180   15.00000   15.00000   15.00000   90.00000   90.00000   90.00000
LATT -1
SFAC C  
C      1  0.5453370000000  0.2500500000000  0.6221990000000 1.0
C      1  0.5474870000000  0.3050710000000  0.2985380000000 1.0
C      1  0.5448320000000  0.6299700000000  0.2543510000000 1.0
C      1  0.5476860000000  0.7762510000000  0.5481970000000 1.0
C      1  0.5461220000000  0.5396580000000  0.7764950000000 1.0
C      1  0.5476750000000  0.2482390000000  0.3766560000000 1.0
C      1  0.5455030000000  0.3057310000000  0.7005190000000 1.0
C      1  0.5455490000000  0.6306030000000  0.7457960000000 1.0
C      1  0.5475450000000  0.7762650000000  0.4515990000000 1.0
C      1  0.5448390000000  0.5392400000000  0.2248450000000 1.0
C      1  0.6532060000000  0.3561140000000  0.4529460000000 1.0
C      1  0.6537030000000  0.5006240000000  0.3480950000000 1.0
C      1  0.6532830000000  0.6442550000000  0.4532260000000 1.0
C      1  0.6537870000000  0.5887060000000  0.6229630000000 1.0
C      1  0.6534780000000  0.4105280000000  0.6225430000000 1.0
C      1  0.6537090000000  0.3559790000000  0.5474300000000 1.0
C      1  0.6535850000000  0.5003580000000  0.6516940000000 1.0
C      1  0.6532840000000  0.6441540000000  0.5464470000000 1.0
C      1  0.6537750000000  0.5888880000000  0.3767240000000 1.0
C      1  0.6533320000000  0.4108400000000  0.3774270000000 1.0
C      1  0.6045160000000  0.6545110000000  0.6733180000000 1.0
C      1  0.6040310000000  0.3832170000000  0.7004400000000 1.0
C      1  0.6042830000000  0.2734610000000  0.4509070000000 1.0
C      1  0.6043280000000  0.4770630000000  0.2687990000000 1.0
C      1  0.6042180000000  0.7122880000000  0.4062930000000 1.0
C      1  0.6043540000000  0.6545260000000  0.3264200000000 1.0
C      1  0.6042520000000  0.3833640000000  0.2994480000000 1.0
C      1  0.6043190000000  0.2732370000000  0.5495390000000 1.0
C      1  0.6041760000000  0.4767750000000  0.7308590000000 1.0
C      1  0.6044100000000  0.7122680000000  0.5933840000000 1.0
C      1  0.3906840000000  0.6501290000000  0.6845710000000 1.0
C      1  0.3858280000000  0.3601340000000  0.7067400000000 1.0
C      1  0.3844150000000  0.2528720000000  0.4235870000000 1.0
C      1  0.3907930000000  0.4857790000000  0.2635120000000 1.0
C      1  0.3835640000000  0.7449290000000  0.4175020000000 1.0
C      1  0.3907760000000  0.6504410000000  0.3171690000000 1.0
C      1  0.3832970000000  0.3502700000000  0.2887320000000 1.0
C      1  0.3904870000000  0.2693290000000  0.5604740000000 1.0
C      1  0.3846250000000  0.4934470000000  0.7532600000000 1.0
C      1  0.3843230000000  0.7441500000000  0.5835320000000 1.0
C      1  0.3498170000000  0.5923830000000  0.6250960000000 1.0
C      1  0.3490800000000  0.4073150000000  0.6281230000000 1.0
C      1  0.3530440000000  0.3449600000000  0.4490890000000 1.0
C      1  0.3507280000000  0.4970390000000  0.3461730000000 1.0
C      1  0.3521970000000  0.6553390000000  0.4513810000000 1.0
C      1  0.3506970000000  0.5926860000000  0.3773400000000 1.0
C      1  0.3522600000000  0.4027740000000  0.3690700000000 1.0
C      1  0.3491420000000  0.3511690000000  0.5462990000000 1.0
C      1  0.3517970000000  0.4979440000000  0.6592900000000 1.0
C      1  0.3527960000000  0.6546210000000  0.5502540000000 1.0
C      1  0.4615200000000  0.8053340000000  0.5914430000000 1.0
C      1  0.4594320000000  0.5061080000000  0.8162220000000 1.0
C      1  0.4543100000000  0.2078770000000  0.5987270000000 1.0
C      1  0.4612810000000  0.3068230000000  0.2465350000000 1.0
C      1  0.4531750000000  0.6775930000000  0.2490510000000 1.0
C      1  0.4612080000000  0.8052620000000  0.4086750000000 1.0
C      1  0.4532310000000  0.5037680000000  0.1924570000000 1.0
C      1  0.4618030000000  0.1987230000000  0.3943000000000 1.0
C      1  0.4587780000000  0.3104650000000  0.7517010000000 1.0
C      1  0.4543060000000  0.6781050000000  0.7515970000000 1.0
END
