TITL C-1525613-7943-3638 0.328611133572725 3375 -8768.34061021799 0 0 60 (C2) n - 1
REM
REM in /home/nfs/bkarasulu/CARBON/AIRSS/Generating-Clusters/ReaxFF-fromJPCA2015/Units_Real/Try2-Higher-symm/Only-C60
REM
REM
REM
REM
REM
REM ./C.cell (863b2abdce7293c0672fb3ba77bf323a)
REM AIRSS Version 0.9.1 bugfix July 2018 build 013d7b7c2542+ Fri, 06 Jul 2018 19:26:36 +0100
REM compiler GCC version 9.2.1 20190827 (Red Hat 9.2.1-1)
REM options -cpp -mtune=generic -march=x86-64 -g -O0 -fpre-include=/usr/include/finclude/math-vector-fortran.h
REM seed -589309852 -1393732665 938091114 -1050881941 -394969895 462583359 238320615 -553746753 1441292574 2026064514 2051429471 674437148 1083289884 -2102536563 -972059597 -2078316561 -1853338590 1486769584 954415743 -2126396211 -821923849 520277035 1808965509 275444428 -645569791 -1727719381 1090209949 983647043 2117168550 2055972783 -1950394031 1840845249 1296338944
REM
CELL 1.54180   15.00000   15.00000   15.00000   90.00000   90.00000   90.00000
LATT -1
SFAC C  
C      1  0.4646160000000  0.4334590000000  0.5702810000000 1.0
C      1  0.5578600000000  0.4492020000000  0.5480310000000 1.0
C      1  0.5669430000000  0.4543380000000  0.4502810000000 1.0
C      1  0.4816220000000  0.4333750000000  0.4142740000000 1.0
C      1  0.4266380000000  0.4130640000000  0.4859480000000 1.0
C      1  0.4646160000000  0.5665410000000  0.4297190000000 1.0
C      1  0.5578600000000  0.5507980000000  0.4519690000000 1.0
C      1  0.5669430000000  0.5456620000000  0.5497190000000 1.0
C      1  0.4816220000000  0.5666250000000  0.5857260000000 1.0
C      1  0.4266380000000  0.5869360000000  0.5140520000000 1.0
C      1  0.6516840000000  0.3437220000000  0.4445970000000 1.0
C      1  0.4874330000000  0.3561780000000  0.3475340000000 1.0
C      1  0.3539640000000  0.3506340000000  0.4627480000000 1.0
C      1  0.4168650000000  0.3552450000000  0.6273510000000 1.0
C      1  0.6012910000000  0.3406990000000  0.6310170000000 1.0
C      1  0.6516850000000  0.6562780000000  0.5554030000000 1.0
C      1  0.4874330000000  0.6438220000000  0.6524660000000 1.0
C      1  0.3539640000000  0.6493660000000  0.5372520000000 1.0
C      1  0.4168650000000  0.6447550000000  0.3726490000000 1.0
C      1  0.6012910000000  0.6593010000000  0.3689830000000 1.0
C      1  0.6199560000000  0.4151100000000  0.6971450000000 1.0
C      1  0.7216070000000  0.4151530000000  0.4491560000000 1.0
C      1  0.5214830000000  0.4176440000000  0.2720010000000 1.0
C      1  0.2886920000000  0.4196000000000  0.4106500000000 1.0
C      1  0.3470090000000  0.4172400000000  0.6753480000000 1.0
C      1  0.6199560000000  0.5848900000000  0.3028550000000 1.0
C      1  0.7216070000000  0.5848470000000  0.5508440000000 1.0
C      1  0.5214830000000  0.5823560000000  0.7279990000000 1.0
C      1  0.2886920000000  0.5804000000000  0.5893500000000 1.0
C      1  0.3470090000000  0.5827600000000  0.3246520000000 1.0
C      1  0.7163220000000  0.5016970000000  0.4022440000000 1.0
C      1  0.4739470000000  0.5022480000000  0.2639040000000 1.0
C      1  0.2677650000000  0.5040430000000  0.4513770000000 1.0
C      1  0.3815960000000  0.5019310000000  0.7074130000000 1.0
C      1  0.6619730000000  0.5010370000000  0.6756650000000 1.0
C      1  0.7163220000000  0.4983030000000  0.5977560000000 1.0
C      1  0.4739470000000  0.4977520000000  0.7360960000000 1.0
C      1  0.2677650000000  0.4959570000000  0.5486230000000 1.0
C      1  0.3815960000000  0.4980690000000  0.2925870000000 1.0
C      1  0.6619730000000  0.4989630000000  0.3243350000000 1.0
C      1  0.3908560000000  0.6622620000000  0.6325530000000 1.0
C      1  0.5967670000000  0.6566950000000  0.6348420000000 1.0
C      1  0.6551370000000  0.6599710000000  0.4522800000000 1.0
C      1  0.5104260000000  0.6645210000000  0.3307220000000 1.0
C      1  0.3414150000000  0.6628420000000  0.4375730000000 1.0
C      1  0.3908560000000  0.3377380000000  0.3674470000000 1.0
C      1  0.5967670000000  0.3433050000000  0.3651580000000 1.0
C      1  0.6551370000000  0.3400290000000  0.5477200000000 1.0
C      1  0.5104260000000  0.3354790000000  0.6692780000000 1.0
C      1  0.3414150000000  0.3371580000000  0.5624270000000 1.0
C      1  0.6136410000000  0.5863840000000  0.6982420000000 1.0
C      1  0.7215750000000  0.5878190000000  0.4529510000000 1.0
C      1  0.5264370000000  0.5882080000000  0.2720320000000 1.0
C      1  0.2911460000000  0.5893510000000  0.4029560000000 1.0
C      1  0.3433340000000  0.5865360000000  0.6678080000000 1.0
C      1  0.6136410000000  0.4136160000000  0.3017580000000 1.0
C      1  0.7215750000000  0.4121810000000  0.5470490000000 1.0
C      1  0.5264370000000  0.4117920000000  0.7279680000000 1.0
C      1  0.2911460000000  0.4106490000000  0.5970440000000 1.0
C      1  0.3433340000000  0.4134640000000  0.3321920000000 1.0
END
