TITL C-1525613-7943-6126 -0.00131970052383661 3375 -9403.15423550618 0 0 60 (C2v) n - 1
REM
REM in /home/nfs/bkarasulu/CARBON/AIRSS/Generating-Clusters/ReaxFF-fromJPCA2015/Units_Real/Try2-Higher-symm/Only-C60
REM
REM
REM
REM
REM
REM ./C.cell (863b2abdce7293c0672fb3ba77bf323a)
REM AIRSS Version 0.9.1 bugfix July 2018 build 013d7b7c2542+ Fri, 06 Jul 2018 19:26:36 +0100
REM compiler GCC version 9.2.1 20190827 (Red Hat 9.2.1-1)
REM options -cpp -mtune=generic -march=x86-64 -g -O0 -fpre-include=/usr/include/finclude/math-vector-fortran.h
REM seed -1831415606 -512032565 897636962 -188514362 1507824179 -1064562148 -1421721817 -1406194244 535261106 -1899961817 560219892 -1108630705 -1676674929 -1197019970 -1195855739 948423762 -1782898446 -1634357571 87807953 -2002779589 -1184034509 -141336776 -538317481 349106726 731414709 591111341 -1956128192 -665123289 270417922 -1267770860 -1772932693 -663806146 -913904228
REM
CELL 1.54180   15.00000   15.00000   15.00000   90.00000   90.00000   90.00000
LATT -1
SFAC C  
C      1  0.4738290000000  0.7705300000000  0.4393750000000 1.0
C      1  0.6341720000000  0.7291700000000  0.4472700000000 1.0
C      1  0.7400060000000  0.6055390000000  0.4530740000000 1.0
C      1  0.7557830000000  0.4424290000000  0.4530840000000 1.0
C      1  0.6756090000000  0.3008040000000  0.4472920000000 1.0
C      1  0.5261710000000  0.2294670000000  0.4393910000000 1.0
C      1  0.3658280000000  0.2708260000000  0.4472820000000 1.0
C      1  0.2599950000000  0.3944580000000  0.4530770000000 1.0
C      1  0.2442180000000  0.5575680000000  0.4530770000000 1.0
C      1  0.3243920000000  0.6991930000000  0.4472780000000 1.0
C      1  0.6761440000000  0.6565050000000  0.4076920000000 1.0
C      1  0.7330460000000  0.5225450000000  0.4109590000000 1.0
C      1  0.7028740000000  0.3801630000000  0.4077080000000 1.0
C      1  0.5942360000000  0.2817150000000  0.4043160000000 1.0
C      1  0.4493540000000  0.2676940000000  0.4043100000000 1.0
C      1  0.3238580000000  0.3434890000000  0.4077000000000 1.0
C      1  0.2669550000000  0.4774490000000  0.4109570000000 1.0
C      1  0.2971270000000  0.6198310000000  0.4076980000000 1.0
C      1  0.4057650000000  0.7182790000000  0.4043020000000 1.0
C      1  0.5506470000000  0.7323000000000  0.4042970000000 1.0
C      1  0.3184800000000  0.7084980000000  0.5481120000000 1.0
C      1  0.4706080000000  0.8038430000000  0.5369810000000 1.0
C      1  0.6381980000000  0.7394450000000  0.5481030000000 1.0
C      1  0.7409930000000  0.6077320000000  0.5505370000000 1.0
C      1  0.7571720000000  0.4404760000000  0.5505470000000 1.0
C      1  0.6815190000000  0.2915050000000  0.5481270000000 1.0
C      1  0.5293910000000  0.1961590000000  0.5370000000000 1.0
C      1  0.3618010000000  0.2605580000000  0.5481150000000 1.0
C      1  0.2590060000000  0.3922710000000  0.5505400000000 1.0
C      1  0.2428270000000  0.5595270000000  0.5505400000000 1.0
C      1  0.7030160000000  0.3761590000000  0.5958230000000 1.0
C      1  0.6095890000000  0.2369100000000  0.5693190000000 1.0
C      1  0.4428610000000  0.2207610000000  0.5693120000000 1.0
C      1  0.3244850000000  0.3395230000000  0.5958140000000 1.0
C      1  0.2549140000000  0.4762860000000  0.5951090000000 1.0
C      1  0.2969830000000  0.6238470000000  0.5958130000000 1.0
C      1  0.3904100000000  0.7630940000000  0.5693020000000 1.0
C      1  0.5571380000000  0.7792430000000  0.5692960000000 1.0
C      1  0.6755140000000  0.6604830000000  0.5958070000000 1.0
C      1  0.7450850000000  0.5237200000000  0.5951110000000 1.0
C      1  0.6342280000000  0.4206370000000  0.3549790000000 1.0
C      1  0.5621100000000  0.3568160000000  0.3539090000000 1.0
C      1  0.4664880000000  0.3475610000000  0.3539050000000 1.0
C      1  0.3834720000000  0.3963730000000  0.3549730000000 1.0
C      1  0.3449330000000  0.4849920000000  0.3565310000000 1.0
C      1  0.3657730000000  0.5793540000000  0.3549720000000 1.0
C      1  0.4378920000000  0.6431760000000  0.3539000000000 1.0
C      1  0.5335140000000  0.6524300000000  0.3538960000000 1.0
C      1  0.6165300000000  0.6036190000000  0.3549670000000 1.0
C      1  0.6550680000000  0.5150000000000  0.3565320000000 1.0
C      1  0.3734260000000  0.3983290000000  0.6564980000000 1.0
C      1  0.3249300000000  0.4830590000000  0.6559720000000 1.0
C      1  0.3562870000000  0.5755140000000  0.6564990000000 1.0
C      1  0.4488670000000  0.5922990000000  0.6610100000000 1.0
C      1  0.5324920000000  0.6003970000000  0.6610080000000 1.0
C      1  0.6265720000000  0.6016800000000  0.6564940000000 1.0
C      1  0.6750680000000  0.5169500000000  0.6559730000000 1.0
C      1  0.6437110000000  0.4244950000000  0.6565050000000 1.0
C      1  0.5511310000000  0.4077100000000  0.6610160000000 1.0
C      1  0.4675060000000  0.3996120000000  0.6610140000000 1.0
END
