TITL C-1525613-7943-7466 0.000236004793338134 3375 -9524.50491374519 0 0 60 (C2h) n - 1
REM
REM in /home/nfs/bkarasulu/CARBON/AIRSS/Generating-Clusters/ReaxFF-fromJPCA2015/Units_Real/Try2-Higher-symm/Only-C60
REM
REM
REM
REM
REM
REM ./C.cell (863b2abdce7293c0672fb3ba77bf323a)
REM AIRSS Version 0.9.1 bugfix July 2018 build 013d7b7c2542+ Fri, 06 Jul 2018 19:26:36 +0100
REM compiler GCC version 9.2.1 20190827 (Red Hat 9.2.1-1)
REM options -cpp -mtune=generic -march=x86-64 -g -O0 -fpre-include=/usr/include/finclude/math-vector-fortran.h
REM seed -725527344 411335969 -14599326 -2071275051 1890110036 -9657686 698798235 2123354397 115759583 -233419565 1779591755 -1914409955 1154968831 -902826009 1423789823 -748416673 -1706494773 -856703477 1082518607 -673663132 -770408886 52240205 121095848 -587076289 -607234615 -102808103 -386148895 -1798866788 -621163106 -1129839038 -1284641621 -1756614384 937869195
REM
CELL 1.54180   15.00000   15.00000   15.00000   90.00000   90.00000   90.00000
LATT -1
SFAC C  
C      1  0.5397540000000  0.4737940000000  0.2673620000000 1.0
C      1  0.5403420000000  0.7133660000000  0.4042250000000 1.0
C      1  0.5398170000000  0.6580510000000  0.6732080000000 1.0
C      1  0.5403370000000  0.3835830000000  0.7025520000000 1.0
C      1  0.5406570000000  0.2705850000000  0.4519490000000 1.0
C      1  0.5397540000000  0.4737930000000  0.7326390000000 1.0
C      1  0.5403420000000  0.7133660000000  0.5957750000000 1.0
C      1  0.5398180000000  0.6580520000000  0.3267920000000 1.0
C      1  0.5403370000000  0.3835840000000  0.2974480000000 1.0
C      1  0.5406570000000  0.2705840000000  0.5480510000000 1.0
C      1  0.3099870000000  0.5923410000000  0.6275360000000 1.0
C      1  0.3095890000000  0.4063160000000  0.6274930000000 1.0
C      1  0.3100300000000  0.3495340000000  0.4505800000000 1.0
C      1  0.3099060000000  0.5006430000000  0.3428110000000 1.0
C      1  0.3095110000000  0.6514740000000  0.4516690000000 1.0
C      1  0.3099870000000  0.5923420000000  0.3724630000000 1.0
C      1  0.3095900000000  0.4063170000000  0.3725070000000 1.0
C      1  0.3100300000000  0.3495330000000  0.5494200000000 1.0
C      1  0.3099060000000  0.5006420000000  0.6571880000000 1.0
C      1  0.3095110000000  0.6514730000000  0.5483300000000 1.0
C      1  0.4590150000000  0.5249210000000  0.2694940000000 1.0
C      1  0.4591380000000  0.7297960000000  0.4518020000000 1.0
C      1  0.4590510000000  0.6153920000000  0.7013090000000 1.0
C      1  0.4590580000000  0.3424680000000  0.6734190000000 1.0
C      1  0.4588410000000  0.2858860000000  0.4043470000000 1.0
C      1  0.4590150000000  0.5249220000000  0.7305050000000 1.0
C      1  0.4591380000000  0.7297960000000  0.5481970000000 1.0
C      1  0.4590510000000  0.6153940000000  0.2986910000000 1.0
C      1  0.4590580000000  0.3424690000000  0.3265810000000 1.0
C      1  0.4588400000000  0.2858850000000  0.5956530000000 1.0
C      1  0.3782490000000  0.2805710000000  0.4535910000000 1.0
C      1  0.3788200000000  0.4768470000000  0.2789650000000 1.0
C      1  0.3781260000000  0.7049790000000  0.4086030000000 1.0
C      1  0.3789420000000  0.6489070000000  0.6653240000000 1.0
C      1  0.3779990000000  0.3881150000000  0.6939000000000 1.0
C      1  0.3782490000000  0.2805710000000  0.5464090000000 1.0
C      1  0.3788190000000  0.4768470000000  0.7210350000000 1.0
C      1  0.3781260000000  0.7049780000000  0.5913970000000 1.0
C      1  0.3789430000000  0.6489090000000  0.3346760000000 1.0
C      1  0.3780000000000  0.3881160000000  0.3061000000000 1.0
C      1  0.6241490000000  0.6152030000000  0.6963930000000 1.0
C      1  0.6205080000000  0.3508540000000  0.6660070000000 1.0
C      1  0.6210640000000  0.2962560000000  0.4089710000000 1.0
C      1  0.6241080000000  0.5221690000000  0.2734730000000 1.0
C      1  0.6201410000000  0.7173630000000  0.4536720000000 1.0
C      1  0.6241490000000  0.6152030000000  0.3036070000000 1.0
C      1  0.6205080000000  0.3508550000000  0.3339940000000 1.0
C      1  0.6210640000000  0.2962560000000  0.5910290000000 1.0
C      1  0.6241070000000  0.5221680000000  0.7265270000000 1.0
C      1  0.6201410000000  0.7173630000000  0.5463290000000 1.0
C      1  0.6890750000000  0.3498110000000  0.4517270000000 1.0
C      1  0.6928420000000  0.4995970000000  0.3409610000000 1.0
C      1  0.6888060000000  0.6490770000000  0.4507580000000 1.0
C      1  0.6928170000000  0.5938090000000  0.6285260000000 1.0
C      1  0.6893220000000  0.4082890000000  0.6277640000000 1.0
C      1  0.6890750000000  0.3498110000000  0.5482730000000 1.0
C      1  0.6928420000000  0.4995970000000  0.6590400000000 1.0
C      1  0.6888060000000  0.6490770000000  0.5492420000000 1.0
C      1  0.6928170000000  0.5938100000000  0.3714740000000 1.0
C      1  0.6893220000000  0.4082900000000  0.3722370000000 1.0
END
