TITL C-1525613-7943-624 -0.24684118436677 3375 -8785.23704444861 0 0 60 (C10) n - 1
REM
REM in /home/nfs/bkarasulu/CARBON/AIRSS/Generating-Clusters/ReaxFF-fromJPCA2015/Units_Real/Try2-Higher-symm/Only-C60
REM
REM
REM
REM
REM
REM ./C.cell (863b2abdce7293c0672fb3ba77bf323a)
REM AIRSS Version 0.9.1 bugfix July 2018 build 013d7b7c2542+ Fri, 06 Jul 2018 19:26:36 +0100
REM compiler GCC version 9.2.1 20190827 (Red Hat 9.2.1-1)
REM options -cpp -mtune=generic -march=x86-64 -g -O0 -fpre-include=/usr/include/finclude/math-vector-fortran.h
REM seed -574092189 -1419011178 1894958501 -692126518 -376837671 2041440456 441968505 -1310085559 -2093836026 340870978 -1934535472 1155174269 1805293737 -1523161371 -138018152 92370090 -1917322367 -2011103789 1774214721 91653348 1376053076 70154880 1015861724 -1849472585 -1807250091 -1301125653 1486780279 871209517 -1305914075 -1228353724 1959947059 1926813296 -969391534
REM
CELL 1.54180   15.00000   15.00000   15.00000   90.00000   90.00000   90.00000
LATT -1
SFAC C  
C      1  0.4828020000000  0.6903980000000  0.6529940000000 1.0
C      1  0.5762330000000  0.6930600000000  0.6344890000000 1.0
C      1  0.6402600000000  0.6903410000000  0.5637030000000 1.0
C      1  0.6513570000000  0.6920070000000  0.4690010000000 1.0
C      1  0.6041940000000  0.6923020000000  0.3860860000000 1.0
C      1  0.5171980000000  0.6903980000000  0.3470060000000 1.0
C      1  0.4237670000000  0.6930600000000  0.3655110000000 1.0
C      1  0.3597400000000  0.6903410000000  0.4362970000000 1.0
C      1  0.3486430000000  0.6920070000000  0.5309990000000 1.0
C      1  0.3958060000000  0.6923020000000  0.6139140000000 1.0
C      1  0.6624720000000  0.3270740000000  0.5396990000000 1.0
C      1  0.6542980000000  0.3292760000000  0.4368510000000 1.0
C      1  0.5876310000000  0.3285960000000  0.3579910000000 1.0
C      1  0.4875720000000  0.3273740000000  0.3333030000000 1.0
C      1  0.3923180000000  0.3289740000000  0.3729560000000 1.0
C      1  0.3375280000000  0.3270740000000  0.4603010000000 1.0
C      1  0.3457020000000  0.3292760000000  0.5631490000000 1.0
C      1  0.4123690000000  0.3285960000000  0.6420090000000 1.0
C      1  0.5124280000000  0.3273740000000  0.6666970000000 1.0
C      1  0.6076820000000  0.3289740000000  0.6270440000000 1.0
C      1  0.2728830000000  0.5302580000000  0.3928790000000 1.0
C      1  0.2531680000000  0.5291400000000  0.5461680000000 1.0
C      1  0.3276320000000  0.5303740000000  0.6829880000000 1.0
C      1  0.4681740000000  0.5291770000000  0.7486300000000 1.0
C      1  0.6205980000000  0.5295860000000  0.7203900000000 1.0
C      1  0.7271170000000  0.5302580000000  0.6071210000000 1.0
C      1  0.7468320000000  0.5291400000000  0.4538320000000 1.0
C      1  0.6723680000000  0.5303740000000  0.3170120000000 1.0
C      1  0.5318260000000  0.5291770000000  0.2513700000000 1.0
C      1  0.3794020000000  0.5295860000000  0.2796100000000 1.0
C      1  0.4623450000000  0.3807620000000  0.2564170000000 1.0
C      1  0.3274920000000  0.3829460000000  0.3254170000000 1.0
C      1  0.2566370000000  0.3803250000000  0.4605350000000 1.0
C      1  0.2805400000000  0.3828070000000  0.6109150000000 1.0
C      1  0.3871870000000  0.3814790000000  0.7191100000000 1.0
C      1  0.5376550000000  0.3807620000000  0.7435830000000 1.0
C      1  0.6725080000000  0.3829460000000  0.6745830000000 1.0
C      1  0.7433630000000  0.3803250000000  0.5394650000000 1.0
C      1  0.7194600000000  0.3828070000000  0.3890850000000 1.0
C      1  0.6128130000000  0.3814790000000  0.2808900000000 1.0
C      1  0.7370910000000  0.4816480000000  0.3705490000000 1.0
C      1  0.6156970000000  0.4808420000000  0.2567330000000 1.0
C      1  0.4503650000000  0.4802570000000  0.2354060000000 1.0
C      1  0.3035590000000  0.4815710000000  0.3146760000000 1.0
C      1  0.2333440000000  0.4799710000000  0.4649720000000 1.0
C      1  0.2629090000000  0.4816480000000  0.6294510000000 1.0
C      1  0.3843030000000  0.4808420000000  0.7432670000000 1.0
C      1  0.5496350000000  0.4802570000000  0.7645940000000 1.0
C      1  0.6964410000000  0.4815710000000  0.6853240000000 1.0
C      1  0.7666560000000  0.4799710000000  0.5350280000000 1.0
C      1  0.3336230000000  0.5882240000000  0.5325870000000 1.0
C      1  0.3842010000000  0.5886920000000  0.6239180000000 1.0
C      1  0.4800710000000  0.5863260000000  0.6668360000000 1.0
C      1  0.5822120000000  0.5894910000000  0.6492380000000 1.0
C      1  0.6524940000000  0.5867240000000  0.5707050000000 1.0
C      1  0.6663770000000  0.5882240000000  0.4674130000000 1.0
C      1  0.6157990000000  0.5886920000000  0.3760820000000 1.0
C      1  0.5199290000000  0.5863260000000  0.3331640000000 1.0
C      1  0.4177880000000  0.5894910000000  0.3507620000000 1.0
C      1  0.3475060000000  0.5867240000000  0.4292950000000 1.0
END
