TITL C-1525613-7943-4463 1.76560508452313 3375 -7604.53697528345 0 0 60 (C5) n - 1
REM
REM in /home/nfs/bkarasulu/CARBON/AIRSS/Generating-Clusters/ReaxFF-fromJPCA2015/Units_Real/Try2-Higher-symm/Only-C60
REM
REM
REM
REM
REM
REM ./C.cell (863b2abdce7293c0672fb3ba77bf323a)
REM AIRSS Version 0.9.1 bugfix July 2018 build 013d7b7c2542+ Fri, 06 Jul 2018 19:26:36 +0100
REM compiler GCC version 9.2.1 20190827 (Red Hat 9.2.1-1)
REM options -cpp -mtune=generic -march=x86-64 -g -O0 -fpre-include=/usr/include/finclude/math-vector-fortran.h
REM seed -705414769 -1037158805 -1304283925 624834670 1245434411 -840066963 -1827719715 -1890948059 -438970523 -1218682436 465024525 1619827185 -1201909970 -100818850 906065014 1959262416 731484019 2031440098 1837285259 969858367 1798959881 -1005984665 -1697650701 -1819880427 -1577922292 -852103537 411056316 59948849 -384348183 1645902183 1297044216 -750327727 481875194
REM
CELL 1.54180   15.00000   15.00000   15.00000   90.00000   90.00000   90.00000
LATT -1
SFAC C  
C      1  0.7160060000000  0.4032680000000  0.5279100000000 1.0
C      1  0.6585880000000  0.6754090000000  0.5277160000000 1.0
C      1  0.3819840000000  0.7053210000000  0.5277680000000 1.0
C      1  0.2684570000000  0.4513020000000  0.5278510000000 1.0
C      1  0.4748610000000  0.2649400000000  0.5276320000000 1.0
C      1  0.7160010000000  0.5967250000000  0.5279160000000 1.0
C      1  0.6585670000000  0.3245950000000  0.5277200000000 1.0
C      1  0.3819930000000  0.2946850000000  0.5277690000000 1.0
C      1  0.2684510000000  0.5486960000000  0.5278490000000 1.0
C      1  0.4748680000000  0.7350620000000  0.5276210000000 1.0
C      1  0.6535450000000  0.4497770000000  0.3203510000000 1.0
C      1  0.5953900000000  0.6304940000000  0.3204420000000 1.0
C      1  0.4051280000000  0.6309170000000  0.3203740000000 1.0
C      1  0.3461290000000  0.4505460000000  0.3204730000000 1.0
C      1  0.4999440000000  0.3383870000000  0.3202530000000 1.0
C      1  0.6535410000000  0.5502270000000  0.3203510000000 1.0
C      1  0.5953770000000  0.3694990000000  0.3204360000000 1.0
C      1  0.4051360000000  0.3690730000000  0.3203830000000 1.0
C      1  0.3461240000000  0.5494500000000  0.3204780000000 1.0
C      1  0.4999470000000  0.6616170000000  0.3202560000000 1.0
C      1  0.3737890000000  0.6479160000000  0.6047800000000 1.0
C      1  0.3203530000000  0.4256260000000  0.6047260000000 1.0
C      1  0.5151930000000  0.3062450000000  0.6046410000000 1.0
C      1  0.6890940000000  0.4545620000000  0.6048100000000 1.0
C      1  0.6015960000000  0.6657150000000  0.6046700000000 1.0
C      1  0.3737900000000  0.3520950000000  0.6047810000000 1.0
C      1  0.3203490000000  0.5743730000000  0.6047330000000 1.0
C      1  0.5151590000000  0.6937780000000  0.6046240000000 1.0
C      1  0.6890940000000  0.5454410000000  0.6048010000000 1.0
C      1  0.6015990000000  0.3342940000000  0.6046520000000 1.0
C      1  0.3841960000000  0.3030520000000  0.3902570000000 1.0
C      1  0.6513230000000  0.3290500000000  0.3901360000000 1.0
C      1  0.7095500000000  0.5912620000000  0.3899110000000 1.0
C      1  0.4778710000000  0.7272230000000  0.3903750000000 1.0
C      1  0.2768680000000  0.5494370000000  0.3898100000000 1.0
C      1  0.3842020000000  0.6969520000000  0.3902570000000 1.0
C      1  0.6513210000000  0.6709580000000  0.3901180000000 1.0
C      1  0.7095450000000  0.4087370000000  0.3899270000000 1.0
C      1  0.4778690000000  0.2727760000000  0.3903570000000 1.0
C      1  0.2768660000000  0.4505650000000  0.3898110000000 1.0
C      1  0.6478050000000  0.5488450000000  0.6922810000000 1.0
C      1  0.4993150000000  0.6558440000000  0.6922040000000 1.0
C      1  0.3515840000000  0.5473510000000  0.6922970000000 1.0
C      1  0.4090130000000  0.3735650000000  0.6923430000000 1.0
C      1  0.5922340000000  0.3743350000000  0.6922050000000 1.0
C      1  0.6478060000000  0.4511490000000  0.6922870000000 1.0
C      1  0.4993040000000  0.3441560000000  0.6922140000000 1.0
C      1  0.3515840000000  0.4526390000000  0.6922870000000 1.0
C      1  0.4090120000000  0.6264330000000  0.6923480000000 1.0
C      1  0.5922500000000  0.6256430000000  0.6922500000000 1.0
C      1  0.4023020000000  0.3694120000000  0.4646850000000 1.0
C      1  0.5939790000000  0.3665090000000  0.4647690000000 1.0
C      1  0.6556770000000  0.5481730000000  0.4648150000000 1.0
C      1  0.5025030000000  0.6632310000000  0.4646270000000 1.0
C      1  0.3457540000000  0.5525470000000  0.4648880000000 1.0
C      1  0.4023080000000  0.6305870000000  0.4646780000000 1.0
C      1  0.5939660000000  0.6334840000000  0.4647630000000 1.0
C      1  0.6556770000000  0.4518250000000  0.4648020000000 1.0
C      1  0.5025100000000  0.3367740000000  0.4646350000000 1.0
C      1  0.3457520000000  0.4474510000000  0.4648930000000 1.0
END
