TITL C-1525613-7943-2972 -0.00684993836344082 3375 -9024.69815668973 0 0 60 (Ci) n - 1
REM
REM in /home/nfs/bkarasulu/CARBON/AIRSS/Generating-Clusters/ReaxFF-fromJPCA2015/Units_Real/Try2-Higher-symm/Only-C60
REM
REM
REM
REM
REM
REM ./C.cell (863b2abdce7293c0672fb3ba77bf323a)
REM AIRSS Version 0.9.1 bugfix July 2018 build 013d7b7c2542+ Fri, 06 Jul 2018 19:26:36 +0100
REM compiler GCC version 9.2.1 20190827 (Red Hat 9.2.1-1)
REM options -cpp -mtune=generic -march=x86-64 -g -O0 -fpre-include=/usr/include/finclude/math-vector-fortran.h
REM seed -1917174568 250292289 -1804509030 2118871386 -1897980164 878399904 -119174424 1487413561 -1649491822 1340019290 1306082662 1904261060 1219785383 2011513186 1530512565 796099786 -744394381 -1777312692 -545019347 -742169227 103089275 -1457627870 1559259095 1437648058 590078980 -99979509 -1511966168 24236695 47957848 738840857 54921888 1397550169 -977705553
REM
CELL 1.54180   15.00000   15.00000   15.00000   90.00000   90.00000   90.00000
LATT -1
SFAC C  
C      1  0.4513810000000  0.7738820000000  0.6658640000000 1.0
C      1  0.3590540000000  0.2235020000000  0.6065020000000 1.0
C      1  0.3274840000000  0.7740120000000  0.5024070000000 1.0
C      1  0.3548910000000  0.2245830000000  0.4014570000000 1.0
C      1  0.4446540000000  0.7756280000000  0.3340780000000 1.0
C      1  0.5486220000000  0.2261200000000  0.3341360000000 1.0
C      1  0.6409460000000  0.7764950000000  0.3934970000000 1.0
C      1  0.6725170000000  0.2259900000000  0.4975940000000 1.0
C      1  0.6451110000000  0.7754160000000  0.5985410000000 1.0
C      1  0.5553450000000  0.2243720000000  0.6659220000000 1.0
C      1  0.6739370000000  0.6453870000000  0.4947040000000 1.0
C      1  0.6378660000000  0.3559740000000  0.5996760000000 1.0
C      1  0.5589280000000  0.6438190000000  0.6599580000000 1.0
C      1  0.4476800000000  0.3544820000000  0.6657490000000 1.0
C      1  0.3662110000000  0.6429780000000  0.6016320000000 1.0
C      1  0.3260620000000  0.3546110000000  0.5052950000000 1.0
C      1  0.3621330000000  0.6440270000000  0.4003250000000 1.0
C      1  0.4410730000000  0.3561820000000  0.3400420000000 1.0
C      1  0.5523180000000  0.6455160000000  0.3342510000000 1.0
C      1  0.6337890000000  0.3570240000000  0.3983690000000 1.0
C      1  0.6975880000000  0.6959520000000  0.5749230000000 1.0
C      1  0.6105650000000  0.3045410000000  0.6781640000000 1.0
C      1  0.4899860000000  0.6939840000000  0.7077240000000 1.0
C      1  0.3645550000000  0.3031340000000  0.6635530000000 1.0
C      1  0.2995220000000  0.6936790000000  0.5513030000000 1.0
C      1  0.3024120000000  0.3040460000000  0.4250760000000 1.0
C      1  0.3894340000000  0.6954590000000  0.3218370000000 1.0
C      1  0.5100160000000  0.3060180000000  0.2922760000000 1.0
C      1  0.6354440000000  0.6968630000000  0.3364460000000 1.0
C      1  0.7004780000000  0.3063240000000  0.4486990000000 1.0
C      1  0.6943270000000  0.6968010000000  0.4141300000000 1.0
C      1  0.7024480000000  0.3058150000000  0.5461560000000 1.0
C      1  0.6419130000000  0.6951930000000  0.6549340000000 1.0
C      1  0.5184840000000  0.3038190000000  0.7101460000000 1.0
C      1  0.3966850000000  0.6935760000000  0.6794910000000 1.0
C      1  0.3056730000000  0.3031960000000  0.5858680000000 1.0
C      1  0.2975520000000  0.6941870000000  0.4538450000000 1.0
C      1  0.3580880000000  0.3048070000000  0.3450650000000 1.0
C      1  0.4815140000000  0.6961800000000  0.2898540000000 1.0
C      1  0.6033160000000  0.3064260000000  0.3205100000000 1.0
C      1  0.4743770000000  0.8118510000000  0.4204700000000 1.0
C      1  0.5224150000000  0.1889860000000  0.4212770000000 1.0
C      1  0.5680080000000  0.8122670000000  0.4488100000000 1.0
C      1  0.5815080000000  0.1889240000000  0.4992390000000 1.0
C      1  0.5699920000000  0.8117500000000  0.5466150000000 1.0
C      1  0.5256230000000  0.1881490000000  0.5795290000000 1.0
C      1  0.4775870000000  0.8110150000000  0.5787230000000 1.0
C      1  0.4319930000000  0.1877320000000  0.5511890000000 1.0
C      1  0.4184940000000  0.8110770000000  0.5007610000000 1.0
C      1  0.4300100000000  0.1882500000000  0.4533830000000 1.0
C      1  0.5858360000000  0.6035010000000  0.4962670000000 1.0
C      1  0.5650650000000  0.3971040000000  0.5494080000000 1.0
C      1  0.5301700000000  0.6027940000000  0.5762400000000 1.0
C      1  0.4730240000000  0.3964340000000  0.5813900000000 1.0
C      1  0.4369110000000  0.6024200000000  0.5480110000000 1.0
C      1  0.4141630000000  0.3964980000000  0.5037330000000 1.0
C      1  0.4349340000000  0.6028970000000  0.4505940000000 1.0
C      1  0.4698290000000  0.3972060000000  0.4237600000000 1.0
C      1  0.5269740000000  0.6035650000000  0.4186110000000 1.0
C      1  0.5630880000000  0.3975810000000  0.4519900000000 1.0
END
