TITL C-1525613-7943-1999 0.52931970485873 3375 -8180.97919430775 0 0 60 (C1) n - 1
REM
REM in /home/nfs/bkarasulu/CARBON/AIRSS/Generating-Clusters/ReaxFF-fromJPCA2015/Units_Real/Try2-Higher-symm/Only-C60
REM
REM
REM
REM
REM
REM ./C.cell (863b2abdce7293c0672fb3ba77bf323a)
REM AIRSS Version 0.9.1 bugfix July 2018 build 013d7b7c2542+ Fri, 06 Jul 2018 19:26:36 +0100
REM compiler GCC version 9.2.1 20190827 (Red Hat 9.2.1-1)
REM options -cpp -mtune=generic -march=x86-64 -g -O0 -fpre-include=/usr/include/finclude/math-vector-fortran.h
REM seed 514993431 -1329559545 -889655219 785978275 1849777143 1588562107 1148197945 1784756294 -1190414456 1316629583 -1071640084 -618345418 1004849223 -1246649922 1485727067 -203589566 2124720670 -1997775894 324369106 804931680 -378199452 -1682797192 903699172 895222378 -498960361 1010147331 1312600709 -1753482613 962145945 749811165 -1045925404 -985930875 1658699843
REM
CELL 1.54180   15.00000   15.00000   15.00000   90.00000   90.00000   90.00000
LATT -1
SFAC C  
C      1  0.4988990000000  0.6534070000000  0.6523340000000 1.0
C      1  0.3551670000000  0.5481260000000  0.6530040000000 1.0
C      1  0.4026200000000  0.3654810000000  0.6435980000000 1.0
C      1  0.5982070000000  0.3653910000000  0.6437000000000 1.0
C      1  0.6483560000000  0.5496500000000  0.6499870000000 1.0
C      1  0.4997000000000  0.3473960000000  0.6514270000000 1.0
C      1  0.3538450000000  0.4510030000000  0.6495530000000 1.0
C      1  0.4019780000000  0.6360480000000  0.6440320000000 1.0
C      1  0.5969750000000  0.6346970000000  0.6450980000000 1.0
C      1  0.6472730000000  0.4519410000000  0.6531540000000 1.0
C      1  0.6400250000000  0.5450300000000  0.5498820000000 1.0
C      1  0.5004380000000  0.6411870000000  0.5564460000000 1.0
C      1  0.3648410000000  0.5442830000000  0.5566090000000 1.0
C      1  0.4121070000000  0.3757550000000  0.5402860000000 1.0
C      1  0.5867430000000  0.3812280000000  0.5441500000000 1.0
C      1  0.6341870000000  0.4562200000000  0.5562970000000 1.0
C      1  0.5000340000000  0.3588040000000  0.5558980000000 1.0
C      1  0.3562640000000  0.4539100000000  0.5490470000000 1.0
C      1  0.4132030000000  0.6227630000000  0.5422940000000 1.0
C      1  0.5867710000000  0.6185790000000  0.5439090000000 1.0
C      1  0.2923300000000  0.4092720000000  0.4103020000000 1.0
C      1  0.5218840000000  0.2740670000000  0.4124630000000 1.0
C      1  0.7212570000000  0.4499170000000  0.4120790000000 1.0
C      1  0.6157310000000  0.6956760000000  0.4114030000000 1.0
C      1  0.3492520000000  0.6703620000000  0.4103560000000 1.0
C      1  0.2920660000000  0.5900980000000  0.4128200000000 1.0
C      1  0.5214950000000  0.7258510000000  0.4121360000000 1.0
C      1  0.7217960000000  0.5489350000000  0.4113580000000 1.0
C      1  0.6160110000000  0.3044660000000  0.4110860000000 1.0
C      1  0.3493090000000  0.3296130000000  0.4094790000000 1.0
C      1  0.5943240000000  0.6280880000000  0.3421440000000 1.0
C      1  0.4073070000000  0.6293420000000  0.3420430000000 1.0
C      1  0.3488670000000  0.4520190000000  0.3415600000000 1.0
C      1  0.4995290000000  0.3410280000000  0.3424410000000 1.0
C      1  0.6508100000000  0.4499730000000  0.3419920000000 1.0
C      1  0.5945290000000  0.3716330000000  0.3417650000000 1.0
C      1  0.4076110000000  0.3704000000000  0.3408110000000 1.0
C      1  0.3486340000000  0.5485070000000  0.3423750000000 1.0
C      1  0.4993490000000  0.6584760000000  0.3425480000000 1.0
C      1  0.6507920000000  0.5497270000000  0.3423790000000 1.0
C      1  0.7762260000000  0.4497440000000  0.5557180000000 1.0
C      1  0.6297220000000  0.7427340000000  0.5660680000000 1.0
C      1  0.3077670000000  0.6985420000000  0.5688800000000 1.0
C      1  0.2428360000000  0.3739220000000  0.5569750000000 1.0
C      1  0.5389560000000  0.2198380000000  0.5539540000000 1.0
C      1  0.7780000000000  0.5487980000000  0.5575980000000 1.0
C      1  0.6298570000000  0.2582170000000  0.5671440000000 1.0
C      1  0.3058390000000  0.3017800000000  0.5706870000000 1.0
C      1  0.2444490000000  0.6237530000000  0.5538900000000 1.0
C      1  0.5379300000000  0.7806290000000  0.5542300000000 1.0
C      1  0.7376560000000  0.6080440000000  0.4880340000000 1.0
C      1  0.4699190000000  0.7604680000000  0.4861680000000 1.0
C      1  0.2425240000000  0.5520570000000  0.4859680000000 1.0
C      1  0.3762750000000  0.2795780000000  0.4914440000000 1.0
C      1  0.6769270000000  0.3093230000000  0.4883370000000 1.0
C      1  0.7372750000000  0.3902470000000  0.4864060000000 1.0
C      1  0.4702310000000  0.2392490000000  0.4861720000000 1.0
C      1  0.2461350000000  0.4495020000000  0.4888110000000 1.0
C      1  0.3747810000000  0.7230140000000  0.4903920000000 1.0
C      1  0.6761820000000  0.6922130000000  0.4888820000000 1.0
END
