TITL C-1525613-7943-7389 -0.000740286321339414 3375 -9163.31126359817 0 0 60 (D5) n - 1
REM
REM in /home/nfs/bkarasulu/CARBON/AIRSS/Generating-Clusters/ReaxFF-fromJPCA2015/Units_Real/Try2-Higher-symm/Only-C60
REM
REM
REM
REM
REM
REM ./C.cell (863b2abdce7293c0672fb3ba77bf323a)
REM AIRSS Version 0.9.1 bugfix July 2018 build 013d7b7c2542+ Fri, 06 Jul 2018 19:26:36 +0100
REM compiler GCC version 9.2.1 20190827 (Red Hat 9.2.1-1)
REM options -cpp -mtune=generic -march=x86-64 -g -O0 -fpre-include=/usr/include/finclude/math-vector-fortran.h
REM seed -785763085 -887743434 -1174420140 1997721603 1376788547 1300662770 1702254510 -2102043215 -2090177269 1609399792 279018784 -2062717618 -107671580 -1404683230 -1961715810 -856340072 -1844994465 968896189 985326581 2046846718 -464776212 -65758734 -1949869408 -2074328137 -1500758254 2146468865 521693678 1975956142 1580195650 1045541631 120198802 1968917968 -270778485
REM
CELL 1.54180   15.00000   15.00000   15.00000   90.00000   90.00000   90.00000
LATT -1
SFAC C  
C      1  0.3706440000000  0.4719910000000  0.5769490000000 1.0
C      1  0.3706450000000  0.5645280000000  0.5504180000000 1.0
C      1  0.3706430000000  0.5678920000000  0.4542110000000 1.0
C      1  0.3706410000000  0.4774350000000  0.4212810000000 1.0
C      1  0.3706420000000  0.4181650000000  0.4971370000000 1.0
C      1  0.6293560000000  0.4719910000000  0.4230510000000 1.0
C      1  0.6293550000000  0.5645280000000  0.4495820000000 1.0
C      1  0.6293570000000  0.5678920000000  0.5457890000000 1.0
C      1  0.6293590000000  0.4774350000000  0.5787190000000 1.0
C      1  0.6293580000000  0.4181650000000  0.5028630000000 1.0
C      1  0.5396150000000  0.2690460000000  0.4717100000000 1.0
C      1  0.5396120000000  0.4017280000000  0.7109100000000 1.0
C      1  0.5396150000000  0.6702160000000  0.6586460000000 1.0
C      1  0.5396110000000  0.7034780000000  0.3871320000000 1.0
C      1  0.5396190000000  0.4555380000000  0.2715980000000 1.0
C      1  0.4603850000000  0.2690460000000  0.5282900000000 1.0
C      1  0.4603880000000  0.4017280000000  0.2890900000000 1.0
C      1  0.4603850000000  0.6702160000000  0.3413540000000 1.0
C      1  0.4603890000000  0.7034780000000  0.6128680000000 1.0
C      1  0.4603810000000  0.4555380000000  0.7284020000000 1.0
C      1  0.3807120000000  0.3180130000000  0.4917250000000 1.0
C      1  0.3807120000000  0.4358930000000  0.6705260000000 1.0
C      1  0.3807170000000  0.6423690000000  0.6136670000000 1.0
C      1  0.3807140000000  0.6520980000000  0.3997210000000 1.0
C      1  0.3807160000000  0.4516370000000  0.3243580000000 1.0
C      1  0.6192880000000  0.3180130000000  0.5082750000000 1.0
C      1  0.6192880000000  0.4358930000000  0.3294740000000 1.0
C      1  0.6192830000000  0.6423690000000  0.3863330000000 1.0
C      1  0.6192860000000  0.6520980000000  0.6002790000000 1.0
C      1  0.6192840000000  0.4516370000000  0.6756420000000 1.0
C      1  0.4735560000000  0.2301510000000  0.6166460000000 1.0
C      1  0.4735460000000  0.5275470000000  0.7927010000000 1.0
C      1  0.4735560000000  0.7868760000000  0.5642420000000 1.0
C      1  0.4735580000000  0.6497370000000  0.2470130000000 1.0
C      1  0.4735530000000  0.3056760000000  0.2794110000000 1.0
C      1  0.5264440000000  0.2301510000000  0.3833540000000 1.0
C      1  0.5264540000000  0.5275470000000  0.2072990000000 1.0
C      1  0.5264440000000  0.7868760000000  0.4357580000000 1.0
C      1  0.5264420000000  0.6497370000000  0.7529870000000 1.0
C      1  0.5264470000000  0.3056760000000  0.7205890000000 1.0
C      1  0.5655390000000  0.2432650000000  0.6540540000000 1.0
C      1  0.5655280000000  0.5671760000000  0.7917940000000 1.0
C      1  0.5655360000000  0.7982600000000  0.5262690000000 1.0
C      1  0.5655410000000  0.6171470000000  0.2244510000000 1.0
C      1  0.5655340000000  0.2741470000000  0.3034390000000 1.0
C      1  0.4344610000000  0.2432650000000  0.3459460000000 1.0
C      1  0.4344720000000  0.5671760000000  0.2082060000000 1.0
C      1  0.4344640000000  0.7982600000000  0.4737310000000 1.0
C      1  0.4344590000000  0.6171470000000  0.7755490000000 1.0
C      1  0.4344660000000  0.2741470000000  0.6965610000000 1.0
C      1  0.6399150000000  0.3409860000000  0.3131630000000 1.0
C      1  0.6399210000000  0.2731670000000  0.5934930000000 1.0
C      1  0.6399090000000  0.5188200000000  0.7446350000000 1.0
C      1  0.6399140000000  0.7384670000000  0.5576900000000 1.0
C      1  0.6399160000000  0.6285540000000  0.2910310000000 1.0
C      1  0.3600850000000  0.3409860000000  0.6868370000000 1.0
C      1  0.3600790000000  0.2731670000000  0.4065070000000 1.0
C      1  0.3600910000000  0.5188200000000  0.2553650000000 1.0
C      1  0.3600860000000  0.7384670000000  0.4423100000000 1.0
C      1  0.3600840000000  0.6285540000000  0.7089690000000 1.0
END
