TITL C-1525613-7943-7160 0.0861369412855329 3375 -8945.12600671953 0 0 60 (C2) n - 1
REM
REM in /home/nfs/bkarasulu/CARBON/AIRSS/Generating-Clusters/ReaxFF-fromJPCA2015/Units_Real/Try2-Higher-symm/Only-C60
REM
REM
REM
REM
REM
REM ./C.cell (863b2abdce7293c0672fb3ba77bf323a)
REM AIRSS Version 0.9.1 bugfix July 2018 build 013d7b7c2542+ Fri, 06 Jul 2018 19:26:36 +0100
REM compiler GCC version 9.2.1 20190827 (Red Hat 9.2.1-1)
REM options -cpp -mtune=generic -march=x86-64 -g -O0 -fpre-include=/usr/include/finclude/math-vector-fortran.h
REM seed -989247428 1376567777 910659786 742570578 -593295581 1522741198 1488452472 -2013146032 911550130 -1725142358 -1926706459 1961298576 2105364907 285176755 1657282581 -1032406919 1902369397 2108086796 -1607797349 2050177593 773159210 -913193115 1980830027 -545837942 763880349 -2144097459 1589708102 -173014949 181864682 -1496707384 -1403563458 -450703796 -1891512251
REM
CELL 1.54180   15.00000   15.00000   15.00000   90.00000   90.00000   90.00000
LATT -1
SFAC C  
C      1  0.7632330000000  0.3791760000000  0.4562220000000 1.0
C      1  0.6969920000000  0.6898110000000  0.4299440000000 1.0
C      1  0.3673980000000  0.7445240000000  0.4598630000000 1.0
C      1  0.2205240000000  0.4643770000000  0.4353490000000 1.0
C      1  0.4568460000000  0.2299950000000  0.4456300000000 1.0
C      1  0.2367730000000  0.3791760000000  0.5437760000000 1.0
C      1  0.3030070000000  0.6898080000000  0.5700540000000 1.0
C      1  0.6326000000000  0.7445230000000  0.5401370000000 1.0
C      1  0.7794840000000  0.4643800000000  0.5646480000000 1.0
C      1  0.5431500000000  0.2299930000000  0.5543720000000 1.0
C      1  0.2033430000000  0.5509890000000  0.5872890000000 1.0
C      1  0.3781100000000  0.2996460000000  0.5748010000000 1.0
C      1  0.6793720000000  0.3184130000000  0.5882660000000 1.0
C      1  0.7652410000000  0.6339660000000  0.5794470000000 1.0
C      1  0.4799210000000  0.7262960000000  0.5876280000000 1.0
C      1  0.7966490000000  0.5509890000000  0.4127100000000 1.0
C      1  0.6218860000000  0.2996450000000  0.4251950000000 1.0
C      1  0.3206370000000  0.3184240000000  0.4117460000000 1.0
C      1  0.2347630000000  0.6339610000000  0.4205540000000 1.0
C      1  0.5200770000000  0.7262990000000  0.4123670000000 1.0
C      1  0.5693930000000  0.7144870000000  0.6109590000000 1.0
C      1  0.2793400000000  0.6049620000000  0.6159040000000 1.0
C      1  0.3149750000000  0.3623900000000  0.6031490000000 1.0
C      1  0.6050580000000  0.2720010000000  0.6197810000000 1.0
C      1  0.7469150000000  0.5448720000000  0.6138610000000 1.0
C      1  0.4306060000000  0.7144970000000  0.3890400000000 1.0
C      1  0.7206510000000  0.6049740000000  0.3840870000000 1.0
C      1  0.6850280000000  0.3623890000000  0.3968550000000 1.0
C      1  0.3949410000000  0.2720000000000  0.3802160000000 1.0
C      1  0.2530860000000  0.5448710000000  0.3861360000000 1.0
C      1  0.4415980000000  0.4450400000000  0.6000520000000 1.0
C      1  0.5316000000000  0.4175500000000  0.6385160000000 1.0
C      1  0.5937560000000  0.4894670000000  0.6066970000000 1.0
C      1  0.5299380000000  0.5633110000000  0.5936950000000 1.0
C      1  0.4340090000000  0.5419520000000  0.5864560000000 1.0
C      1  0.5584100000000  0.4450290000000  0.3999490000000 1.0
C      1  0.4684000000000  0.4175470000000  0.3614910000000 1.0
C      1  0.4062470000000  0.4894720000000  0.3933000000000 1.0
C      1  0.4700550000000  0.5633320000000  0.4063230000000 1.0
C      1  0.5659910000000  0.5419420000000  0.4135440000000 1.0
C      1  0.4420950000000  0.2367650000000  0.5432700000000 1.0
C      1  0.7518060000000  0.3662470000000  0.5549210000000 1.0
C      1  0.7217730000000  0.7049640000000  0.5243930000000 1.0
C      1  0.3920000000000  0.7378290000000  0.5574290000000 1.0
C      1  0.1959990000000  0.4686640000000  0.5305990000000 1.0
C      1  0.5579000000000  0.2367670000000  0.4567340000000 1.0
C      1  0.2481900000000  0.3662410000000  0.4450760000000 1.0
C      1  0.2782280000000  0.7049640000000  0.4756080000000 1.0
C      1  0.6079990000000  0.7378290000000  0.4425710000000 1.0
C      1  0.8040090000000  0.4686560000000  0.4694070000000 1.0
C      1  0.6548610000000  0.5499390000000  0.6545210000000 1.0
C      1  0.5864530000000  0.6212480000000  0.6483220000000 1.0
C      1  0.3532370000000  0.5425130000000  0.6437350000000 1.0
C      1  0.3570470000000  0.4440720000000  0.6484900000000 1.0
C      1  0.5533970000000  0.3345220000000  0.6841880000000 1.0
C      1  0.3451450000000  0.5499400000000  0.3454730000000 1.0
C      1  0.4135440000000  0.6212550000000  0.3516760000000 1.0
C      1  0.6467570000000  0.5425130000000  0.3562640000000 1.0
C      1  0.6429600000000  0.4440720000000  0.3515070000000 1.0
C      1  0.4465970000000  0.3345240000000  0.3158090000000 1.0
END
