TITL C-1525613-7943-7655 0.166490078101992 3375 -8708.03858030016 0 0 60 (S10) n - 1
REM
REM in /home/nfs/bkarasulu/CARBON/AIRSS/Generating-Clusters/ReaxFF-fromJPCA2015/Units_Real/Try2-Higher-symm/Only-C60
REM
REM
REM
REM
REM
REM ./C.cell (863b2abdce7293c0672fb3ba77bf323a)
REM AIRSS Version 0.9.1 bugfix July 2018 build 013d7b7c2542+ Fri, 06 Jul 2018 19:26:36 +0100
REM compiler GCC version 9.2.1 20190827 (Red Hat 9.2.1-1)
REM options -cpp -mtune=generic -march=x86-64 -g -O0 -fpre-include=/usr/include/finclude/math-vector-fortran.h
REM seed -1584070735 -1241359935 1729977158 99120757 1708374101 -601586070 1732616088 672973825 -1831892480 936231585 -353507507 -1324122870 1136370287 -488242649 -942140765 -871608657 2081858583 78127017 -904503871 249039181 -397940065 -1071731657 -551213301 -841087719 -1609860435 715338623 -928451897 -1537896208 -1584741264 1331645868 38738665 -1229780673 1808681742
REM
CELL 1.54180   15.00000   15.00000   15.00000   90.00000   90.00000   90.00000
LATT -1
SFAC C  
C      1  0.5942570000000  0.7177020000000  0.4417710000000 1.0
C      1  0.4062360000000  0.6415670000000  0.3244390000000 1.0
C      1  0.5941390000000  0.5122750000000  0.2748230000000 1.0
C      1  0.4057170000000  0.3769460000000  0.3111600000000 1.0
C      1  0.5937760000000  0.2893120000000  0.4194770000000 1.0
C      1  0.4057430000000  0.2822980000000  0.5582290000000 1.0
C      1  0.5937640000000  0.3584330000000  0.6755610000000 1.0
C      1  0.4058610000000  0.4877250000000  0.7251770000000 1.0
C      1  0.5942830000000  0.6230540000000  0.6888400000000 1.0
C      1  0.4062240000000  0.7106880000000  0.5805230000000 1.0
C      1  0.6378560000000  0.4465130000000  0.3344690000000 1.0
C      1  0.3624120000000  0.3588380000000  0.3981560000000 1.0
C      1  0.6379880000000  0.3260270000000  0.4998080000000 1.0
C      1  0.3623830000000  0.3594030000000  0.6028000000000 1.0
C      1  0.6377530000000  0.4464660000000  0.6654190000000 1.0
C      1  0.3621440000000  0.5534870000000  0.6655310000000 1.0
C      1  0.6375880000000  0.6411620000000  0.6018440000000 1.0
C      1  0.3620120000000  0.6739730000000  0.5001920000000 1.0
C      1  0.6376170000000  0.6405970000000  0.3972000000000 1.0
C      1  0.3622470000000  0.5535340000000  0.3345810000000 1.0
C      1  0.6755980000000  0.5676610000000  0.5496470000000 1.0
C      1  0.3243390000000  0.5839270000000  0.5007220000000 1.0
C      1  0.6755780000000  0.5684950000000  0.4511600000000 1.0
C      1  0.3243480000000  0.5263700000000  0.4204630000000 1.0
C      1  0.6756450000000  0.4749090000000  0.4198230000000 1.0
C      1  0.3244020000000  0.4323390000000  0.4503530000000 1.0
C      1  0.6756610000000  0.4160730000000  0.4992780000000 1.0
C      1  0.3244220000000  0.4315050000000  0.5488400000000 1.0
C      1  0.6756520000000  0.4736300000000  0.5795370000000 1.0
C      1  0.3243550000000  0.5250910000000  0.5801770000000 1.0
C      1  0.5255210000000  0.5643750000000  0.3906930000000 1.0
C      1  0.4743670000000  0.4874970000000  0.3740480000000 1.0
C      1  0.5258430000000  0.4157130000000  0.4051680000000 1.0
C      1  0.4745050000000  0.3760670000000  0.4726580000000 1.0
C      1  0.5258440000000  0.3838150000000  0.5506160000000 1.0
C      1  0.4744790000000  0.4356250000000  0.6093070000000 1.0
C      1  0.5256330000000  0.5125030000000  0.6259520000000 1.0
C      1  0.4741570000000  0.5842870000000  0.5948320000000 1.0
C      1  0.5254950000000  0.6239330000000  0.5273420000000 1.0
C      1  0.4741560000000  0.6161850000000  0.4493840000000 1.0
C      1  0.4883500000000  0.2470400000000  0.5864790000000 1.0
C      1  0.5110700000000  0.3464780000000  0.7186240000000 1.0
C      1  0.4885450000000  0.5039470000000  0.7671770000000 1.0
C      1  0.5115790000000  0.6602600000000  0.7137750000000 1.0
C      1  0.4889050000000  0.7552840000000  0.5783290000000 1.0
C      1  0.5116500000000  0.7529600000000  0.4135210000000 1.0
C      1  0.4889300000000  0.6535220000000  0.2813760000000 1.0
C      1  0.5114550000000  0.4960530000000  0.2328230000000 1.0
C      1  0.4884210000000  0.3397400000000  0.2862250000000 1.0
C      1  0.5110950000000  0.2447160000000  0.4216710000000 1.0
C      1  0.5783860000000  0.5178750000000  0.7121820000000 1.0
C      1  0.4211800000000  0.6392930000000  0.6618520000000 1.0
C      1  0.5789050000000  0.7068140000000  0.5483120000000 1.0
C      1  0.4214120000000  0.6968150000000  0.4174080000000 1.0
C      1  0.5787150000000  0.6099980000000  0.3185470000000 1.0
C      1  0.4216140000000  0.4821250000000  0.2878180000000 1.0
C      1  0.5788200000000  0.3607070000000  0.3381480000000 1.0
C      1  0.4210950000000  0.2931860000000  0.4516880000000 1.0
C      1  0.5785880000000  0.3031850000000  0.5825920000000 1.0
C      1  0.4212850000000  0.3900020000000  0.6814530000000 1.0
END
