TITL C-1525613-7943-4951 -0.000317335999329727 3375 -8415.56877460498 0 0 60 (Cs) n - 1
REM
REM in /home/nfs/bkarasulu/CARBON/AIRSS/Generating-Clusters/ReaxFF-fromJPCA2015/Units_Real/Try2-Higher-symm/Only-C60
REM
REM
REM
REM
REM
REM ./C.cell (863b2abdce7293c0672fb3ba77bf323a)
REM AIRSS Version 0.9.1 bugfix July 2018 build 013d7b7c2542+ Fri, 06 Jul 2018 19:26:36 +0100
REM compiler GCC version 9.2.1 20190827 (Red Hat 9.2.1-1)
REM options -cpp -mtune=generic -march=x86-64 -g -O0 -fpre-include=/usr/include/finclude/math-vector-fortran.h
REM seed 1542413855 1925626838 1134212065 1959319868 -1501628588 1017187680 1200924650 -292298784 605891088 -1152833350 491484266 -1107295316 -1924147817 508965993 -434185098 -304394602 -1756917258 -1341853727 627954841 759137814 -2017034354 1052346767 -1898427962 547056760 -1300491685 -1112405312 1652348153 -46926771 200077566 -182866796 -424202129 -1080465836 -99165217
REM
CELL 1.54180   15.00000   15.00000   15.00000   90.00000   90.00000   90.00000
LATT -1
SFAC C  
C      1  0.4607700000000  0.2628270000000  0.3922740000000 1.0
C      1  0.5867300000000  0.2639810000000  0.4323050000000 1.0
C      1  0.5935300000000  0.2626170000000  0.5643740000000 1.0
C      1  0.4695840000000  0.2629980000000  0.6087160000000 1.0
C      1  0.3894910000000  0.2636000000000  0.5033740000000 1.0
C      1  0.4607700000000  0.7371730000000  0.3922740000000 1.0
C      1  0.5867300000000  0.7360190000000  0.4323050000000 1.0
C      1  0.5935300000000  0.7373830000000  0.5643740000000 1.0
C      1  0.4695840000000  0.7370020000000  0.6087160000000 1.0
C      1  0.3894910000000  0.7364000000000  0.5033740000000 1.0
C      1  0.3636920000000  0.3855390000000  0.4000570000000 1.0
C      1  0.5543570000000  0.3853330000000  0.3396030000000 1.0
C      1  0.6635140000000  0.3875480000000  0.5018590000000 1.0
C      1  0.5515780000000  0.3844020000000  0.6621100000000 1.0
C      1  0.3680480000000  0.3877370000000  0.5954210000000 1.0
C      1  0.3636920000000  0.6144610000000  0.4000570000000 1.0
C      1  0.5543570000000  0.6146670000000  0.3396030000000 1.0
C      1  0.6635140000000  0.6124520000000  0.5018590000000 1.0
C      1  0.5515780000000  0.6155980000000  0.6621100000000 1.0
C      1  0.3680480000000  0.6122630000000  0.5954210000000 1.0
C      1  0.5281590000000  0.4256720000000  0.4254330000000 1.0
C      1  0.5791570000000  0.4254960000000  0.5021910000000 1.0
C      1  0.5233200000000  0.4245800000000  0.5762230000000 1.0
C      1  0.4359330000000  0.4255580000000  0.5451520000000 1.0
C      1  0.4364050000000  0.4255750000000  0.4529360000000 1.0
C      1  0.5281590000000  0.5743280000000  0.4254330000000 1.0
C      1  0.5791570000000  0.5745040000000  0.5021910000000 1.0
C      1  0.5233200000000  0.5754200000000  0.5762230000000 1.0
C      1  0.4359330000000  0.5744420000000  0.5451520000000 1.0
C      1  0.4364050000000  0.5744250000000  0.4529360000000 1.0
C      1  0.3400900000000  0.5525740000000  0.6684650000000 1.0
C      1  0.2873580000000  0.5532280000000  0.3962400000000 1.0
C      1  0.5325300000000  0.5532720000000  0.2665300000000 1.0
C      1  0.7289730000000  0.5526020000000  0.4592520000000 1.0
C      1  0.6100290000000  0.5534340000000  0.7098510000000 1.0
C      1  0.3400900000000  0.4474260000000  0.6684650000000 1.0
C      1  0.2873580000000  0.4467720000000  0.3962400000000 1.0
C      1  0.5325300000000  0.4467280000000  0.2665300000000 1.0
C      1  0.7289730000000  0.4473980000000  0.4592520000000 1.0
C      1  0.6100290000000  0.4465660000000  0.7098510000000 1.0
C      1  0.3916580000000  0.7067040000000  0.5850080000000 1.0
C      1  0.3834530000000  0.7099290000000  0.4209500000000 1.0
C      1  0.5385330000000  0.7098060000000  0.3650750000000 1.0
C      1  0.6378970000000  0.7068170000000  0.4961600000000 1.0
C      1  0.5486610000000  0.7110680000000  0.6339590000000 1.0
C      1  0.3916580000000  0.2932960000000  0.5850080000000 1.0
C      1  0.3834530000000  0.2900710000000  0.4209500000000 1.0
C      1  0.5385330000000  0.2901940000000  0.3650750000000 1.0
C      1  0.6378970000000  0.2931830000000  0.4961600000000 1.0
C      1  0.5486610000000  0.2889320000000  0.6339590000000 1.0
C      1  0.2964630000000  0.5451020000000  0.3031910000000 1.0
C      1  0.6232560000000  0.5450950000000  0.2440770000000 1.0
C      1  0.7749100000000  0.5453740000000  0.5411090000000 1.0
C      1  0.5471430000000  0.5450990000000  0.7788530000000 1.0
C      1  0.2547780000000  0.5453750000000  0.6292520000000 1.0
C      1  0.2964630000000  0.4548980000000  0.3031910000000 1.0
C      1  0.6232560000000  0.4549050000000  0.2440770000000 1.0
C      1  0.7749100000000  0.4546260000000  0.5411090000000 1.0
C      1  0.5471430000000  0.4549010000000  0.7788530000000 1.0
C      1  0.2547780000000  0.4546250000000  0.6292520000000 1.0
END
