TITL C-1525613-7943-7546 0.00846510753608981 3375 -9326.38914102328 0 0 60 (C5) n - 1
REM
REM in /home/nfs/bkarasulu/CARBON/AIRSS/Generating-Clusters/ReaxFF-fromJPCA2015/Units_Real/Try2-Higher-symm/Only-C60
REM
REM
REM
REM
REM
REM ./C.cell (863b2abdce7293c0672fb3ba77bf323a)
REM AIRSS Version 0.9.1 bugfix July 2018 build 013d7b7c2542+ Fri, 06 Jul 2018 19:26:36 +0100
REM compiler GCC version 9.2.1 20190827 (Red Hat 9.2.1-1)
REM options -cpp -mtune=generic -march=x86-64 -g -O0 -fpre-include=/usr/include/finclude/math-vector-fortran.h
REM seed 298170430 1314785611 1558525513 1327134336 580052795 -1750654359 -535214148 -1378855422 -2007071803 1998676391 -51771708 -1188399213 -440339223 -491289275 -384638755 1962627408 -75636808 78057690 -594943193 -1151701052 -484373906 -1733051350 -2039603040 -397599940 -1443285640 487019133 1508382439 -649386535 123625362 366954323 1345841712 -17431958 48145020
REM
CELL 1.54180   15.00000   15.00000   15.00000   90.00000   90.00000   90.00000
LATT -1
SFAC C  
C      1  0.5475850000000  0.2554810000000  0.6170770000000 1.0
C      1  0.5476390000000  0.3130820000000  0.3036540000000 1.0
C      1  0.5473180000000  0.6290130000000  0.2617250000000 1.0
C      1  0.5475410000000  0.7666860000000  0.5490010000000 1.0
C      1  0.5474650000000  0.5358290000000  0.7685680000000 1.0
C      1  0.5475970000000  0.2554690000000  0.3829630000000 1.0
C      1  0.5476020000000  0.3131280000000  0.6963660000000 1.0
C      1  0.5473050000000  0.6290550000000  0.7383020000000 1.0
C      1  0.5475560000000  0.7666760000000  0.4510030000000 1.0
C      1  0.5474440000000  0.5357870000000  0.2314630000000 1.0
C      1  0.6160240000000  0.6575690000000  0.6749290000000 1.0
C      1  0.6163230000000  0.3822050000000  0.7039140000000 1.0
C      1  0.6163700000000  0.2695080000000  0.4509590000000 1.0
C      1  0.6162200000000  0.4755120000000  0.2659250000000 1.0
C      1  0.6164810000000  0.7155340000000  0.4042390000000 1.0
C      1  0.6160230000000  0.6575230000000  0.3251160000000 1.0
C      1  0.6163880000000  0.3821450000000  0.2960700000000 1.0
C      1  0.6163580000000  0.2695310000000  0.5490730000000 1.0
C      1  0.6162480000000  0.4755490000000  0.7341280000000 1.0
C      1  0.6164790000000  0.7155610000000  0.5957900000000 1.0
C      1  0.4500990000000  0.6251500000000  0.2677070000000 1.0
C      1  0.4503550000000  0.7591090000000  0.5473560000000 1.0
C      1  0.4502770000000  0.5351700000000  0.7614570000000 1.0
C      1  0.4503750000000  0.2622710000000  0.6142400000000 1.0
C      1  0.4504150000000  0.3179110000000  0.3091730000000 1.0
C      1  0.4500970000000  0.6251280000000  0.7322660000000 1.0
C      1  0.4503710000000  0.7590960000000  0.4526700000000 1.0
C      1  0.4502670000000  0.5351870000000  0.2385530000000 1.0
C      1  0.4504100000000  0.2623390000000  0.3857700000000 1.0
C      1  0.4503960000000  0.3179020000000  0.6907860000000 1.0
C      1  0.3862450000000  0.6535680000000  0.6696240000000 1.0
C      1  0.3868570000000  0.3865050000000  0.6981420000000 1.0
C      1  0.3868570000000  0.2765860000000  0.4532560000000 1.0
C      1  0.3867000000000  0.4753620000000  0.2727180000000 1.0
C      1  0.3868630000000  0.7078250000000  0.4064600000000 1.0
C      1  0.3862310000000  0.6536260000000  0.3303650000000 1.0
C      1  0.3868410000000  0.3865620000000  0.3017800000000 1.0
C      1  0.3867890000000  0.2764800000000  0.5466930000000 1.0
C      1  0.3867190000000  0.4752960000000  0.7272210000000 1.0
C      1  0.3868430000000  0.7078250000000  0.5935710000000 1.0
C      1  0.3235950000000  0.5005090000000  0.3415610000000 1.0
C      1  0.3240390000000  0.6501320000000  0.4516370000000 1.0
C      1  0.3231090000000  0.5926670000000  0.6285970000000 1.0
C      1  0.3238560000000  0.4066800000000  0.6276980000000 1.0
C      1  0.3239010000000  0.3498850000000  0.4506290000000 1.0
C      1  0.3236280000000  0.5004460000000  0.6583690000000 1.0
C      1  0.3240220000000  0.6501240000000  0.5483750000000 1.0
C      1  0.3230870000000  0.5927170000000  0.3713860000000 1.0
C      1  0.3238390000000  0.4067360000000  0.3722340000000 1.0
C      1  0.3238070000000  0.3498100000000  0.5492910000000 1.0
C      1  0.6751920000000  0.5926980000000  0.3714540000000 1.0
C      1  0.6757640000000  0.6515450000000  0.5484030000000 1.0
C      1  0.6754790000000  0.5007530000000  0.6585680000000 1.0
C      1  0.6755830000000  0.3491890000000  0.5497260000000 1.0
C      1  0.6756100000000  0.4060820000000  0.3720550000000 1.0
C      1  0.6751980000000  0.5927340000000  0.6286050000000 1.0
C      1  0.6757600000000  0.6515280000000  0.4516440000000 1.0
C      1  0.6754320000000  0.5007200000000  0.3414920000000 1.0
C      1  0.6756000000000  0.3491620000000  0.4502780000000 1.0
C      1  0.6755260000000  0.4061420000000  0.6279220000000 1.0
END
