TITL C-1525613-7943-6787 0.00342821963474577 3375 -8826.46897101449 0 0 60 (C1) n - 1
REM
REM in /home/nfs/bkarasulu/CARBON/AIRSS/Generating-Clusters/ReaxFF-fromJPCA2015/Units_Real/Try2-Higher-symm/Only-C60
REM
REM
REM
REM
REM
REM ./C.cell (863b2abdce7293c0672fb3ba77bf323a)
REM AIRSS Version 0.9.1 bugfix July 2018 build 013d7b7c2542+ Fri, 06 Jul 2018 19:26:36 +0100
REM compiler GCC version 9.2.1 20190827 (Red Hat 9.2.1-1)
REM options -cpp -mtune=generic -march=x86-64 -g -O0 -fpre-include=/usr/include/finclude/math-vector-fortran.h
REM seed -2046187613 537780597 1385448184 1772275053 -684483472 -837387056 -504597617 -1069084322 -1625356945 316820680 369821117 1311984130 616375543 1470995164 -1088514042 1345262437 1936589867 -533808780 1301596436 563784889 1323382071 -1193900046 -506133605 1507898906 -1114517436 -841907564 1103579014 1317614778 672181047 -286636073 -2009058815 -1241203855 -2033985172
REM
CELL 1.54180   15.00000   15.00000   15.00000   90.00000   90.00000   90.00000
LATT -1
SFAC C  
C      1  0.4385080000000  0.5468010000000  0.2444040000000 1.0
C      1  0.4279350000000  0.3845960000000  0.2616750000000 1.0
C      1  0.4369560000000  0.2747320000000  0.3785950000000 1.0
C      1  0.4298550000000  0.2401800000000  0.5315100000000 1.0
C      1  0.4343360000000  0.3092960000000  0.6769470000000 1.0
C      1  0.4387570000000  0.4539060000000  0.7565040000000 1.0
C      1  0.4277900000000  0.6159580000000  0.7381940000000 1.0
C      1  0.4370370000000  0.7253880000000  0.6207550000000 1.0
C      1  0.4297620000000  0.7598410000000  0.4685380000000 1.0
C      1  0.4327960000000  0.6917580000000  0.3228220000000 1.0
C      1  0.7227460000000  0.3547720000000  0.5484520000000 1.0
C      1  0.7191870000000  0.4121000000000  0.6303570000000 1.0
C      1  0.7364350000000  0.5028070000000  0.6303590000000 1.0
C      1  0.7272420000000  0.5952840000000  0.6272230000000 1.0
C      1  0.7199350000000  0.6542710000000  0.5466540000000 1.0
C      1  0.7214790000000  0.6447420000000  0.4508910000000 1.0
C      1  0.7196360000000  0.5860630000000  0.3713600000000 1.0
C      1  0.7387200000000  0.4960430000000  0.3718100000000 1.0
C      1  0.7295500000000  0.4042550000000  0.3729960000000 1.0
C      1  0.7196900000000  0.3436620000000  0.4530620000000 1.0
C      1  0.5866260000000  0.5054100000000  0.3407670000000 1.0
C      1  0.6299450000000  0.4096290000000  0.3694220000000 1.0
C      1  0.6191650000000  0.3483110000000  0.4495040000000 1.0
C      1  0.6260730000000  0.3497940000000  0.5508510000000 1.0
C      1  0.6166950000000  0.3997100000000  0.6369350000000 1.0
C      1  0.5877780000000  0.4932000000000  0.6614290000000 1.0
C      1  0.6281950000000  0.5898370000000  0.6305850000000 1.0
C      1  0.6205560000000  0.6516220000000  0.5501060000000 1.0
C      1  0.6263460000000  0.6519760000000  0.4474290000000 1.0
C      1  0.6162230000000  0.5997550000000  0.3593960000000 1.0
C      1  0.5082710000000  0.3734690000000  0.3144770000000 1.0
C      1  0.5241820000000  0.3213580000000  0.3833770000000 1.0
C      1  0.5081990000000  0.2870270000000  0.5593720000000 1.0
C      1  0.5227380000000  0.3278800000000  0.6350800000000 1.0
C      1  0.5160890000000  0.4746310000000  0.7075430000000 1.0
C      1  0.5084670000000  0.6271220000000  0.6857120000000 1.0
C      1  0.5239610000000  0.6785190000000  0.6161080000000 1.0
C      1  0.5078950000000  0.7126590000000  0.4397340000000 1.0
C      1  0.5208910000000  0.6718460000000  0.3640020000000 1.0
C      1  0.5174190000000  0.5278430000000  0.2930580000000 1.0
C      1  0.3297070000000  0.4800670000000  0.3437650000000 1.0
C      1  0.3262030000000  0.3918570000000  0.3845900000000 1.0
C      1  0.3330780000000  0.3470150000000  0.4700580000000 1.0
C      1  0.3266740000000  0.3571550000000  0.5662650000000 1.0
C      1  0.3315900000000  0.4235600000000  0.6370280000000 1.0
C      1  0.3298090000000  0.5199100000000  0.6565720000000 1.0
C      1  0.3259340000000  0.6080330000000  0.6156680000000 1.0
C      1  0.3326410000000  0.6529820000000  0.5302710000000 1.0
C      1  0.3260270000000  0.6430040000000  0.4341010000000 1.0
C      1  0.3313270000000  0.5764590000000  0.3634760000000 1.0
C      1  0.3858690000000  0.2688120000000  0.4549990000000 1.0
C      1  0.3758800000000  0.2801840000000  0.6026820000000 1.0
C      1  0.3846240000000  0.3858180000000  0.7092820000000 1.0
C      1  0.3801020000000  0.5309280000000  0.7391120000000 1.0
C      1  0.3762150000000  0.6690130000000  0.6746950000000 1.0
C      1  0.3853140000000  0.7313580000000  0.5448080000000 1.0
C      1  0.3750000000000  0.7203110000000  0.3978950000000 1.0
C      1  0.3836270000000  0.6145760000000  0.2907990000000 1.0
C      1  0.3801290000000  0.4696520000000  0.2610510000000 1.0
C      1  0.3761850000000  0.3312520000000  0.3248880000000 1.0
END
