TITL C-1525613-7943-6345 0.0218350877060229 3375 -8581.36442182907 0 0 60 (C5) n - 1
REM
REM in /home/nfs/bkarasulu/CARBON/AIRSS/Generating-Clusters/ReaxFF-fromJPCA2015/Units_Real/Try2-Higher-symm/Only-C60
REM
REM
REM
REM
REM
REM ./C.cell (863b2abdce7293c0672fb3ba77bf323a)
REM AIRSS Version 0.9.1 bugfix July 2018 build 013d7b7c2542+ Fri, 06 Jul 2018 19:26:36 +0100
REM compiler GCC version 9.2.1 20190827 (Red Hat 9.2.1-1)
REM options -cpp -mtune=generic -march=x86-64 -g -O0 -fpre-include=/usr/include/finclude/math-vector-fortran.h
REM seed -1452916474 1563361111 -1720926157 -756164983 -2001039905 56849897 489508121 -1667457315 1231639475 153928542 1809509777 1088294188 168528701 -315933026 -1990063840 -665068546 823282412 1707474988 -91977892 1781188804 185395496 -1747536808 -880911043 -1407460648 100921033 -364318328 -1978756710 -1107367561 279315629 62230678 -1247382650 -2144705867 1557654038
REM
CELL 1.54180   15.00000   15.00000   15.00000   90.00000   90.00000   90.00000
LATT -1
SFAC C  
C      1  0.6554380000000  0.3667330000000  0.6733480000000 1.0
C      1  0.3831960000000  0.3666810000000  0.7014140000000 1.0
C      1  0.2723270000000  0.3664490000000  0.4511630000000 1.0
C      1  0.4761470000000  0.3666530000000  0.2684230000000 1.0
C      1  0.7129390000000  0.3666690000000  0.4057290000000 1.0
C      1  0.6554300000000  0.3666950000000  0.3266780000000 1.0
C      1  0.3831870000000  0.3666380000000  0.2986580000000 1.0
C      1  0.2722620000000  0.3664190000000  0.5488510000000 1.0
C      1  0.4760840000000  0.3667130000000  0.7315150000000 1.0
C      1  0.7128800000000  0.3666790000000  0.5943080000000 1.0
C      1  0.3529670000000  0.6849200000000  0.4518030000000 1.0
C      1  0.5003920000000  0.6848510000000  0.3452960000000 1.0
C      1  0.6472450000000  0.6849880000000  0.4525920000000 1.0
C      1  0.5905880000000  0.6847060000000  0.6254040000000 1.0
C      1  0.4087090000000  0.6850180000000  0.6249130000000 1.0
C      1  0.3529820000000  0.6849420000000  0.5482440000000 1.0
C      1  0.5004300000000  0.6848120000000  0.6547080000000 1.0
C      1  0.6472590000000  0.6849180000000  0.5473710000000 1.0
C      1  0.5905530000000  0.6847960000000  0.3745750000000 1.0
C      1  0.4086780000000  0.6850160000000  0.3751120000000 1.0
C      1  0.7540310000000  0.4421990000000  0.4524960000000 1.0
C      1  0.6238380000000  0.4422200000000  0.7267740000000 1.0
C      1  0.3225520000000  0.4421280000000  0.6877280000000 1.0
C      1  0.2665670000000  0.4420720000000  0.3893060000000 1.0
C      1  0.5334680000000  0.4422200000000  0.2437280000000 1.0
C      1  0.7540220000000  0.4422010000000  0.5475200000000 1.0
C      1  0.6235260000000  0.4422500000000  0.2729810000000 1.0
C      1  0.3225380000000  0.4421900000000  0.3123660000000 1.0
C      1  0.2664710000000  0.4419760000000  0.6106100000000 1.0
C      1  0.5330730000000  0.4422330000000  0.7562540000000 1.0
C      1  0.8421670000000  0.4976520000000  0.5498950000000 1.0
C      1  0.5584150000000  0.4974170000000  0.8410280000000 1.0
C      1  0.1938680000000  0.4976830000000  0.6606630000000 1.0
C      1  0.2525470000000  0.4977170000000  0.2586960000000 1.0
C      1  0.6532420000000  0.4973700000000  0.1898980000000 1.0
C      1  0.8421990000000  0.4976480000000  0.4501160000000 1.0
C      1  0.5582100000000  0.4973230000000  0.1590200000000 1.0
C      1  0.1939030000000  0.4975810000000  0.3393620000000 1.0
C      1  0.2524800000000  0.4978220000000  0.7412210000000 1.0
C      1  0.6531530000000  0.4974410000000  0.8102770000000 1.0
C      1  0.5003580000000  0.3148540000000  0.6523650000000 1.0
C      1  0.3551280000000  0.3146350000000  0.5473920000000 1.0
C      1  0.4102530000000  0.3147910000000  0.3768510000000 1.0
C      1  0.5893970000000  0.3148390000000  0.3765760000000 1.0
C      1  0.6450670000000  0.3148100000000  0.5468240000000 1.0
C      1  0.5002650000000  0.3147850000000  0.3476200000000 1.0
C      1  0.3551480000000  0.3146690000000  0.4526420000000 1.0
C      1  0.4101700000000  0.3147740000000  0.6231070000000 1.0
C      1  0.5893480000000  0.3148720000000  0.6234420000000 1.0
C      1  0.6450700000000  0.3148330000000  0.4531040000000 1.0
C      1  0.3251780000000  0.6941690000000  0.6881350000000 1.0
C      1  0.2670280000000  0.6940530000000  0.3918900000000 1.0
C      1  0.5308240000000  0.6937890000000  0.2450330000000 1.0
C      1  0.7519840000000  0.6941270000000  0.4505490000000 1.0
C      1  0.6249040000000  0.6936110000000  0.7244090000000 1.0
C      1  0.3251210000000  0.6941370000000  0.3119140000000 1.0
C      1  0.2670610000000  0.6941000000000  0.6081740000000 1.0
C      1  0.5308980000000  0.6937140000000  0.7549640000000 1.0
C      1  0.7519990000000  0.6940590000000  0.5493990000000 1.0
C      1  0.6248390000000  0.6937420000000  0.2755660000000 1.0
END
