TITL C-1525613-7943-2078 0.0830437113905967 3375 -8432.98757773239 0 0 60 (Ci) n - 1
REM
REM in /home/nfs/bkarasulu/CARBON/AIRSS/Generating-Clusters/ReaxFF-fromJPCA2015/Units_Real/Try2-Higher-symm/Only-C60
REM
REM
REM
REM
REM
REM ./C.cell (863b2abdce7293c0672fb3ba77bf323a)
REM AIRSS Version 0.9.1 bugfix July 2018 build 013d7b7c2542+ Fri, 06 Jul 2018 19:26:36 +0100
REM compiler GCC version 9.2.1 20190827 (Red Hat 9.2.1-1)
REM options -cpp -mtune=generic -march=x86-64 -g -O0 -fpre-include=/usr/include/finclude/math-vector-fortran.h
REM seed 731187930 1003853794 -311785 2092017658 356741717 1417143579 -2063027696 1877392305 -1403328635 563730131 542349579 -589876685 -1819348983 361473430 207211698 1001261557 281068123 -1590400028 1661335172 -1867608429 -403234475 -1202307200 -846805814 -2058482363 -1329113908 101893525 -782780133 -389435084 1484969403 444673188 -557462903 -1781090868 -1904029791
REM
CELL 1.54180   15.00000   15.00000   15.00000   90.00000   90.00000   90.00000
LATT -1
SFAC C  
C      1  0.6997240000000  0.5830840000000  0.3928950000000 1.0
C      1  0.2997840000000  0.5032490000000  0.3613380000000 1.0
C      1  0.6989780000000  0.4214470000000  0.3859620000000 1.0
C      1  0.3028460000000  0.3678310000000  0.4526160000000 1.0
C      1  0.7000880000000  0.3654850000000  0.5398600000000 1.0
C      1  0.3002760000000  0.4169160000000  0.6071040000000 1.0
C      1  0.7002140000000  0.4967500000000  0.6386610000000 1.0
C      1  0.3010210000000  0.5785520000000  0.6140370000000 1.0
C      1  0.6971570000000  0.6321690000000  0.5473830000000 1.0
C      1  0.2999060000000  0.6345190000000  0.4601410000000 1.0
C      1  0.2671990000000  0.3469530000000  0.5427560000000 1.0
C      1  0.7330370000000  0.4013030000000  0.6262840000000 1.0
C      1  0.2686060000000  0.4947400000000  0.6598950000000 1.0
C      1  0.7316860000000  0.5913240000000  0.6327110000000 1.0
C      1  0.2665860000000  0.6495190000000  0.5537620000000 1.0
C      1  0.7327980000000  0.6530450000000  0.4572450000000 1.0
C      1  0.2669590000000  0.5986980000000  0.3737150000000 1.0
C      1  0.7313940000000  0.5052580000000  0.3401060000000 1.0
C      1  0.2683120000000  0.4086780000000  0.3672870000000 1.0
C      1  0.7334130000000  0.3504810000000  0.4462380000000 1.0
C      1  0.4008740000000  0.6347600000000  0.3482520000000 1.0
C      1  0.5988750000000  0.5175840000000  0.2950730000000 1.0
C      1  0.4023680000000  0.3988160000000  0.3239910000000 1.0
C      1  0.6008560000000  0.3120420000000  0.4174820000000 1.0
C      1  0.4010400000000  0.3016690000000  0.5445620000000 1.0
C      1  0.5991260000000  0.3652350000000  0.6517570000000 1.0
C      1  0.4011250000000  0.4824160000000  0.7049270000000 1.0
C      1  0.5976340000000  0.6011840000000  0.6760080000000 1.0
C      1  0.3991510000000  0.6879560000000  0.5825180000000 1.0
C      1  0.5989570000000  0.6983280000000  0.4554400000000 1.0
C      1  0.5181700000000  0.3559210000000  0.4337130000000 1.0
C      1  0.4827570000000  0.3475440000000  0.5314570000000 1.0
C      1  0.5185850000000  0.3962650000000  0.6147990000000 1.0
C      1  0.4815490000000  0.4861910000000  0.6566090000000 1.0
C      1  0.5149170000000  0.5805490000000  0.6387570000000 1.0
C      1  0.4818320000000  0.6440790000000  0.5662880000000 1.0
C      1  0.5172440000000  0.6524580000000  0.4685430000000 1.0
C      1  0.4814160000000  0.6037340000000  0.3852030000000 1.0
C      1  0.5184510000000  0.5138100000000  0.3433920000000 1.0
C      1  0.4850820000000  0.4194520000000  0.3612430000000 1.0
C      1  0.3263860000000  0.7128670000000  0.5922230000000 1.0
C      1  0.6714030000000  0.7252820000000  0.4485290000000 1.0
C      1  0.3254390000000  0.6553160000000  0.3260160000000 1.0
C      1  0.6754610000000  0.5199440000000  0.2638400000000 1.0
C      1  0.3267460000000  0.3846400000000  0.2971370000000 1.0
C      1  0.6736100000000  0.2871340000000  0.4077760000000 1.0
C      1  0.3286000000000  0.2747220000000  0.5514720000000 1.0
C      1  0.6745600000000  0.3446840000000  0.6739850000000 1.0
C      1  0.3245390000000  0.4800560000000  0.7361600000000 1.0
C      1  0.6732540000000  0.6153600000000  0.7028650000000 1.0
C      1  0.6253770000000  0.4979630000000  0.5789270000000 1.0
C      1  0.3827910000000  0.5498800000000  0.5686350000000 1.0
C      1  0.6172530000000  0.5788690000000  0.5264280000000 1.0
C      1  0.3815910000000  0.5819860000000  0.4755860000000 1.0
C      1  0.6172740000000  0.5486930000000  0.4321010000000 1.0
C      1  0.3746250000000  0.5020350000000  0.4210700000000 1.0
C      1  0.6172090000000  0.4501190000000  0.4313660000000 1.0
C      1  0.3827470000000  0.4211290000000  0.4735710000000 1.0
C      1  0.6184170000000  0.4180210000000  0.5244030000000 1.0
C      1  0.3827260000000  0.4513080000000  0.5678990000000 1.0
END
