TITL C-1525613-7943-6520 0.0479767474705698 3375 -9120.32372459486 0 0 60 (C2) n - 1
REM
REM in /home/nfs/bkarasulu/CARBON/AIRSS/Generating-Clusters/ReaxFF-fromJPCA2015/Units_Real/Try2-Higher-symm/Only-C60
REM
REM
REM
REM
REM
REM ./C.cell (863b2abdce7293c0672fb3ba77bf323a)
REM AIRSS Version 0.9.1 bugfix July 2018 build 013d7b7c2542+ Fri, 06 Jul 2018 19:26:36 +0100
REM compiler GCC version 9.2.1 20190827 (Red Hat 9.2.1-1)
REM options -cpp -mtune=generic -march=x86-64 -g -O0 -fpre-include=/usr/include/finclude/math-vector-fortran.h
REM seed -1322835842 -126974768 -1470780149 -433931125 -908477408 -2134961449 348747816 -2131729039 -1266320107 -255900634 -1859342280 -1240695462 -1264109910 -1498088531 848988466 1841077272 -1549148359 -1713107361 1131441009 1198744008 512095841 2120008954 -1461732721 790044031 1066097421 151284951 -746428819 -1920548541 150891440 858262131 732780162 543349175 1617625488
REM
CELL 1.54180   15.00000   15.00000   15.00000   90.00000   90.00000   90.00000
LATT -1
SFAC C  
C      1  0.3899430000000  0.5037000000000  0.7116000000000 1.0
C      1  0.4071070000000  0.2941230000000  0.5664270000000 1.0
C      1  0.4046320000000  0.3746460000000  0.3236600000000 1.0
C      1  0.4044240000000  0.6302990000000  0.3257690000000 1.0
C      1  0.4017260000000  0.7086500000000  0.5695900000000 1.0
C      1  0.6101490000000  0.4962590000000  0.7114310000000 1.0
C      1  0.5930590000000  0.7057810000000  0.5665470000000 1.0
C      1  0.5954360000000  0.6253460000000  0.3237080000000 1.0
C      1  0.5955720000000  0.3696830000000  0.3256920000000 1.0
C      1  0.5981790000000  0.2912680000000  0.5697130000000 1.0
C      1  0.5741630000000  0.7338330000000  0.6490900000000 1.0
C      1  0.5884860000000  0.4288010000000  0.7707620000000 1.0
C      1  0.5786550000000  0.2211290000000  0.5188460000000 1.0
C      1  0.5775540000000  0.3958840000000  0.2425800000000 1.0
C      1  0.5778650000000  0.7128220000000  0.3225320000000 1.0
C      1  0.4258470000000  0.2661080000000  0.6490180000000 1.0
C      1  0.4113850000000  0.5713460000000  0.7707740000000 1.0
C      1  0.4212750000000  0.7788270000000  0.5187890000000 1.0
C      1  0.4224650000000  0.6041020000000  0.2426450000000 1.0
C      1  0.4222230000000  0.2871690000000  0.3224850000000 1.0
C      1  0.6419020000000  0.4395820000000  0.5577440000000 1.0
C      1  0.6414340000000  0.4271660000000  0.4623960000000 1.0
C      1  0.6400920000000  0.5141900000000  0.4206650000000 1.0
C      1  0.6387910000000  0.5804480000000  0.4903310000000 1.0
C      1  0.6395070000000  0.5350100000000  0.5766420000000 1.0
C      1  0.3579900000000  0.5603870000000  0.5576990000000 1.0
C      1  0.3585410000000  0.5727570000000  0.4623500000000 1.0
C      1  0.3599660000000  0.4857860000000  0.4206080000000 1.0
C      1  0.3613220000000  0.4195940000000  0.4902810000000 1.0
C      1  0.3605420000000  0.4649430000000  0.5766260000000 1.0
C      1  0.5282020000000  0.3204630000000  0.1891320000000 1.0
C      1  0.5292990000000  0.7406600000000  0.2339410000000 1.0
C      1  0.5269420000000  0.8275550000000  0.6476500000000 1.0
C      1  0.5289920000000  0.4762430000000  0.8371010000000 1.0
C      1  0.5287160000000  0.1478440000000  0.5748940000000 1.0
C      1  0.4717880000000  0.6796020000000  0.1892440000000 1.0
C      1  0.4707740000000  0.2593420000000  0.2338720000000 1.0
C      1  0.4730940000000  0.1723650000000  0.6478310000000 1.0
C      1  0.4709170000000  0.5238710000000  0.8370940000000 1.0
C      1  0.4711450000000  0.8521250000000  0.5748680000000 1.0
C      1  0.4526310000000  0.5119710000000  0.2642040000000 1.0
C      1  0.4520150000000  0.7287790000000  0.4385320000000 1.0
C      1  0.4463860000000  0.6314720000000  0.6997270000000 1.0
C      1  0.4581870000000  0.3520210000000  0.6859510000000 1.0
C      1  0.4533110000000  0.2790480000000  0.4163300000000 1.0
C      1  0.5474890000000  0.4880620000000  0.2642080000000 1.0
C      1  0.5480690000000  0.2712620000000  0.4385830000000 1.0
C      1  0.5534390000000  0.3686230000000  0.6997810000000 1.0
C      1  0.5416340000000  0.6479270000000  0.6858890000000 1.0
C      1  0.5467650000000  0.7209740000000  0.4163240000000 1.0
C      1  0.3822420000000  0.6360910000000  0.6205820000000 1.0
C      1  0.3897150000000  0.4250220000000  0.6654890000000 1.0
C      1  0.3884130000000  0.3222670000000  0.4823710000000 1.0
C      1  0.3869280000000  0.4633520000000  0.3247540000000 1.0
C      1  0.3863570000000  0.6561130000000  0.4107000000000 1.0
C      1  0.6175880000000  0.3639560000000  0.6206280000000 1.0
C      1  0.6102090000000  0.5749620000000  0.6654310000000 1.0
C      1  0.6116870000000  0.6777940000000  0.4823980000000 1.0
C      1  0.6131800000000  0.5366610000000  0.3248220000000 1.0
C      1  0.6136570000000  0.3439340000000  0.4106690000000 1.0
END
