TITL C-1525613-7943-4048 0.0188790713413436 3375 -8972.14049945074 0 0 60 (C1) n - 1
REM
REM in /home/nfs/bkarasulu/CARBON/AIRSS/Generating-Clusters/ReaxFF-fromJPCA2015/Units_Real/Try2-Higher-symm/Only-C60
REM
REM
REM
REM
REM
REM ./C.cell (863b2abdce7293c0672fb3ba77bf323a)
REM AIRSS Version 0.9.1 bugfix July 2018 build 013d7b7c2542+ Fri, 06 Jul 2018 19:26:36 +0100
REM compiler GCC version 9.2.1 20190827 (Red Hat 9.2.1-1)
REM options -cpp -mtune=generic -march=x86-64 -g -O0 -fpre-include=/usr/include/finclude/math-vector-fortran.h
REM seed 1992299267 -600478074 1415181576 505948479 1033156373 -2071353380 -1494628893 1628012418 1309117882 -1084386507 327236316 -1480798627 -1604261053 -370397934 1899852479 -13492603 -684599772 -25597767 -1754176178 -1967227313 918895193 -1883178446 1480850 -491231770 1551741399 -2055100335 2141046954 -1723772857 784188944 -1309530308 -468828139 845705746 27083242
REM
CELL 1.54180   15.00000   15.00000   15.00000   90.00000   90.00000   90.00000
LATT -1
SFAC C  
C      1  0.4450340000000  0.3032220000000  0.4009600000000 1.0
C      1  0.6729940000000  0.3842950000000  0.4016080000000 1.0
C      1  0.6635820000000  0.6297950000000  0.4019910000000 1.0
C      1  0.4276350000000  0.6954320000000  0.4008070000000 1.0
C      1  0.2954500000000  0.4903040000000  0.4008410000000 1.0
C      1  0.5560520000000  0.3000630000000  0.5984150000000 1.0
C      1  0.3269730000000  0.3851160000000  0.5984120000000 1.0
C      1  0.3372020000000  0.6294790000000  0.5986280000000 1.0
C      1  0.5723450000000  0.6953670000000  0.5985100000000 1.0
C      1  0.7078500000000  0.4915650000000  0.5982390000000 1.0
C      1  0.3801770000000  0.5879640000000  0.5185840000000 1.0
C      1  0.3794710000000  0.4132920000000  0.5188390000000 1.0
C      1  0.5453770000000  0.3601980000000  0.5191810000000 1.0
C      1  0.6464990000000  0.5001620000000  0.5188310000000 1.0
C      1  0.5450640000000  0.6402270000000  0.5188360000000 1.0
C      1  0.6182750000000  0.5868610000000  0.4813190000000 1.0
C      1  0.6184720000000  0.4137150000000  0.4813670000000 1.0
C      1  0.4538370000000  0.3595730000000  0.4806280000000 1.0
C      1  0.3513810000000  0.4998820000000  0.4805360000000 1.0
C      1  0.4536100000000  0.6405440000000  0.4811300000000 1.0
C      1  0.7296000000000  0.5248960000000  0.3436050000000 1.0
C      1  0.5476930000000  0.7254690000000  0.3422750000000 1.0
C      1  0.3030720000000  0.6126240000000  0.3411190000000 1.0
C      1  0.3309150000000  0.3481120000000  0.3414780000000 1.0
C      1  0.5940450000000  0.2895140000000  0.3425910000000 1.0
C      1  0.2715280000000  0.5250250000000  0.6584290000000 1.0
C      1  0.4529700000000  0.7257190000000  0.6583550000000 1.0
C      1  0.7000050000000  0.6148580000000  0.6573020000000 1.0
C      1  0.6709020000000  0.3457480000000  0.6576800000000 1.0
C      1  0.4060060000000  0.2902700000000  0.6582090000000 1.0
C      1  0.7478640000000  0.5951000000000  0.3700160000000 1.0
C      1  0.4862200000000  0.7643590000000  0.3682510000000 1.0
C      1  0.2258030000000  0.5654250000000  0.3706770000000 1.0
C      1  0.3512780000000  0.2603240000000  0.3709240000000 1.0
C      1  0.6661080000000  0.2933660000000  0.3692300000000 1.0
C      1  0.2528210000000  0.5950790000000  0.6319270000000 1.0
C      1  0.5138830000000  0.7649420000000  0.6316370000000 1.0
C      1  0.7560240000000  0.5688650000000  0.6307100000000 1.0
C      1  0.6446580000000  0.2781950000000  0.6311470000000 1.0
C      1  0.3336270000000  0.2940550000000  0.6317180000000 1.0
C      1  0.4205960000000  0.4776230000000  0.7041660000000 1.0
C      1  0.4973060000000  0.4173840000000  0.7041140000000 1.0
C      1  0.5782570000000  0.4717130000000  0.7039600000000 1.0
C      1  0.5516750000000  0.5654620000000  0.7038430000000 1.0
C      1  0.4542670000000  0.5691860000000  0.7041380000000 1.0
C      1  0.5814160000000  0.4780080000000  0.2959350000000 1.0
C      1  0.5044940000000  0.4187100000000  0.2951870000000 1.0
C      1  0.4250220000000  0.4730600000000  0.2944700000000 1.0
C      1  0.4511000000000  0.5657110000000  0.2946650000000 1.0
C      1  0.5480960000000  0.5695810000000  0.2955060000000 1.0
C      1  0.4031200000000  0.6460350000000  0.6733950000000 1.0
C      1  0.3317200000000  0.4528540000000  0.6733980000000 1.0
C      1  0.4933260000000  0.3251300000000  0.6734020000000 1.0
C      1  0.6648530000000  0.4395900000000  0.6730090000000 1.0
C      1  0.6088870000000  0.6379130000000  0.6727600000000 1.0
C      1  0.5987760000000  0.6466140000000  0.3269070000000 1.0
C      1  0.6699440000000  0.4523400000000  0.3276680000000 1.0
C      1  0.5061430000000  0.3255520000000  0.3271760000000 1.0
C      1  0.3367090000000  0.4408700000000  0.3257280000000 1.0
C      1  0.3919890000000  0.6376640000000  0.3256330000000 1.0
END
