TITL C-1525613-7943-3744 0.141816218011903 3375 -8752.55582303291 0 0 60 (C1) n - 1
REM
REM in /home/nfs/bkarasulu/CARBON/AIRSS/Generating-Clusters/ReaxFF-fromJPCA2015/Units_Real/Try2-Higher-symm/Only-C60
REM
REM
REM
REM
REM
REM ./C.cell (863b2abdce7293c0672fb3ba77bf323a)
REM AIRSS Version 0.9.1 bugfix July 2018 build 013d7b7c2542+ Fri, 06 Jul 2018 19:26:36 +0100
REM compiler GCC version 9.2.1 20190827 (Red Hat 9.2.1-1)
REM options -cpp -mtune=generic -march=x86-64 -g -O0 -fpre-include=/usr/include/finclude/math-vector-fortran.h
REM seed 1345632453 640673562 1038464570 -1402757915 1452875115 1503621651 307692776 658232872 -1744976871 326375006 1649060456 -924140320 1379554071 -2065289798 246659009 947457242 1980510040 -2005332704 -426625566 748847353 1784316493 1772514187 -1748554453 -1846797174 125311678 -771529932 -447853382 643113276 -820785282 -1913391775 1405874602 -276748097 1728673683
REM
CELL 1.54180   15.00000   15.00000   15.00000   90.00000   90.00000   90.00000
LATT -1
SFAC C  
C      1  0.4448830000000  0.2125290000000  0.3805500000000 1.0
C      1  0.2095680000000  0.4643360000000  0.3809680000000 1.0
C      1  0.3926140000000  0.7423800000000  0.3881480000000 1.0
C      1  0.6946790000000  0.6776170000000  0.3885510000000 1.0
C      1  0.7324350000000  0.3673770000000  0.3875760000000 1.0
C      1  0.4482770000000  0.2454040000000  0.6110880000000 1.0
C      1  0.2067450000000  0.4641440000000  0.6197130000000 1.0
C      1  0.3925900000000  0.7407070000000  0.6113420000000 1.0
C      1  0.6949490000000  0.6777810000000  0.6116930000000 1.0
C      1  0.7322900000000  0.3666700000000  0.6114890000000 1.0
C      1  0.4387170000000  0.7941630000000  0.4487970000000 1.0
C      1  0.7584950000000  0.6476750000000  0.4489730000000 1.0
C      1  0.7240670000000  0.2977520000000  0.4483990000000 1.0
C      1  0.3759120000000  0.2245730000000  0.4494100000000 1.0
C      1  0.1982520000000  0.5332630000000  0.4500160000000 1.0
C      1  0.4386680000000  0.7938720000000  0.5512810000000 1.0
C      1  0.7587440000000  0.6474450000000  0.5508270000000 1.0
C      1  0.7232400000000  0.2973170000000  0.5504110000000 1.0
C      1  0.3784120000000  0.2268140000000  0.5509010000000 1.0
C      1  0.1976090000000  0.5335300000000  0.5505680000000 1.0
C      1  0.4275550000000  0.5531830000000  0.5565980000000 1.0
C      1  0.5351250000000  0.5831790000000  0.5590370000000 1.0
C      1  0.5848600000000  0.5017130000000  0.5886040000000 1.0
C      1  0.5338670000000  0.4203070000000  0.5595270000000 1.0
C      1  0.4289770000000  0.4501820000000  0.5562410000000 1.0
C      1  0.4272000000000  0.5538810000000  0.4438450000000 1.0
C      1  0.5352310000000  0.5845660000000  0.4421790000000 1.0
C      1  0.5850930000000  0.5035110000000  0.4123200000000 1.0
C      1  0.5349450000000  0.4222040000000  0.4424970000000 1.0
C      1  0.4303570000000  0.4504890000000  0.4439240000000 1.0
C      1  0.2665710000000  0.6043360000000  0.5501220000000 1.0
C      1  0.5300430000000  0.7549370000000  0.5487600000000 1.0
C      1  0.7447010000000  0.5491390000000  0.5485250000000 1.0
C      1  0.6261470000000  0.2763260000000  0.5472330000000 1.0
C      1  0.3285320000000  0.3126170000000  0.5476800000000 1.0
C      1  0.2665440000000  0.6048050000000  0.4511590000000 1.0
C      1  0.5303660000000  0.7552780000000  0.4513440000000 1.0
C      1  0.7450050000000  0.5491600000000  0.4509580000000 1.0
C      1  0.6270310000000  0.2774730000000  0.4498350000000 1.0
C      1  0.3313190000000  0.3120360000000  0.4497430000000 1.0
C      1  0.6243750000000  0.6961460000000  0.3258080000000 1.0
C      1  0.7307170000000  0.4388950000000  0.3247800000000 1.0
C      1  0.5061520000000  0.2803870000000  0.3400530000000 1.0
C      1  0.2914660000000  0.4248110000000  0.3401250000000 1.0
C      1  0.3549580000000  0.6752830000000  0.3299530000000 1.0
C      1  0.6234090000000  0.6960470000000  0.6739500000000 1.0
C      1  0.7312920000000  0.4383560000000  0.6742360000000 1.0
C      1  0.5160700000000  0.2768600000000  0.6735460000000 1.0
C      1  0.2889100000000  0.4250960000000  0.6604100000000 1.0
C      1  0.3551020000000  0.6748020000000  0.6715250000000 1.0
C      1  0.5567460000000  0.6730420000000  0.5963420000000 1.0
C      1  0.6800270000000  0.5009810000000  0.6050690000000 1.0
C      1  0.5590390000000  0.3297330000000  0.5951460000000 1.0
C      1  0.3576170000000  0.3928740000000  0.5953310000000 1.0
C      1  0.3518140000000  0.6012570000000  0.5976060000000 1.0
C      1  0.5565860000000  0.6737010000000  0.4034230000000 1.0
C      1  0.6799960000000  0.5014380000000  0.3946300000000 1.0
C      1  0.5614200000000  0.3337700000000  0.4032260000000 1.0
C      1  0.3626160000000  0.3915240000000  0.4012290000000 1.0
C      1  0.3510770000000  0.6003230000000  0.4027820000000 1.0
END
