TITL C-1525613-7943-4286 0.303099587189486 3375 -8549.36736564387 0 0 60 (C2) n - 1
REM
REM in /home/nfs/bkarasulu/CARBON/AIRSS/Generating-Clusters/ReaxFF-fromJPCA2015/Units_Real/Try2-Higher-symm/Only-C60
REM
REM
REM
REM
REM
REM ./C.cell (863b2abdce7293c0672fb3ba77bf323a)
REM AIRSS Version 0.9.1 bugfix July 2018 build 013d7b7c2542+ Fri, 06 Jul 2018 19:26:36 +0100
REM compiler GCC version 9.2.1 20190827 (Red Hat 9.2.1-1)
REM options -cpp -mtune=generic -march=x86-64 -g -O0 -fpre-include=/usr/include/finclude/math-vector-fortran.h
REM seed 1766416437 -1943382555 -368648783 1957819070 253300785 -2089271973 -264002079 -1876222058 -367473563 -1325647479 200380829 -1661641123 -162288016 646709033 1190232363 1821774036 -1611524747 1461963975 -308335641 219510935 1300437523 -588677933 27238689 1226930792 1016051538 1190302476 -821675832 403678239 -1454835596 1613812454 -1810356323 1643942031 -1467388305
REM
CELL 1.54180   15.00000   15.00000   15.00000   90.00000   90.00000   90.00000
LATT -1
SFAC C  
C      1  0.4164650000000  0.3373150000000  0.5131940000000 1.0
C      1  0.4749950000000  0.3302470000000  0.5902040000000 1.0
C      1  0.5608360000000  0.3389590000000  0.5575380000000 1.0
C      1  0.5610580000000  0.3470410000000  0.4616020000000 1.0
C      1  0.4677350000000  0.3538210000000  0.4315650000000 1.0
C      1  0.4160170000000  0.6627580000000  0.4865730000000 1.0
C      1  0.4747490000000  0.6693820000000  0.4096990000000 1.0
C      1  0.5605350000000  0.6602700000000  0.4423610000000 1.0
C      1  0.5610100000000  0.6526090000000  0.5383580000000 1.0
C      1  0.4674860000000  0.6464140000000  0.5683010000000 1.0
C      1  0.3212030000000  0.6603200000000  0.4695800000000 1.0
C      1  0.4266260000000  0.6131290000000  0.6504650000000 1.0
C      1  0.6512470000000  0.6455840000000  0.5742080000000 1.0
C      1  0.6302900000000  0.6338930000000  0.3698940000000 1.0
C      1  0.4601580000000  0.6580380000000  0.3082290000000 1.0
C      1  0.3217300000000  0.3402760000000  0.5302950000000 1.0
C      1  0.4265780000000  0.3876240000000  0.3500320000000 1.0
C      1  0.6511970000000  0.3545430000000  0.4260170000000 1.0
C      1  0.6303870000000  0.3651910000000  0.6301330000000 1.0
C      1  0.4601320000000  0.3419300000000  0.6915270000000 1.0
C      1  0.2525110000000  0.6190820000000  0.5072250000000 1.0
C      1  0.4786850000000  0.5751520000000  0.7284570000000 1.0
C      1  0.7008100000000  0.6079770000000  0.6400860000000 1.0
C      1  0.7088570000000  0.5949290000000  0.3860220000000 1.0
C      1  0.3887640000000  0.6059730000000  0.2779420000000 1.0
C      1  0.2519290000000  0.3821510000000  0.4910330000000 1.0
C      1  0.4780780000000  0.4256710000000  0.2721920000000 1.0
C      1  0.7006890000000  0.3923910000000  0.3599390000000 1.0
C      1  0.7088050000000  0.4044580000000  0.6137560000000 1.0
C      1  0.3882540000000  0.3930320000000  0.7217390000000 1.0
C      1  0.2662650000000  0.4265230000000  0.4131120000000 1.0
C      1  0.3546300000000  0.4262480000000  0.6427220000000 1.0
C      1  0.6180830000000  0.4031710000000  0.7206730000000 1.0
C      1  0.7077130000000  0.4296710000000  0.4460890000000 1.0
C      1  0.5562570000000  0.3912240000000  0.2967020000000 1.0
C      1  0.2651860000000  0.5749830000000  0.5866300000000 1.0
C      1  0.3554130000000  0.5730370000000  0.3567390000000 1.0
C      1  0.6184410000000  0.5971820000000  0.2788710000000 1.0
C      1  0.7079830000000  0.5702980000000  0.5542540000000 1.0
C      1  0.5568950000000  0.6093140000000  0.7037060000000 1.0
C      1  0.3330130000000  0.5851230000000  0.6554030000000 1.0
C      1  0.6457510000000  0.5836360000000  0.7162650000000 1.0
C      1  0.7625880000000  0.5983730000000  0.4612640000000 1.0
C      1  0.5226260000000  0.6055550000000  0.2527350000000 1.0
C      1  0.2611210000000  0.6030110000000  0.4129340000000 1.0
C      1  0.3325160000000  0.4148440000000  0.3452680000000 1.0
C      1  0.6452480000000  0.4165420000000  0.2836950000000 1.0
C      1  0.7627490000000  0.4014550000000  0.5386790000000 1.0
C      1  0.5221270000000  0.3951640000000  0.7464970000000 1.0
C      1  0.2616380000000  0.3952540000000  0.5875630000000 1.0
C      1  0.2359300000000  0.5092150000000  0.3787680000000 1.0
C      1  0.3056320000000  0.4960270000000  0.6917900000000 1.0
C      1  0.6196930000000  0.4969150000000  0.7575240000000 1.0
C      1  0.7896630000000  0.5067150000000  0.4519830000000 1.0
C      1  0.5227260000000  0.5091950000000  0.2285320000000 1.0
C      1  0.2347240000000  0.4898270000000  0.6227870000000 1.0
C      1  0.3056830000000  0.5033950000000  0.3087400000000 1.0
C      1  0.6194610000000  0.5033450000000  0.2421700000000 1.0
C      1  0.7895370000000  0.4932230000000  0.5482170000000 1.0
C      1  0.5228980000000  0.4913760000000  0.7715230000000 1.0
END
