TITL C-1525613-7943-1549 0.0510172509287201 3375 -8804.14824750001 0 0 60 (C1) n - 1
REM
REM in /home/nfs/bkarasulu/CARBON/AIRSS/Generating-Clusters/ReaxFF-fromJPCA2015/Units_Real/Try2-Higher-symm/Only-C60
REM
REM
REM
REM
REM
REM ./C.cell (863b2abdce7293c0672fb3ba77bf323a)
REM AIRSS Version 0.9.1 bugfix July 2018 build 013d7b7c2542+ Fri, 06 Jul 2018 19:26:36 +0100
REM compiler GCC version 9.2.1 20190827 (Red Hat 9.2.1-1)
REM options -cpp -mtune=generic -march=x86-64 -g -O0 -fpre-include=/usr/include/finclude/math-vector-fortran.h
REM seed 863509911 458663348 -523526861 387972483 187135199 960188721 1988663192 153818425 -1566063602 -287902106 -1836706567 1309186344 -1311162652 2067585604 1745180740 -747456603 1991836110 167881706 1100110724 -655927341 1254099294 -44738344 1043764621 633858645 1042660230 326362255 1928138564 -1915240543 48305440 -1349549256 -635725052 -663011273 -1938375865
REM
CELL 1.54180   15.00000   15.00000   15.00000   90.00000   90.00000   90.00000
LATT -1
SFAC C  
C      1  0.3089900000000  0.5650430000000  0.5338660000000 1.0
C      1  0.2833940000000  0.4697260000000  0.5604690000000 1.0
C      1  0.3351610000000  0.3091760000000  0.6001560000000 1.0
C      1  0.4162110000000  0.2559620000000  0.6005070000000 1.0
C      1  0.5506310000000  0.3320890000000  0.5341040000000 1.0
C      1  0.6693970000000  0.4539370000000  0.5259580000000 1.0
C      1  0.7270620000000  0.5165730000000  0.5791940000000 1.0
C      1  0.6723720000000  0.6902960000000  0.6020360000000 1.0
C      1  0.5889010000000  0.7401660000000  0.5957420000000 1.0
C      1  0.4483240000000  0.6711200000000  0.5335680000000 1.0
C      1  0.2569720000000  0.3315230000000  0.3239370000000 1.0
C      1  0.4038520000000  0.2671970000000  0.3746480000000 1.0
C      1  0.5717930000000  0.2773590000000  0.3339060000000 1.0
C      1  0.7464410000000  0.3117870000000  0.3390700000000 1.0
C      1  0.7777750000000  0.4972670000000  0.3521410000000 1.0
C      1  0.7524660000000  0.6728660000000  0.3375510000000 1.0
C      1  0.5906360000000  0.7197650000000  0.3541490000000 1.0
C      1  0.4320920000000  0.7192230000000  0.3733300000000 1.0
C      1  0.2581160000000  0.6815750000000  0.3407720000000 1.0
C      1  0.2137210000000  0.4996310000000  0.3441220000000 1.0
C      1  0.6387870000000  0.5706370000000  0.4073440000000 1.0
C      1  0.5742070000000  0.6422490000000  0.4063760000000 1.0
C      1  0.4769220000000  0.6465340000000  0.4400330000000 1.0
C      1  0.4022500000000  0.5836680000000  0.3989960000000 1.0
C      1  0.3626650000000  0.5160410000000  0.4556810000000 1.0
C      1  0.3516860000000  0.4256220000000  0.4197160000000 1.0
C      1  0.4204920000000  0.3545820000000  0.4214670000000 1.0
C      1  0.5135930000000  0.3674550000000  0.4518280000000 1.0
C      1  0.5864940000000  0.4022490000000  0.3937350000000 1.0
C      1  0.6289580000000  0.4775730000000  0.4413940000000 1.0
C      1  0.3800990000000  0.4347730000000  0.6806020000000 1.0
C      1  0.4305850000000  0.3615690000000  0.7203970000000 1.0
C      1  0.5180570000000  0.3413290000000  0.6831740000000 1.0
C      1  0.5990640000000  0.3930930000000  0.6694380000000 1.0
C      1  0.6422810000000  0.4700080000000  0.7164470000000 1.0
C      1  0.6297030000000  0.5675070000000  0.6973660000000 1.0
C      1  0.5726510000000  0.6419080000000  0.7240150000000 1.0
C      1  0.4863880000000  0.6558450000000  0.6817590000000 1.0
C      1  0.4057090000000  0.6059970000000  0.6664090000000 1.0
C      1  0.3556800000000  0.5278080000000  0.6956280000000 1.0
C      1  0.3808550000000  0.6212150000000  0.5762330000000 1.0
C      1  0.2860570000000  0.5365340000000  0.6287610000000 1.0
C      1  0.3327070000000  0.4027140000000  0.6053330000000 1.0
C      1  0.3790540000000  0.2873730000000  0.6838370000000 1.0
C      1  0.5029210000000  0.2910350000000  0.6042420000000 1.0
C      1  0.6205620000000  0.3846370000000  0.5751010000000 1.0
C      1  0.7177750000000  0.4656960000000  0.6587320000000 1.0
C      1  0.6853010000000  0.5964890000000  0.6219220000000 1.0
C      1  0.6230760000000  0.7146940000000  0.6822020000000 1.0
C      1  0.5019160000000  0.7045650000000  0.6015100000000 1.0
C      1  0.6390790000000  0.3328790000000  0.3459000000000 1.0
C      1  0.7632050000000  0.4033490000000  0.3454890000000 1.0
C      1  0.7267560000000  0.5829640000000  0.3707710000000 1.0
C      1  0.6833330000000  0.7434430000000  0.3242450000000 1.0
C      1  0.5032590000000  0.7652880000000  0.3245650000000 1.0
C      1  0.3601230000000  0.6559670000000  0.3511690000000 1.0
C      1  0.2345200000000  0.5884550000000  0.3422520000000 1.0
C      1  0.2684440000000  0.4111330000000  0.3683040000000 1.0
C      1  0.3190370000000  0.2865520000000  0.3357660000000 1.0
C      1  0.4914400000000  0.2562910000000  0.3426350000000 1.0
END
