TITL C-1525613-7943-1340 0.062886188204187 3375 -9102.46913934555 0 0 60 (C1) n - 1
REM
REM in /home/nfs/bkarasulu/CARBON/AIRSS/Generating-Clusters/ReaxFF-fromJPCA2015/Units_Real/Try2-Higher-symm/Only-C60
REM
REM
REM
REM
REM
REM ./C.cell (863b2abdce7293c0672fb3ba77bf323a)
REM AIRSS Version 0.9.1 bugfix July 2018 build 013d7b7c2542+ Fri, 06 Jul 2018 19:26:36 +0100
REM compiler GCC version 9.2.1 20190827 (Red Hat 9.2.1-1)
REM options -cpp -mtune=generic -march=x86-64 -g -O0 -fpre-include=/usr/include/finclude/math-vector-fortran.h
REM seed -262530301 -816398782 -1677112434 -1684321629 1084644277 -1178193687 -1305209777 199704559 427613613 -348928518 -1206067842 1221127083 2093771516 249789891 1911263798 1933871968 1857599562 374973596 -716667938 -825197382 -1854132667 -1729561742 1066662704 1289206409 5910468 1964465768 -280325603 1225749262 713222894 -786340007 1688069106 599773427 61366802
REM
CELL 1.54180   15.00000   15.00000   15.00000   90.00000   90.00000   90.00000
LATT -1
SFAC C  
C      1  0.6652320000000  0.6425200000000  0.4239170000000 1.0
C      1  0.4144160000000  0.6936240000000  0.4154530000000 1.0
C      1  0.2859960000000  0.4833410000000  0.4101710000000 1.0
C      1  0.4525050000000  0.2895950000000  0.4213920000000 1.0
C      1  0.6935780000000  0.3849470000000  0.4233700000000 1.0
C      1  0.3336670000000  0.6420380000000  0.5792390000000 1.0
C      1  0.5822400000000  0.6919080000000  0.5877330000000 1.0
C      1  0.7132490000000  0.4837090000000  0.5965710000000 1.0
C      1  0.5437180000000  0.2828330000000  0.5874270000000 1.0
C      1  0.3134440000000  0.3884360000000  0.5833610000000 1.0
C      1  0.4496230000000  0.7260120000000  0.5000000000000 1.0
C      1  0.2607520000000  0.5243390000000  0.4936790000000 1.0
C      1  0.4024500000000  0.2845720000000  0.5038810000000 1.0
C      1  0.6788830000000  0.3385040000000  0.5066200000000 1.0
C      1  0.7088860000000  0.6196920000000  0.5081820000000 1.0
C      1  0.5489780000000  0.7244660000000  0.5019590000000 1.0
C      1  0.7401430000000  0.5250120000000  0.5125960000000 1.0
C      1  0.5982290000000  0.2780570000000  0.5071470000000 1.0
C      1  0.3230140000000  0.3441280000000  0.4988670000000 1.0
C      1  0.2897180000000  0.6185270000000  0.4958650000000 1.0
C      1  0.4432930000000  0.4306900000000  0.6282210000000 1.0
C      1  0.5571190000000  0.4175340000000  0.6388410000000 1.0
C      1  0.5722610000000  0.5041910000000  0.5987200000000 1.0
C      1  0.5067340000000  0.5419100000000  0.5395800000000 1.0
C      1  0.4220490000000  0.5250150000000  0.6065430000000 1.0
C      1  0.5817650000000  0.4244820000000  0.3204610000000 1.0
C      1  0.4574100000000  0.4226350000000  0.3648950000000 1.0
C      1  0.4329340000000  0.5057650000000  0.4051370000000 1.0
C      1  0.5131260000000  0.5372400000000  0.4474770000000 1.0
C      1  0.5859280000000  0.5225950000000  0.3667520000000 1.0
C      1  0.4463680000000  0.2925430000000  0.5890460000000 1.0
C      1  0.6862690000000  0.3871310000000  0.5886290000000 1.0
C      1  0.6657610000000  0.6394070000000  0.5937370000000 1.0
C      1  0.4168010000000  0.6930170000000  0.5842870000000 1.0
C      1  0.2798910000000  0.4792310000000  0.5774040000000 1.0
C      1  0.5500900000000  0.2913360000000  0.4231430000000 1.0
C      1  0.3172360000000  0.3909830000000  0.4146190000000 1.0
C      1  0.3317610000000  0.6407910000000  0.4120910000000 1.0
C      1  0.5806900000000  0.6917050000000  0.4172840000000 1.0
C      1  0.7258760000000  0.4786110000000  0.4281490000000 1.0
C      1  0.6794950000000  0.5534950000000  0.3850020000000 1.0
C      1  0.4965260000000  0.6783610000000  0.3633510000000 1.0
C      1  0.3168920000000  0.5608640000000  0.3578000000000 1.0
C      1  0.3972000000000  0.3534850000000  0.3697020000000 1.0
C      1  0.6129320000000  0.3519990000000  0.3773550000000 1.0
C      1  0.3305650000000  0.5526530000000  0.6176660000000 1.0
C      1  0.4995450000000  0.6762460000000  0.6379840000000 1.0
C      1  0.6816360000000  0.5605750000000  0.6499600000000 1.0
C      1  0.6114070000000  0.3395090000000  0.6293830000000 1.0
C      1  0.3915920000000  0.3602010000000  0.6387870000000 1.0
C      1  0.4293430000000  0.4505420000000  0.2791570000000 1.0
C      1  0.5220060000000  0.4622830000000  0.2516860000000 1.0
C      1  0.5495280000000  0.5535910000000  0.2738830000000 1.0
C      1  0.4792570000000  0.6143870000000  0.2948750000000 1.0
C      1  0.4032450000000  0.5436510000000  0.3136740000000 1.0
C      1  0.5492230000000  0.4564370000000  0.7262980000000 1.0
C      1  0.4512340000000  0.4497310000000  0.7209270000000 1.0
C      1  0.4325010000000  0.5460740000000  0.7072030000000 1.0
C      1  0.5064330000000  0.6075450000000  0.7046090000000 1.0
C      1  0.5873580000000  0.5453020000000  0.6982530000000 1.0
END
