TITL C-1525613-7943-7475 -0.0256941232493646 3375 -8775.91424206693 0 0 60 (C2) n - 1
REM
REM in /home/nfs/bkarasulu/CARBON/AIRSS/Generating-Clusters/ReaxFF-fromJPCA2015/Units_Real/Try2-Higher-symm/Only-C60
REM
REM
REM
REM
REM
REM ./C.cell (863b2abdce7293c0672fb3ba77bf323a)
REM AIRSS Version 0.9.1 bugfix July 2018 build 013d7b7c2542+ Fri, 06 Jul 2018 19:26:36 +0100
REM compiler GCC version 9.2.1 20190827 (Red Hat 9.2.1-1)
REM options -cpp -mtune=generic -march=x86-64 -g -O0 -fpre-include=/usr/include/finclude/math-vector-fortran.h
REM seed 574783627 -679524977 55027480 804725976 697158244 627017808 1565032610 165418012 360335651 -1213132380 -937666897 -1309643284 -1474184679 995816406 -470635762 -1911357507 -510826811 1401383800 -1851468291 -1013461664 -709315708 -1134011029 315266019 679308590 -68394772 -557290158 1176017271 1591194916 1169683160 -598816472 -1448997406 859554964 113617540
REM
CELL 1.54180   15.00000   15.00000   15.00000   90.00000   90.00000   90.00000
LATT -1
SFAC C  
C      1  0.6596230000000  0.5171180000000  0.3038500000000 1.0
C      1  0.3628100000000  0.5170900000000  0.2875560000000 1.0
C      1  0.2556250000000  0.5170910000000  0.5648760000000 1.0
C      1  0.4861600000000  0.5171210000000  0.7524790000000 1.0
C      1  0.7359100000000  0.5171110000000  0.5911660000000 1.0
C      1  0.6596230000000  0.4828820000000  0.6961500000000 1.0
C      1  0.3628100000000  0.4829100000000  0.7124440000000 1.0
C      1  0.2556250000000  0.4829090000000  0.4351240000000 1.0
C      1  0.4861600000000  0.4828790000000  0.2475210000000 1.0
C      1  0.7359100000000  0.4828890000000  0.4088340000000 1.0
C      1  0.6078190000000  0.7166670000000  0.6417880000000 1.0
C      1  0.6681190000000  0.7166780000000  0.4411950000000 1.0
C      1  0.4960580000000  0.7167480000000  0.3218570000000 1.0
C      1  0.3293290000000  0.7167890000000  0.4485630000000 1.0
C      1  0.3983880000000  0.7167590000000  0.6463970000000 1.0
C      1  0.6078190000000  0.2833330000000  0.3582120000000 1.0
C      1  0.6681190000000  0.2833220000000  0.5588050000000 1.0
C      1  0.4960580000000  0.2832520000000  0.6781430000000 1.0
C      1  0.3293290000000  0.2832110000000  0.5514370000000 1.0
C      1  0.3983880000000  0.2832410000000  0.3536030000000 1.0
C      1  0.5006580000000  0.5100340000000  0.6556640000000 1.0
C      1  0.6482730000000  0.5099910000000  0.5475090000000 1.0
C      1  0.5910270000000  0.5100310000000  0.3737060000000 1.0
C      1  0.4079920000000  0.5100080000000  0.3744040000000 1.0
C      1  0.3521710000000  0.5100050000000  0.5486950000000 1.0
C      1  0.5006580000000  0.4899660000000  0.3443360000000 1.0
C      1  0.6482730000000  0.4900090000000  0.4524910000000 1.0
C      1  0.5910270000000  0.4899690000000  0.6262940000000 1.0
C      1  0.4079920000000  0.4899920000000  0.6255960000000 1.0
C      1  0.3521710000000  0.4899950000000  0.4513050000000 1.0
C      1  0.5778250000000  0.2627140000000  0.5264820000000 1.0
C      1  0.5491970000000  0.2627520000000  0.4341330000000 1.0
C      1  0.4525280000000  0.2627550000000  0.4328450000000 1.0
C      1  0.4214000000000  0.2627400000000  0.5243670000000 1.0
C      1  0.4988370000000  0.2627110000000  0.5822280000000 1.0
C      1  0.5778250000000  0.7372860000000  0.4735180000000 1.0
C      1  0.5491970000000  0.7372480000000  0.5658670000000 1.0
C      1  0.4525280000000  0.7372450000000  0.5671550000000 1.0
C      1  0.4214000000000  0.7372600000000  0.4756330000000 1.0
C      1  0.4988370000000  0.7372890000000  0.4177720000000 1.0
C      1  0.6761500000000  0.6583340000000  0.6807960000000 1.0
C      1  0.7264190000000  0.6583130000000  0.3883980000000 1.0
C      1  0.4638050000000  0.6583090000000  0.2501880000000 1.0
C      1  0.2512160000000  0.6583360000000  0.4572330000000 1.0
C      1  0.3825090000000  0.6583140000000  0.7233710000000 1.0
C      1  0.6761500000000  0.3416660000000  0.3192040000000 1.0
C      1  0.7264190000000  0.3416870000000  0.6116020000000 1.0
C      1  0.4638050000000  0.3416910000000  0.7498120000000 1.0
C      1  0.2512160000000  0.3416640000000  0.5427670000000 1.0
C      1  0.3825090000000  0.3416860000000  0.2766290000000 1.0
C      1  0.3986950000000  0.5667830000000  0.7565320000000 1.0
C      1  0.7126750000000  0.5667880000000  0.6756260000000 1.0
C      1  0.7327930000000  0.5667800000000  0.3520250000000 1.0
C      1  0.4312180000000  0.5667550000000  0.2329220000000 1.0
C      1  0.2247700000000  0.5667880000000  0.4829250000000 1.0
C      1  0.3986950000000  0.4332170000000  0.2434680000000 1.0
C      1  0.7126750000000  0.4332120000000  0.3243740000000 1.0
C      1  0.7327930000000  0.4332200000000  0.6479750000000 1.0
C      1  0.4312180000000  0.4332450000000  0.7670780000000 1.0
C      1  0.2247700000000  0.4332120000000  0.5170750000000 1.0
END
