TITL C-1525613-7943-327 0.094015334370278 3375 -8330.59515815585 0 0 60 (C1) n - 1
REM
REM in /home/nfs/bkarasulu/CARBON/AIRSS/Generating-Clusters/ReaxFF-fromJPCA2015/Units_Real/Try2-Higher-symm/Only-C60
REM
REM
REM
REM
REM
REM ./C.cell (863b2abdce7293c0672fb3ba77bf323a)
REM AIRSS Version 0.9.1 bugfix July 2018 build 013d7b7c2542+ Fri, 06 Jul 2018 19:26:36 +0100
REM compiler GCC version 9.2.1 20190827 (Red Hat 9.2.1-1)
REM options -cpp -mtune=generic -march=x86-64 -g -O0 -fpre-include=/usr/include/finclude/math-vector-fortran.h
REM seed -1247729590 -255136632 1963721139 1103301703 -1630538455 886684102 -549965247 1297240000 -692686060 -1903427977 -1317459987 1249270110 382479153 -1622424296 -1803152098 -582124713 -853507597 417726475 -761603915 -1206005792 1943481742 -830999706 966228106 1028049076 1486556496 -470774454 1532532156 551920408 1749275141 2099667326 2059914665 -1795989113 1211310803
REM
CELL 1.54180   15.00000   15.00000   15.00000   90.00000   90.00000   90.00000
LATT -1
SFAC C  
C      1  0.5338130000000  0.5703380000000  0.4273710000000 1.0
C      1  0.5775340000000  0.4898570000000  0.4290190000000 1.0
C      1  0.5139120000000  0.4225180000000  0.4296030000000 1.0
C      1  0.4305500000000  0.4625670000000  0.4286730000000 1.0
C      1  0.4432970000000  0.5540820000000  0.4298530000000 1.0
C      1  0.5337430000000  0.4291110000000  0.5718180000000 1.0
C      1  0.5787100000000  0.5094660000000  0.5711340000000 1.0
C      1  0.5183160000000  0.5823740000000  0.5660470000000 1.0
C      1  0.4334010000000  0.5395180000000  0.5709150000000 1.0
C      1  0.4428020000000  0.4474680000000  0.5708190000000 1.0
C      1  0.2527320000000  0.5339350000000  0.4590620000000 1.0
C      1  0.4571620000000  0.7344560000000  0.4513630000000 1.0
C      1  0.7181850000000  0.6183050000000  0.4609740000000 1.0
C      1  0.6789380000000  0.3275650000000  0.4595050000000 1.0
C      1  0.3932950000000  0.2784020000000  0.4597320000000 1.0
C      1  0.2529800000000  0.4663160000000  0.5401430000000 1.0
C      1  0.4567600000000  0.2564500000000  0.5415950000000 1.0
C      1  0.7186500000000  0.3822430000000  0.5407190000000 1.0
C      1  0.6769000000000  0.6721780000000  0.5416750000000 1.0
C      1  0.3956880000000  0.7193710000000  0.5371300000000 1.0
C      1  0.7200380000000  0.4788830000000  0.5444580000000 1.0
C      1  0.5488810000000  0.2843150000000  0.5449810000000 1.0
C      1  0.3088440000000  0.3872900000000  0.5435630000000 1.0
C      1  0.3343130000000  0.6462640000000  0.5443720000000 1.0
C      1  0.5826160000000  0.6975710000000  0.5453300000000 1.0
C      1  0.7200570000000  0.5213600000000  0.4565220000000 1.0
C      1  0.5469110000000  0.7155730000000  0.4542650000000 1.0
C      1  0.3088590000000  0.6130570000000  0.4555440000000 1.0
C      1  0.3343650000000  0.3543650000000  0.4553030000000 1.0
C      1  0.5874680000000  0.2967840000000  0.4561210000000 1.0
C      1  0.5327560000000  0.3076880000000  0.3649720000000 1.0
C      1  0.3278980000000  0.4090890000000  0.3636770000000 1.0
C      1  0.3599770000000  0.6370690000000  0.3683370000000 1.0
C      1  0.5861150000000  0.6744990000000  0.3654120000000 1.0
C      1  0.6929660000000  0.4727880000000  0.3657030000000 1.0
C      1  0.5308380000000  0.6941930000000  0.6388340000000 1.0
C      1  0.3285650000000  0.5910150000000  0.6348160000000 1.0
C      1  0.3602570000000  0.3641860000000  0.6340490000000 1.0
C      1  0.5864050000000  0.3253340000000  0.6360260000000 1.0
C      1  0.6937100000000  0.5261810000000  0.6361080000000 1.0
C      1  0.4415980000000  0.2990490000000  0.3842820000000 1.0
C      1  0.2906980000000  0.4911680000000  0.3875690000000 1.0
C      1  0.4272270000000  0.6980840000000  0.3900900000000 1.0
C      1  0.6642860000000  0.6286860000000  0.3873530000000 1.0
C      1  0.6730470000000  0.3841460000000  0.3876080000000 1.0
C      1  0.4410720000000  0.7022580000000  0.6151900000000 1.0
C      1  0.2926530000000  0.5081050000000  0.6114450000000 1.0
C      1  0.4286970000000  0.3032320000000  0.6153380000000 1.0
C      1  0.6647900000000  0.3710450000000  0.6142710000000 1.0
C      1  0.6763750000000  0.6144460000000  0.6126350000000 1.0
C      1  0.5159630000000  0.4025390000000  0.3321540000000 1.0
C      1  0.4120000000000  0.4553460000000  0.3315810000000 1.0
C      1  0.4279610000000  0.5715130000000  0.3334380000000 1.0
C      1  0.5443340000000  0.5889440000000  0.3310060000000 1.0
C      1  0.5978080000000  0.4857380000000  0.3317730000000 1.0
C      1  0.5167220000000  0.5987400000000  0.6663720000000 1.0
C      1  0.4137670000000  0.5458960000000  0.6676320000000 1.0
C      1  0.4294490000000  0.4305100000000  0.6677650000000 1.0
C      1  0.5445660000000  0.4117880000000  0.6689560000000 1.0
C      1  0.5977790000000  0.5147410000000  0.6680000000000 1.0
END
