TITL C-1525613-7943-7282 0.268240033092764 3375 -9150.24971083116 0 0 60 (C1) n - 1
REM
REM in /home/nfs/bkarasulu/CARBON/AIRSS/Generating-Clusters/ReaxFF-fromJPCA2015/Units_Real/Try2-Higher-symm/Only-C60
REM
REM
REM
REM
REM
REM ./C.cell (863b2abdce7293c0672fb3ba77bf323a)
REM AIRSS Version 0.9.1 bugfix July 2018 build 013d7b7c2542+ Fri, 06 Jul 2018 19:26:36 +0100
REM compiler GCC version 9.2.1 20190827 (Red Hat 9.2.1-1)
REM options -cpp -mtune=generic -march=x86-64 -g -O0 -fpre-include=/usr/include/finclude/math-vector-fortran.h
REM seed -1117558364 -1781098163 -107359546 -1912134864 -1413101934 -1289304263 -1596320711 118618790 1740685625 -1874005137 -340186874 -1326570736 1681824598 -86910283 -493938489 2113435746 -1256300392 772972339 -1176548399 -748148688 1755049927 138524178 1962300107 1571344044 -1591694820 1172272048 19906641 -357309142 189836136 -1871997373 1309323728 369538482 604295560
REM
CELL 1.54180   15.00000   15.00000   15.00000   90.00000   90.00000   90.00000
LATT -1
SFAC C  
C      1  0.6056630000000  0.2453260000000  0.4779670000000 1.0
C      1  0.6153900000000  0.2692280000000  0.3835790000000 1.0
C      1  0.6264090000000  0.4286280000000  0.3054320000000 1.0
C      1  0.6103230000000  0.5738560000000  0.2505120000000 1.0
C      1  0.6299790000000  0.6715430000000  0.3730110000000 1.0
C      1  0.6110620000000  0.7725700000000  0.4863850000000 1.0
C      1  0.6068420000000  0.7056920000000  0.6190600000000 1.0
C      1  0.6247270000000  0.5688370000000  0.6942600000000 1.0
C      1  0.6140310000000  0.4230750000000  0.7568980000000 1.0
C      1  0.6231480000000  0.3315200000000  0.6292370000000 1.0
C      1  0.5425590000000  0.4113770000000  0.2612870000000 1.0
C      1  0.5153900000000  0.5716250000000  0.2591720000000 1.0
C      1  0.5427550000000  0.7007340000000  0.3541070000000 1.0
C      1  0.5227280000000  0.8017750000000  0.4978600000000 1.0
C      1  0.5146790000000  0.7181200000000  0.6377090000000 1.0
C      1  0.5345640000000  0.5815820000000  0.7245300000000 1.0
C      1  0.5198940000000  0.4235700000000  0.7546150000000 1.0
C      1  0.5334560000000  0.3065710000000  0.6453810000000 1.0
C      1  0.5095490000000  0.2342250000000  0.4954460000000 1.0
C      1  0.5275820000000  0.2597140000000  0.3416340000000 1.0
C      1  0.4973780000000  0.7626310000000  0.4097850000000 1.0
C      1  0.4639790000000  0.7593320000000  0.5665520000000 1.0
C      1  0.4779860000000  0.6530650000000  0.6964680000000 1.0
C      1  0.4794210000000  0.5098540000000  0.7547950000000 1.0
C      1  0.4803210000000  0.3541720000000  0.7068770000000 1.0
C      1  0.4764570000000  0.2608510000000  0.5814660000000 1.0
C      1  0.4611860000000  0.2481570000000  0.4118580000000 1.0
C      1  0.4961460000000  0.3272770000000  0.2792730000000 1.0
C      1  0.4774910000000  0.4835340000000  0.2550170000000 1.0
C      1  0.4809740000000  0.6438610000000  0.3103050000000 1.0
C      1  0.3195710000000  0.4918260000000  0.3381600000000 1.0
C      1  0.3202980000000  0.5910730000000  0.3690790000000 1.0
C      1  0.3120150000000  0.6087290000000  0.4570340000000 1.0
C      1  0.3253590000000  0.6446700000000  0.5404590000000 1.0
C      1  0.3272100000000  0.5971390000000  0.6286740000000 1.0
C      1  0.3326260000000  0.5042190000000  0.6592340000000 1.0
C      1  0.3353610000000  0.4113820000000  0.6305060000000 1.0
C      1  0.3265420000000  0.3482140000000  0.5557710000000 1.0
C      1  0.3228570000000  0.3539570000000  0.4554960000000 1.0
C      1  0.3120820000000  0.4283600000000  0.4027270000000 1.0
C      1  0.3836040000000  0.2831010000000  0.6028870000000 1.0
C      1  0.3871000000000  0.3087540000000  0.3925460000000 1.0
C      1  0.4076490000000  0.3533330000000  0.3082540000000 1.0
C      1  0.3924250000000  0.4478910000000  0.2875340000000 1.0
C      1  0.3958170000000  0.6539100000000  0.3562350000000 1.0
C      1  0.4119990000000  0.7211640000000  0.4237880000000 1.0
C      1  0.3919610000000  0.7179190000000  0.5179250000000 1.0
C      1  0.3840080000000  0.6263740000000  0.7037960000000 1.0
C      1  0.3864410000000  0.5342630000000  0.7376570000000 1.0
C      1  0.3892790000000  0.3443900000000  0.6790420000000 1.0
C      1  0.6656240000000  0.3907210000000  0.6889090000000 1.0
C      1  0.6542580000000  0.3106920000000  0.5374710000000 1.0
C      1  0.6685220000000  0.3668470000000  0.4650570000000 1.0
C      1  0.6559140000000  0.3614450000000  0.3737890000000 1.0
C      1  0.6678980000000  0.5141180000000  0.2945090000000 1.0
C      1  0.6664330000000  0.6086210000000  0.3129530000000 1.0
C      1  0.6648000000000  0.6998230000000  0.4620640000000 1.0
C      1  0.6406560000000  0.6527090000000  0.5473520000000 1.0
C      1  0.6611360000000  0.6371360000000  0.6396710000000 1.0
C      1  0.6684810000000  0.4849160000000  0.7109470000000 1.0
END
