TITL C-1525613-7943-4025 0.141464823821129 3375 -8870.792097402 0 0 60 (C1) n - 1
REM
REM in /home/nfs/bkarasulu/CARBON/AIRSS/Generating-Clusters/ReaxFF-fromJPCA2015/Units_Real/Try2-Higher-symm/Only-C60
REM
REM
REM
REM
REM
REM ./C.cell (863b2abdce7293c0672fb3ba77bf323a)
REM AIRSS Version 0.9.1 bugfix July 2018 build 013d7b7c2542+ Fri, 06 Jul 2018 19:26:36 +0100
REM compiler GCC version 9.2.1 20190827 (Red Hat 9.2.1-1)
REM options -cpp -mtune=generic -march=x86-64 -g -O0 -fpre-include=/usr/include/finclude/math-vector-fortran.h
REM seed 932572663 1984843181 1487070335 -923766438 1257347835 -2134208006 254831600 362636619 1449298770 1499686537 1345792112 2144056969 -2117771787 -587202666 771899847 -2041643361 -1922261730 -1122927196 712436794 1453072017 -881956103 946522888 1319075804 1887596798 -65763809 -1367349166 1363928818 -220095575 458775192 1809055451 -1666066949 1619193049 -453121463
REM
CELL 1.54180   15.00000   15.00000   15.00000   90.00000   90.00000   90.00000
LATT -1
SFAC C  
C      1  0.5590460000000  0.6577430000000  0.5471760000000 1.0
C      1  0.4663100000000  0.6550600000000  0.5859280000000 1.0
C      1  0.3946560000000  0.6582460000000  0.4977070000000 1.0
C      1  0.4609650000000  0.6571260000000  0.4095470000000 1.0
C      1  0.5681010000000  0.6497280000000  0.4472530000000 1.0
C      1  0.5581640000000  0.3436540000000  0.5466360000000 1.0
C      1  0.4658180000000  0.3451070000000  0.5854140000000 1.0
C      1  0.3930010000000  0.3412230000000  0.4976050000000 1.0
C      1  0.4576850000000  0.3424310000000  0.4087410000000 1.0
C      1  0.5639370000000  0.3547510000000  0.4475080000000 1.0
C      1  0.2981240000000  0.5491230000000  0.4262990000000 1.0
C      1  0.5055590000000  0.5482670000000  0.2875060000000 1.0
C      1  0.7108860000000  0.5475180000000  0.4356590000000 1.0
C      1  0.6261170000000  0.5499750000000  0.6891460000000 1.0
C      1  0.3672420000000  0.5495840000000  0.6654690000000 1.0
C      1  0.2972010000000  0.4507660000000  0.4261710000000 1.0
C      1  0.5052080000000  0.4488040000000  0.2870910000000 1.0
C      1  0.7111880000000  0.4476530000000  0.4364000000000 1.0
C      1  0.6265760000000  0.4506840000000  0.6902150000000 1.0
C      1  0.3673630000000  0.4509470000000  0.6652150000000 1.0
C      1  0.3478310000000  0.4507140000000  0.3417920000000 1.0
C      1  0.6006350000000  0.4480840000000  0.3143700000000 1.0
C      1  0.7332250000000  0.4484490000000  0.5331840000000 1.0
C      1  0.5286930000000  0.4504920000000  0.7104200000000 1.0
C      1  0.3097180000000  0.4512960000000  0.5850470000000 1.0
C      1  0.3492730000000  0.5490460000000  0.3424940000000 1.0
C      1  0.6011620000000  0.5478710000000  0.3153160000000 1.0
C      1  0.7336200000000  0.5480250000000  0.5327360000000 1.0
C      1  0.5284160000000  0.5499950000000  0.7102740000000 1.0
C      1  0.3099820000000  0.5493860000000  0.5849870000000 1.0
C      1  0.3800420000000  0.7996370000000  0.4106070000000 1.0
C      1  0.5520630000000  0.7961540000000  0.3710240000000 1.0
C      1  0.6616860000000  0.7757280000000  0.5106820000000 1.0
C      1  0.5463020000000  0.7858030000000  0.6464880000000 1.0
C      1  0.3795090000000  0.8011230000000  0.5839070000000 1.0
C      1  0.3817140000000  0.1976860000000  0.4139260000000 1.0
C      1  0.5532260000000  0.2100190000000  0.3670380000000 1.0
C      1  0.6587310000000  0.2295570000000  0.5042790000000 1.0
C      1  0.5485890000000  0.2150780000000  0.6471740000000 1.0
C      1  0.3811970000000  0.1990300000000  0.5864550000000 1.0
C      1  0.6072820000000  0.2696550000000  0.5812980000000 1.0
C      1  0.4587010000000  0.2475710000000  0.6274630000000 1.0
C      1  0.3607090000000  0.2447640000000  0.4995470000000 1.0
C      1  0.4607020000000  0.2463920000000  0.3748630000000 1.0
C      1  0.6163310000000  0.2663620000000  0.4216650000000 1.0
C      1  0.6075340000000  0.7304590000000  0.5844310000000 1.0
C      1  0.4565360000000  0.7527440000000  0.6262630000000 1.0
C      1  0.3602470000000  0.7538360000000  0.4976600000000 1.0
C      1  0.4611840000000  0.7524870000000  0.3751760000000 1.0
C      1  0.6127910000000  0.7442040000000  0.4304630000000 1.0
C      1  0.4540700000000  0.5921300000000  0.6648260000000 1.0
C      1  0.3263780000000  0.5942980000000  0.5038500000000 1.0
C      1  0.4358350000000  0.5934500000000  0.3376220000000 1.0
C      1  0.6331440000000  0.5896490000000  0.3964100000000 1.0
C      1  0.6550700000000  0.5489000000000  0.5938600000000 1.0
C      1  0.4547890000000  0.4096980000000  0.6628980000000 1.0
C      1  0.3252040000000  0.4056550000000  0.5039760000000 1.0
C      1  0.4333030000000  0.4044650000000  0.3354030000000 1.0
C      1  0.6365270000000  0.4021290000000  0.3926820000000 1.0
C      1  0.6549030000000  0.4495870000000  0.5947550000000 1.0
END
