TITL C-1525613-7943-2800 0.00492496571906707 3375 -8700.81466798462 0 0 60 (C1) n - 1
REM
REM in /home/nfs/bkarasulu/CARBON/AIRSS/Generating-Clusters/ReaxFF-fromJPCA2015/Units_Real/Try2-Higher-symm/Only-C60
REM
REM
REM
REM
REM
REM ./C.cell (863b2abdce7293c0672fb3ba77bf323a)
REM AIRSS Version 0.9.1 bugfix July 2018 build 013d7b7c2542+ Fri, 06 Jul 2018 19:26:36 +0100
REM compiler GCC version 9.2.1 20190827 (Red Hat 9.2.1-1)
REM options -cpp -mtune=generic -march=x86-64 -g -O0 -fpre-include=/usr/include/finclude/math-vector-fortran.h
REM seed -1079745663 974458283 47730157 1582457773 1911332872 -1144985652 -1740216758 -1896633172 -1011332468 312178294 -860950664 -430284571 709880045 100850173 -601838624 753922087 -783526039 -2001591521 -927061783 548549642 -643136533 1964155459 -489849321 -1252273651 787230621 -851910309 639606066 -1578484000 -28094124 5708401 1594947594 1612120399 417263290
REM
CELL 1.54180   15.00000   15.00000   15.00000   90.00000   90.00000   90.00000
LATT -1
SFAC C  
C      1  0.3741540000000  0.2424160000000  0.5930150000000 1.0
C      1  0.2168580000000  0.5408690000000  0.5923450000000 1.0
C      1  0.4699330000000  0.7660880000000  0.6114520000000 1.0
C      1  0.7513400000000  0.6349610000000  0.5892150000000 1.0
C      1  0.7058300000000  0.3019430000000  0.5944460000000 1.0
C      1  0.6263160000000  0.2428610000000  0.5933640000000 1.0
C      1  0.7826930000000  0.5407440000000  0.5921810000000 1.0
C      1  0.5439760000000  0.7795210000000  0.5935110000000 1.0
C      1  0.2469440000000  0.6352750000000  0.5894710000000 1.0
C      1  0.2941510000000  0.3006930000000  0.5930610000000 1.0
C      1  0.6609120000000  0.6379610000000  0.3526280000000 1.0
C      1  0.6810040000000  0.3895000000000  0.3532240000000 1.0
C      1  0.4509240000000  0.2935980000000  0.3534110000000 1.0
C      1  0.2887070000000  0.4828630000000  0.3530740000000 1.0
C      1  0.4184000000000  0.6957360000000  0.3526050000000 1.0
C      1  0.3390510000000  0.6379960000000  0.3527030000000 1.0
C      1  0.3190030000000  0.3895250000000  0.3532300000000 1.0
C      1  0.5490550000000  0.2935820000000  0.3534120000000 1.0
C      1  0.7112850000000  0.4828430000000  0.3530640000000 1.0
C      1  0.5815650000000  0.6957060000000  0.3524740000000 1.0
C      1  0.3714840000000  0.4057900000000  0.2691700000000 1.0
C      1  0.3709230000000  0.5930030000000  0.2687740000000 1.0
C      1  0.5487550000000  0.6514090000000  0.2685440000000 1.0
C      1  0.6591900000000  0.5002380000000  0.2689910000000 1.0
C      1  0.5496650000000  0.3484370000000  0.2692950000000 1.0
C      1  0.6285300000000  0.4057540000000  0.2691570000000 1.0
C      1  0.6290860000000  0.5929640000000  0.2686940000000 1.0
C      1  0.4512630000000  0.6514200000000  0.2686860000000 1.0
C      1  0.3408220000000  0.5002750000000  0.2690160000000 1.0
C      1  0.4503330000000  0.3484530000000  0.2692940000000 1.0
C      1  0.3410020000000  0.5005490000000  0.4370080000000 1.0
C      1  0.4512100000000  0.6517200000000  0.4367350000000 1.0
C      1  0.6288210000000  0.5931750000000  0.4366410000000 1.0
C      1  0.6283920000000  0.4061370000000  0.4371770000000 1.0
C      1  0.4503860000000  0.3488480000000  0.4373170000000 1.0
C      1  0.6589590000000  0.5005300000000  0.4369800000000 1.0
C      1  0.5486370000000  0.6516050000000  0.4365240000000 1.0
C      1  0.3710710000000  0.5932170000000  0.4367400000000 1.0
C      1  0.3716080000000  0.4061670000000  0.4371870000000 1.0
C      1  0.5496070000000  0.3488270000000  0.4373210000000 1.0
C      1  0.5451210000000  0.6484440000000  0.6971980000000 1.0
C      1  0.6498520000000  0.5017240000000  0.6940490000000 1.0
C      1  0.5466850000000  0.3557590000000  0.6948710000000 1.0
C      1  0.3763490000000  0.4096910000000  0.6954550000000 1.0
C      1  0.3803160000000  0.5877550000000  0.6875950000000 1.0
C      1  0.4507490000000  0.6480070000000  0.7074460000000 1.0
C      1  0.3481770000000  0.4996970000000  0.6951250000000 1.0
C      1  0.4522920000000  0.3548480000000  0.6954960000000 1.0
C      1  0.6218800000000  0.4114690000000  0.6955800000000 1.0
C      1  0.6198830000000  0.5913780000000  0.6898970000000 1.0
C      1  0.7338060000000  0.4771520000000  0.6520290000000 1.0
C      1  0.5493140000000  0.2685430000000  0.6524190000000 1.0
C      1  0.2940330000000  0.3813940000000  0.6526820000000 1.0
C      1  0.3297630000000  0.6555640000000  0.6425040000000 1.0
C      1  0.5935800000000  0.7203470000000  0.6510810000000 1.0
C      1  0.2650600000000  0.4758350000000  0.6512660000000 1.0
C      1  0.4507750000000  0.2677960000000  0.6527180000000 1.0
C      1  0.7047710000000  0.3825700000000  0.6539410000000 1.0
C      1  0.6725690000000  0.6588820000000  0.6459200000000 1.0
C      1  0.4031770000000  0.7199450000000  0.6615930000000 1.0
END
