TITL C-1525613-7943-5076 0.069754841695045 3375 -9488.98032628586 0 0 60 (C2h) n - 1
REM
REM in /home/nfs/bkarasulu/CARBON/AIRSS/Generating-Clusters/ReaxFF-fromJPCA2015/Units_Real/Try2-Higher-symm/Only-C60
REM
REM
REM
REM
REM
REM ./C.cell (863b2abdce7293c0672fb3ba77bf323a)
REM AIRSS Version 0.9.1 bugfix July 2018 build 013d7b7c2542+ Fri, 06 Jul 2018 19:26:36 +0100
REM compiler GCC version 9.2.1 20190827 (Red Hat 9.2.1-1)
REM options -cpp -mtune=generic -march=x86-64 -g -O0 -fpre-include=/usr/include/finclude/math-vector-fortran.h
REM seed -430482057 -718289535 436425832 -1976865126 1900946628 -1286267000 701206420 -1265719539 -419050349 -1949650777 -378596341 820462148 -96031008 1295091846 -1356284643 -1955442875 -1474217679 -1525652798 -1077542220 -284911639 -1902512181 -359153837 260334531 630836306 -205475420 -650772629 -52475536 -1662069140 -1465401416 494582978 -904175490 882518798 -1165455188
REM
CELL 1.54180   15.00000   15.00000   15.00000   90.00000   90.00000   90.00000
LATT -1
SFAC C  
C      1  0.3422620000000  0.5003010000000  0.6917350000000 1.0
C      1  0.4515920000000  0.6507060000000  0.6946120000000 1.0
C      1  0.6289320000000  0.5924640000000  0.6944460000000 1.0
C      1  0.6274950000000  0.4065440000000  0.6909480000000 1.0
C      1  0.4504690000000  0.3497340000000  0.6918710000000 1.0
C      1  0.6577330000000  0.5002970000000  0.6917230000000 1.0
C      1  0.5483880000000  0.6507060000000  0.6946240000000 1.0
C      1  0.3710880000000  0.5924570000000  0.6944530000000 1.0
C      1  0.3725120000000  0.4065490000000  0.6909370000000 1.0
C      1  0.5495330000000  0.3497410000000  0.6918790000000 1.0
C      1  0.4049170000000  0.7104970000000  0.4582200000000 1.0
C      1  0.6714610000000  0.6543410000000  0.4584000000000 1.0
C      1  0.7011500000000  0.3837650000000  0.4588990000000 1.0
C      1  0.4523490000000  0.2736820000000  0.4585080000000 1.0
C      1  0.2691930000000  0.4749790000000  0.4589960000000 1.0
C      1  0.5950980000000  0.7105580000000  0.4582410000000 1.0
C      1  0.3285690000000  0.6543100000000  0.4584100000000 1.0
C      1  0.2988470000000  0.3838000000000  0.4589430000000 1.0
C      1  0.5476500000000  0.2736820000000  0.4584850000000 1.0
C      1  0.7307920000000  0.4750030000000  0.4590180000000 1.0
C      1  0.5947350000000  0.2879270000000  0.5411830000000 1.0
C      1  0.3277660000000  0.3441440000000  0.5412280000000 1.0
C      1  0.2976610000000  0.6149420000000  0.5400210000000 1.0
C      1  0.5479120000000  0.7289590000000  0.5400980000000 1.0
C      1  0.7307010000000  0.5244740000000  0.5407690000000 1.0
C      1  0.4052770000000  0.2879340000000  0.5411850000000 1.0
C      1  0.6722380000000  0.3441310000000  0.5412860000000 1.0
C      1  0.7023330000000  0.6149830000000  0.5400540000000 1.0
C      1  0.4521170000000  0.7289460000000  0.5401010000000 1.0
C      1  0.2692840000000  0.5244660000000  0.5407540000000 1.0
C      1  0.6273730000000  0.5930910000000  0.3072540000000 1.0
C      1  0.6284660000000  0.4072930000000  0.3073640000000 1.0
C      1  0.4517620000000  0.3495660000000  0.3074660000000 1.0
C      1  0.3418640000000  0.4991660000000  0.3075860000000 1.0
C      1  0.4505480000000  0.6500340000000  0.3068380000000 1.0
C      1  0.3726390000000  0.5930900000000  0.3072850000000 1.0
C      1  0.3715390000000  0.4073070000000  0.3073740000000 1.0
C      1  0.5482290000000  0.3495520000000  0.3074620000000 1.0
C      1  0.6580880000000  0.4991750000000  0.3076090000000 1.0
C      1  0.5494470000000  0.6500810000000  0.3068000000000 1.0
C      1  0.6922930000000  0.3888800000000  0.6217680000000 1.0
C      1  0.4536250000000  0.2815380000000  0.6227200000000 1.0
C      1  0.2786840000000  0.4769580000000  0.6214550000000 1.0
C      1  0.4090510000000  0.7079310000000  0.6252770000000 1.0
C      1  0.6695820000000  0.6501250000000  0.6250020000000 1.0
C      1  0.3077090000000  0.3888780000000  0.6217690000000 1.0
C      1  0.5463580000000  0.2815380000000  0.6227340000000 1.0
C      1  0.7213050000000  0.4769500000000  0.6214600000000 1.0
C      1  0.5909800000000  0.7079220000000  0.6252680000000 1.0
C      1  0.3304050000000  0.6501110000000  0.6249880000000 1.0
C      1  0.4098830000000  0.2968510000000  0.3773550000000 1.0
C      1  0.2788260000000  0.5230650000000  0.3773800000000 1.0
C      1  0.4537320000000  0.7163870000000  0.3774780000000 1.0
C      1  0.6917150000000  0.6108070000000  0.3777130000000 1.0
C      1  0.6654660000000  0.3507810000000  0.3773200000000 1.0
C      1  0.5901300000000  0.2968540000000  0.3773430000000 1.0
C      1  0.7211600000000  0.5230490000000  0.3773840000000 1.0
C      1  0.5462910000000  0.7164270000000  0.3774600000000 1.0
C      1  0.3082720000000  0.6107710000000  0.3777110000000 1.0
C      1  0.3345220000000  0.3507990000000  0.3773510000000 1.0
END
