TITL C-1525613-7943-4956 -0.044231170570391 3375 -8733.75075515407 0 0 60 (S10) n - 1
REM
REM in /home/nfs/bkarasulu/CARBON/AIRSS/Generating-Clusters/ReaxFF-fromJPCA2015/Units_Real/Try2-Higher-symm/Only-C60
REM
REM
REM
REM
REM
REM ./C.cell (863b2abdce7293c0672fb3ba77bf323a)
REM AIRSS Version 0.9.1 bugfix July 2018 build 013d7b7c2542+ Fri, 06 Jul 2018 19:26:36 +0100
REM compiler GCC version 9.2.1 20190827 (Red Hat 9.2.1-1)
REM options -cpp -mtune=generic -march=x86-64 -g -O0 -fpre-include=/usr/include/finclude/math-vector-fortran.h
REM seed 1464737923 -1653666324 1817812364 -826624121 -628264500 670080643 1959950959 336332145 -791357515 -1544728787 -135839277 883130638 910433738 1068956206 37467237 -2146570339 -1591240575 -1135401379 -920174940 -137070009 1985595834 -48848196 -2037339221 -2035615563 -1264164829 2072413845 -2104648075 1763272202 -215945276 140924366 -181079828 -1581897961 -1008525953
REM
CELL 1.54180   15.00000   15.00000   15.00000   90.00000   90.00000   90.00000
LATT -1
SFAC C  
C      1  0.4982230000000  0.2650700000000  0.6234650000000 1.0
C      1  0.6368420000000  0.3087910000000  0.3759870000000 1.0
C      1  0.7235320000000  0.4252630000000  0.6238640000000 1.0
C      1  0.7243060000000  0.5702830000000  0.3760900000000 1.0
C      1  0.6399420000000  0.6884930000000  0.6236840000000 1.0
C      1  0.5017670000000  0.7349360000000  0.3765390000000 1.0
C      1  0.3631600000000  0.6912150000000  0.6240300000000 1.0
C      1  0.2764830000000  0.5747520000000  0.3761290000000 1.0
C      1  0.2756830000000  0.4297310000000  0.6239160000000 1.0
C      1  0.3600650000000  0.3114940000000  0.3763140000000 1.0
C      1  0.5716900000000  0.4587960000000  0.6976560000000 1.0
C      1  0.5819290000000  0.5087690000000  0.3034110000000 1.0
C      1  0.5613160000000  0.5551560000000  0.6976730000000 1.0
C      1  0.5168580000000  0.5805460000000  0.3026170000000 1.0
C      1  0.4664810000000  0.5751460000000  0.6975860000000 1.0
C      1  0.4283110000000  0.5412040000000  0.3023450000000 1.0
C      1  0.4180700000000  0.4912320000000  0.6965870000000 1.0
C      1  0.4386870000000  0.4448440000000  0.3023220000000 1.0
C      1  0.4831410000000  0.4194540000000  0.6973830000000 1.0
C      1  0.5335200000000  0.4248490000000  0.3024150000000 1.0
C      1  0.3444710000000  0.4841630000000  0.6316520000000 1.0
C      1  0.3829530000000  0.3962810000000  0.3670490000000 1.0
C      1  0.4667490000000  0.3471480000000  0.6327820000000 1.0
C      1  0.5628620000000  0.3564180000000  0.3666410000000 1.0
C      1  0.6357310000000  0.4213050000000  0.6331090000000 1.0
C      1  0.6555290000000  0.5158300000000  0.3683370000000 1.0
C      1  0.6170430000000  0.6037200000000  0.6329520000000 1.0
C      1  0.5332530000000  0.6528450000000  0.3672240000000 1.0
C      1  0.4371400000000  0.6435810000000  0.6333560000000 1.0
C      1  0.3642600000000  0.5786940000000  0.3668830000000 1.0
C      1  0.4143950000000  0.2659610000000  0.5167000000000 1.0
C      1  0.5690080000000  0.2606000000000  0.4832070000000 1.0
C      1  0.6969270000000  0.3471340000000  0.5161170000000 1.0
C      1  0.7466770000000  0.4917990000000  0.4839700000000 1.0
C      1  0.7073360000000  0.6388700000000  0.5168120000000 1.0
C      1  0.5856100000000  0.7340310000000  0.4832920000000 1.0
C      1  0.4310020000000  0.7394040000000  0.5167810000000 1.0
C      1  0.3030710000000  0.6528540000000  0.4838740000000 1.0
C      1  0.2532630000000  0.5081980000000  0.5160490000000 1.0
C      1  0.2926670000000  0.3611250000000  0.4831810000000 1.0
C      1  0.3815690000000  0.5912230000000  0.4761710000000 1.0
C      1  0.3500470000000  0.5059580000000  0.5226650000000 1.0
C      1  0.3744860000000  0.4182160000000  0.4755320000000 1.0
C      1  0.4476920000000  0.3597390000000  0.5246210000000 1.0
C      1  0.5409500000000  0.3560720000000  0.4749920000000 1.0
C      1  0.6184150000000  0.4087890000000  0.5238320000000 1.0
C      1  0.6499970000000  0.4940380000000  0.4773410000000 1.0
C      1  0.6254900000000  0.5817980000000  0.5244640000000 1.0
C      1  0.5523040000000  0.6402550000000  0.4753890000000 1.0
C      1  0.4590720000000  0.6439410000000  0.5250050000000 1.0
C      1  0.6659080000000  0.7262390000000  0.5415550000000 1.0
C      1  0.5005180000000  0.7804900000000  0.4587380000000 1.0
C      1  0.3349610000000  0.7269140000000  0.5417460000000 1.0
C      1  0.2333010000000  0.5859170000000  0.4591910000000 1.0
C      1  0.2327630000000  0.4148120000000  0.5414700000000 1.0
C      1  0.3340980000000  0.2737660000000  0.4584620000000 1.0
C      1  0.4994650000000  0.2195040000000  0.5412600000000 1.0
C      1  0.6650370000000  0.2730410000000  0.4582180000000 1.0
C      1  0.7667140000000  0.4141220000000  0.5408240000000 1.0
C      1  0.7672570000000  0.5851790000000  0.4585420000000 1.0
END
