TITL C-1525613-7943-3875 0.0697384565218448 3375 -8713.41338681844 0 0 60 (C2) n - 1
REM
REM in /home/nfs/bkarasulu/CARBON/AIRSS/Generating-Clusters/ReaxFF-fromJPCA2015/Units_Real/Try2-Higher-symm/Only-C60
REM
REM
REM
REM
REM
REM ./C.cell (863b2abdce7293c0672fb3ba77bf323a)
REM AIRSS Version 0.9.1 bugfix July 2018 build 013d7b7c2542+ Fri, 06 Jul 2018 19:26:36 +0100
REM compiler GCC version 9.2.1 20190827 (Red Hat 9.2.1-1)
REM options -cpp -mtune=generic -march=x86-64 -g -O0 -fpre-include=/usr/include/finclude/math-vector-fortran.h
REM seed 1288864903 233861723 1399707154 -243355610 -1363014756 1234638678 -1735018389 349138965 -1984789392 -290391719 1829337917 -168048955 592744585 -488954756 -1573454499 1334562236 -1757583859 -1506546708 1522441829 926390785 -1906553087 -1188739744 -379833747 -252984051 -799378367 1078128919 643355222 -855184958 -222991015 360537655 1337656536 -79233699 -1973901755
REM
CELL 1.54180   15.00000   15.00000   15.00000   90.00000   90.00000   90.00000
LATT -1
SFAC C  
C      1  0.5315220000000  0.5153990000000  0.6856540000000 1.0
C      1  0.5324130000000  0.6164460000000  0.6361610000000 1.0
C      1  0.5306530000000  0.6809000000000  0.5443460000000 1.0
C      1  0.5295180000000  0.6658190000000  0.4263420000000 1.0
C      1  0.5285020000000  0.5984340000000  0.3460090000000 1.0
C      1  0.5281930000000  0.4866980000000  0.3129260000000 1.0
C      1  0.5326490000000  0.3815370000000  0.3654170000000 1.0
C      1  0.5310870000000  0.3191910000000  0.4530130000000 1.0
C      1  0.5294910000000  0.3344760000000  0.5749410000000 1.0
C      1  0.5279150000000  0.4014010000000  0.6533100000000 1.0
C      1  0.6858990000000  0.7031340000000  0.4950310000000 1.0
C      1  0.6831520000000  0.6474590000000  0.3709980000000 1.0
C      1  0.6872980000000  0.5318850000000  0.2993420000000 1.0
C      1  0.6850000000000  0.4303350000000  0.3159970000000 1.0
C      1  0.6840170000000  0.3249010000000  0.4048810000000 1.0
C      1  0.6856400000000  0.2964930000000  0.5062500000000 1.0
C      1  0.6816270000000  0.3520530000000  0.6300790000000 1.0
C      1  0.6864640000000  0.4672970000000  0.7011200000000 1.0
C      1  0.6835350000000  0.5706570000000  0.6846330000000 1.0
C      1  0.6822870000000  0.6750140000000  0.5958920000000 1.0
C      1  0.4496270000000  0.5171060000000  0.7407180000000 1.0
C      1  0.4535220000000  0.6548400000000  0.6844820000000 1.0
C      1  0.4486680000000  0.7338910000000  0.5582020000000 1.0
C      1  0.4520120000000  0.7250470000000  0.4089120000000 1.0
C      1  0.4482270000000  0.6294050000000  0.2961890000000 1.0
C      1  0.4472140000000  0.4832930000000  0.2572220000000 1.0
C      1  0.4536010000000  0.3453180000000  0.3159330000000 1.0
C      1  0.4485480000000  0.2656340000000  0.4420070000000 1.0
C      1  0.4519580000000  0.2752310000000  0.5912070000000 1.0
C      1  0.4479430000000  0.3706930000000  0.7040000000000 1.0
C      1  0.6149100000000  0.4762770000000  0.2679070000000 1.0
C      1  0.6261540000000  0.3674170000000  0.3464870000000 1.0
C      1  0.6171030000000  0.2774360000000  0.4484990000000 1.0
C      1  0.6259030000000  0.2980600000000  0.5817140000000 1.0
C      1  0.6259930000000  0.3929890000000  0.6889550000000 1.0
C      1  0.6168540000000  0.5218730000000  0.7273290000000 1.0
C      1  0.6248200000000  0.6340110000000  0.6547370000000 1.0
C      1  0.6160110000000  0.7224420000000  0.5519110000000 1.0
C      1  0.6265320000000  0.7016670000000  0.4190390000000 1.0
C      1  0.6271280000000  0.6076040000000  0.3116020000000 1.0
C      1  0.3246070000000  0.6319370000000  0.5837160000000 1.0
C      1  0.3241700000000  0.6556350000000  0.4897900000000 1.0
C      1  0.3239460000000  0.6200870000000  0.4002600000000 1.0
C      1  0.3234580000000  0.5385260000000  0.3476420000000 1.0
C      1  0.3249490000000  0.4415410000000  0.3544830000000 1.0
C      1  0.3248640000000  0.3679040000000  0.4163350000000 1.0
C      1  0.3241680000000  0.3444290000000  0.5102900000000 1.0
C      1  0.3239180000000  0.3799570000000  0.5998430000000 1.0
C      1  0.3237610000000  0.4615290000000  0.6525160000000 1.0
C      1  0.3248220000000  0.5583300000000  0.6454900000000 1.0
C      1  0.3878250000000  0.5577590000000  0.2742560000000 1.0
C      1  0.3892120000000  0.4097590000000  0.2839320000000 1.0
C      1  0.3898840000000  0.3027830000000  0.3744580000000 1.0
C      1  0.3887150000000  0.2671580000000  0.5181150000000 1.0
C      1  0.3872270000000  0.3185620000000  0.6486480000000 1.0
C      1  0.3891090000000  0.4435950000000  0.7255230000000 1.0
C      1  0.3898970000000  0.5895530000000  0.7159130000000 1.0
C      1  0.3897600000000  0.6967960000000  0.6258330000000 1.0
C      1  0.3887460000000  0.7328450000000  0.4820410000000 1.0
C      1  0.3873710000000  0.6815500000000  0.3515240000000 1.0
END
