TITL C-1525613-7943-1242 1.36436241633402 3375 -7066.95064029667 0 0 60 (D5) n - 1
REM
REM in /home/nfs/bkarasulu/CARBON/AIRSS/Generating-Clusters/ReaxFF-fromJPCA2015/Units_Real/Try2-Higher-symm/Only-C60
REM
REM
REM
REM
REM
REM ./C.cell (863b2abdce7293c0672fb3ba77bf323a)
REM AIRSS Version 0.9.1 bugfix July 2018 build 013d7b7c2542+ Fri, 06 Jul 2018 19:26:36 +0100
REM compiler GCC version 9.2.1 20190827 (Red Hat 9.2.1-1)
REM options -cpp -mtune=generic -march=x86-64 -g -O0 -fpre-include=/usr/include/finclude/math-vector-fortran.h
REM seed 1885173770 939451161 989569933 1709381938 -1087828730 1606724374 -931790057 -1848770457 898440922 -1044517652 -1145879978 347314644 2109990239 -1261260344 -1967069992 -2021271213 -661982754 194733756 1142868395 1234828622 -1673228352 -2127621726 1916638697 -1524435591 1795857579 -2071871802 -2094744612 -396546052 -197880792 -1131169759 -1526532854 -561299863 390009519
REM
CELL 1.54180   15.00000   15.00000   15.00000   90.00000   90.00000   90.00000
LATT -1
SFAC C  
C      1  0.3184170000000  0.6316600000000  0.3541550000000 1.0
C      1  0.3184930000000  0.4008030000000  0.3302530000000 1.0
C      1  0.3184400000000  0.3073900000000  0.5413600000000 1.0
C      1  0.3190720000000  0.4812470000000  0.6950850000000 1.0
C      1  0.3184590000000  0.6800160000000  0.5789790000000 1.0
C      1  0.6816570000000  0.6315830000000  0.6457190000000 1.0
C      1  0.6816120000000  0.4009650000000  0.6695380000000 1.0
C      1  0.6815890000000  0.3073850000000  0.4586840000000 1.0
C      1  0.6808860000000  0.4812540000000  0.3049400000000 1.0
C      1  0.6815550000000  0.6798910000000  0.4211300000000 1.0
C      1  0.5877410000000  0.4811260000000  0.2739440000000 1.0
C      1  0.5880810000000  0.2786920000000  0.4486140000000 1.0
C      1  0.5881990000000  0.3825860000000  0.6942830000000 1.0
C      1  0.5882470000000  0.6494990000000  0.6710740000000 1.0
C      1  0.5884080000000  0.7098710000000  0.4115170000000 1.0
C      1  0.4122820000000  0.4811570000000  0.7260130000000 1.0
C      1  0.4119590000000  0.2786570000000  0.5514210000000 1.0
C      1  0.4118710000000  0.3825230000000  0.3056510000000 1.0
C      1  0.4117970000000  0.6496630000000  0.3288180000000 1.0
C      1  0.4116210000000  0.7098870000000  0.5884940000000 1.0
C      1  0.6066420000000  0.3962480000000  0.5612020000000 1.0
C      1  0.6067890000000  0.5265170000000  0.6179870000000 1.0
C      1  0.6069640000000  0.6177690000000  0.5101850000000 1.0
C      1  0.6067000000000  0.5482850000000  0.3907270000000 1.0
C      1  0.6068840000000  0.4091680000000  0.4201850000000 1.0
C      1  0.3935420000000  0.3960970000000  0.4387000000000 1.0
C      1  0.3930220000000  0.5262780000000  0.3820830000000 1.0
C      1  0.3930260000000  0.6178210000000  0.4897640000000 1.0
C      1  0.3933790000000  0.5482470000000  0.6093390000000 1.0
C      1  0.3930000000000  0.4093690000000  0.5798750000000 1.0
C      1  0.3042410000000  0.5075570000000  0.5972740000000 1.0
C      1  0.3032800000000  0.5955170000000  0.5234850000000 1.0
C      1  0.3042070000000  0.5519010000000  0.4160360000000 1.0
C      1  0.3045370000000  0.4361750000000  0.4250130000000 1.0
C      1  0.3043650000000  0.4083790000000  0.5368190000000 1.0
C      1  0.6959970000000  0.5078080000000  0.4027970000000 1.0
C      1  0.6963790000000  0.5954680000000  0.4766470000000 1.0
C      1  0.6954760000000  0.5516440000000  0.5839960000000 1.0
C      1  0.6953480000000  0.4358700000000  0.5749340000000 1.0
C      1  0.6954260000000  0.4083500000000  0.4633760000000 1.0
C      1  0.5298660000000  0.5074690000000  0.3501700000000 1.0
C      1  0.5297970000000  0.3588150000000  0.4463810000000 1.0
C      1  0.5295190000000  0.4058340000000  0.6178390000000 1.0
C      1  0.5297220000000  0.5831870000000  0.6268320000000 1.0
C      1  0.5297360000000  0.6461920000000  0.4599980000000 1.0
C      1  0.4703030000000  0.5075160000000  0.6498850000000 1.0
C      1  0.4703590000000  0.3587530000000  0.5536300000000 1.0
C      1  0.4705900000000  0.4057680000000  0.3821420000000 1.0
C      1  0.4702640000000  0.5831650000000  0.3731400000000 1.0
C      1  0.4703070000000  0.6462080000000  0.5399650000000 1.0
C      1  0.3777910000000  0.4051660000000  0.6778350000000 1.0
C      1  0.3778700000000  0.6394430000000  0.6449930000000 1.0
C      1  0.3786160000000  0.6797380000000  0.4141050000000 1.0
C      1  0.3777330000000  0.4724470000000  0.3002690000000 1.0
C      1  0.3779980000000  0.3015910000000  0.4641760000000 1.0
C      1  0.6221990000000  0.4051890000000  0.3222900000000 1.0
C      1  0.6221300000000  0.6394180000000  0.3550940000000 1.0
C      1  0.6213460000000  0.6796200000000  0.5858630000000 1.0
C      1  0.6222690000000  0.4724450000000  0.6995190000000 1.0
C      1  0.6219980000000  0.3017140000000  0.5357770000000 1.0
END
