TITL C-1525613-7943-7374 -0.000328873808750485 3375 -9533.06397892065 0 0 60 (D5d) n - 1
REM
REM in /home/nfs/bkarasulu/CARBON/AIRSS/Generating-Clusters/ReaxFF-fromJPCA2015/Units_Real/Try2-Higher-symm/Only-C60
REM
REM
REM
REM
REM
REM ./C.cell (863b2abdce7293c0672fb3ba77bf323a)
REM AIRSS Version 0.9.1 bugfix July 2018 build 013d7b7c2542+ Fri, 06 Jul 2018 19:26:36 +0100
REM compiler GCC version 9.2.1 20190827 (Red Hat 9.2.1-1)
REM options -cpp -mtune=generic -march=x86-64 -g -O0 -fpre-include=/usr/include/finclude/math-vector-fortran.h
REM seed 1063418034 -1289132002 263274887 704698368 -209483561 105562386 2104608569 -1824190527 1821257619 -1655484137 666076349 -2006491538 -1992163640 8295422 -931186529 -1930442099 -1713812863 501505222 1892850949 1592774927 1809122238 1994889060 -1174531692 518455855 -978552227 -1135850539 -1000509851 1453164631 676303026 -1396541614 1931215658 -1562611361 1444393369
REM
CELL 1.54180   15.00000   15.00000   15.00000   90.00000   90.00000   90.00000
LATT -1
SFAC C  
C      1  0.7042730000000  0.6217100000000  0.4089160000000 1.0
C      1  0.6497560000000  0.6217150000000  0.6661610000000 1.0
C      1  0.3882570000000  0.6217280000000  0.6938050000000 1.0
C      1  0.2812100000000  0.6217340000000  0.4536100000000 1.0
C      1  0.4765040000000  0.6217250000000  0.2775150000000 1.0
C      1  0.7042760000000  0.6217130000000  0.5910840000000 1.0
C      1  0.6497590000000  0.6217190000000  0.3338370000000 1.0
C      1  0.3882610000000  0.6217270000000  0.3061910000000 1.0
C      1  0.2812150000000  0.6217340000000  0.5463940000000 1.0
C      1  0.4765030000000  0.6217230000000  0.7224830000000 1.0
C      1  0.3502470000000  0.3782900000000  0.6661550000000 1.0
C      1  0.2957100000000  0.3782980000000  0.4089130000000 1.0
C      1  0.5235000000000  0.3782730000000  0.2775430000000 1.0
C      1  0.7188190000000  0.3782600000000  0.4536110000000 1.0
C      1  0.6117430000000  0.3782690000000  0.6937810000000 1.0
C      1  0.3502420000000  0.3782920000000  0.3338460000000 1.0
C      1  0.2957100000000  0.3782950000000  0.5910900000000 1.0
C      1  0.5234990000000  0.3782670000000  0.7224620000000 1.0
C      1  0.7188170000000  0.3782620000000  0.5463940000000 1.0
C      1  0.6117400000000  0.3782740000000  0.3062260000000 1.0
C      1  0.6501050000000  0.3097970000000  0.4505300000000 1.0
C      1  0.5934400000000  0.3098140000000  0.6274720000000 1.0
C      1  0.4076570000000  0.3098380000000  0.6282500000000 1.0
C      1  0.3494980000000  0.3098480000000  0.4517990000000 1.0
C      1  0.4993380000000  0.3098130000000  0.3419490000000 1.0
C      1  0.6501070000000  0.3097970000000  0.5494810000000 1.0
C      1  0.5934340000000  0.3098270000000  0.3725410000000 1.0
C      1  0.4076520000000  0.3098410000000  0.3717510000000 1.0
C      1  0.3494940000000  0.3098370000000  0.5482080000000 1.0
C      1  0.4993410000000  0.3098050000000  0.6580550000000 1.0
C      1  0.5250140000000  0.5409750000000  0.2677490000000 1.0
C      1  0.7285710000000  0.5409660000000  0.4520370000000 1.0
C      1  0.6162400000000  0.5409610000000  0.7025960000000 1.0
C      1  0.3432450000000  0.5409690000000  0.6731860000000 1.0
C      1  0.2868750000000  0.5409840000000  0.4044260000000 1.0
C      1  0.5250160000000  0.5409720000000  0.7322430000000 1.0
C      1  0.7285740000000  0.5409610000000  0.5479580000000 1.0
C      1  0.6162420000000  0.5409590000000  0.2973980000000 1.0
C      1  0.3432440000000  0.5409750000000  0.3268060000000 1.0
C      1  0.2868820000000  0.5409880000000  0.5955660000000 1.0
C      1  0.2714040000000  0.4590540000000  0.5479600000000 1.0
C      1  0.3837350000000  0.4590340000000  0.2973930000000 1.0
C      1  0.6567330000000  0.4590160000000  0.3268250000000 1.0
C      1  0.7131130000000  0.4590140000000  0.5955660000000 1.0
C      1  0.4749640000000  0.4590300000000  0.7322450000000 1.0
C      1  0.2714060000000  0.4590500000000  0.4520330000000 1.0
C      1  0.3837380000000  0.4590280000000  0.7026040000000 1.0
C      1  0.6567340000000  0.4590170000000  0.6731710000000 1.0
C      1  0.7131140000000  0.4590190000000  0.4044310000000 1.0
C      1  0.4749640000000  0.4590330000000  0.2677440000000 1.0
C      1  0.5006750000000  0.6901910000000  0.6580900000000 1.0
C      1  0.3499560000000  0.6901680000000  0.5494730000000 1.0
C      1  0.4065790000000  0.6901770000000  0.3725030000000 1.0
C      1  0.5923570000000  0.6901870000000  0.3717240000000 1.0
C      1  0.6504800000000  0.6901620000000  0.5482040000000 1.0
C      1  0.5006740000000  0.6901850000000  0.3419150000000 1.0
C      1  0.3499500000000  0.6901670000000  0.4505270000000 1.0
C      1  0.4065800000000  0.6901870000000  0.6274990000000 1.0
C      1  0.5923550000000  0.6901880000000  0.6282800000000 1.0
C      1  0.6504810000000  0.6901590000000  0.4518000000000 1.0
END
