TITL C-1525613-7943-540 0.0285704975771415 3375 -8705.93630047566 0 0 60 (C1) n - 1
REM
REM in /home/nfs/bkarasulu/CARBON/AIRSS/Generating-Clusters/ReaxFF-fromJPCA2015/Units_Real/Try2-Higher-symm/Only-C60
REM
REM
REM
REM
REM
REM ./C.cell (863b2abdce7293c0672fb3ba77bf323a)
REM AIRSS Version 0.9.1 bugfix July 2018 build 013d7b7c2542+ Fri, 06 Jul 2018 19:26:36 +0100
REM compiler GCC version 9.2.1 20190827 (Red Hat 9.2.1-1)
REM options -cpp -mtune=generic -march=x86-64 -g -O0 -fpre-include=/usr/include/finclude/math-vector-fortran.h
REM seed 2048475678 -1432986640 1526212461 2024755592 -1998461057 1410745677 1469200564 1220038386 1631273797 -1494844205 2100505683 -1718705828 989066132 1109072599 -1458354857 1028918644 1353339276 389182087 29272485 -536266138 -305130682 -1931948246 570416388 297929935 536448695 1861222231 -71241583 -1768033932 849055469 983567409 1222891181 -572124949 -912354620
REM
CELL 1.54180   15.00000   15.00000   15.00000   90.00000   90.00000   90.00000
LATT -1
SFAC C  
C      1  0.2976550000000  0.4949890000000  0.3975640000000 1.0
C      1  0.4177450000000  0.3089160000000  0.4023580000000 1.0
C      1  0.6581410000000  0.3737800000000  0.4005370000000 1.0
C      1  0.6647220000000  0.6250860000000  0.4014480000000 1.0
C      1  0.4523110000000  0.6985470000000  0.4046120000000 1.0
C      1  0.2977590000000  0.4949440000000  0.6024740000000 1.0
C      1  0.4177670000000  0.3090710000000  0.5975260000000 1.0
C      1  0.6581170000000  0.3738350000000  0.5993290000000 1.0
C      1  0.6647420000000  0.6250420000000  0.5984510000000 1.0
C      1  0.4523900000000  0.6985070000000  0.5954170000000 1.0
C      1  0.3701570000000  0.6665230000000  0.5482470000000 1.0
C      1  0.2822180000000  0.4142600000000  0.5481880000000 1.0
C      1  0.4998170000000  0.2842040000000  0.5476170000000 1.0
C      1  0.7057360000000  0.4464900000000  0.5481740000000 1.0
C      1  0.6278700000000  0.6997630000000  0.5486800000000 1.0
C      1  0.3701960000000  0.6666050000000  0.4517920000000 1.0
C      1  0.2822690000000  0.4142140000000  0.4516350000000 1.0
C      1  0.4998300000000  0.2841220000000  0.4523530000000 1.0
C      1  0.7057630000000  0.4464730000000  0.4516950000000 1.0
C      1  0.6278160000000  0.6997680000000  0.4512660000000 1.0
C      1  0.5856860000000  0.6163080000000  0.3356070000000 1.0
C      1  0.4185260000000  0.6019610000000  0.2915520000000 1.0
C      1  0.3393250000000  0.4609210000000  0.3179370000000 1.0
C      1  0.5215500000000  0.3692790000000  0.3312810000000 1.0
C      1  0.6415480000000  0.4607940000000  0.2922750000000 1.0
C      1  0.5857250000000  0.6163400000000  0.6644910000000 1.0
C      1  0.4184760000000  0.6020050000000  0.7084550000000 1.0
C      1  0.3392580000000  0.4608810000000  0.6821260000000 1.0
C      1  0.5216840000000  0.3689710000000  0.6690730000000 1.0
C      1  0.6415590000000  0.4608830000000  0.7076650000000 1.0
C      1  0.6173920000000  0.3739880000000  0.3100840000000 1.0
C      1  0.6329390000000  0.5438060000000  0.2964340000000 1.0
C      1  0.4818070000000  0.6593980000000  0.3212950000000 1.0
C      1  0.3646210000000  0.5414090000000  0.2855940000000 1.0
C      1  0.4202090000000  0.3893910000000  0.3372510000000 1.0
C      1  0.6175950000000  0.3739710000000  0.6898500000000 1.0
C      1  0.6330410000000  0.5437980000000  0.7035620000000 1.0
C      1  0.4817760000000  0.6595380000000  0.6788900000000 1.0
C      1  0.3644840000000  0.5413950000000  0.7143140000000 1.0
C      1  0.4200690000000  0.3894270000000  0.6627920000000 1.0
C      1  0.6017400000000  0.3103890000000  0.5474050000000 1.0
C      1  0.7065250000000  0.5500310000000  0.5481020000000 1.0
C      1  0.5308490000000  0.7331850000000  0.5482920000000 1.0
C      1  0.3098160000000  0.5837760000000  0.5476850000000 1.0
C      1  0.3353890000000  0.3261150000000  0.5487110000000 1.0
C      1  0.6018500000000  0.3102800000000  0.4525530000000 1.0
C      1  0.7065480000000  0.5500440000000  0.4518050000000 1.0
C      1  0.5308270000000  0.7331000000000  0.4516820000000 1.0
C      1  0.3097350000000  0.5838060000000  0.4522230000000 1.0
C      1  0.3353880000000  0.3260640000000  0.4511520000000 1.0
C      1  0.5256350000000  0.4201140000000  0.4130030000000 1.0
C      1  0.5764910000000  0.4919590000000  0.4524930000000 1.0
C      1  0.5303870000000  0.5676600000000  0.4148960000000 1.0
C      1  0.4442120000000  0.5386570000000  0.4489140000000 1.0
C      1  0.4388760000000  0.4482070000000  0.4168560000000 1.0
C      1  0.5257290000000  0.4202760000000  0.5872890000000 1.0
C      1  0.5763570000000  0.4917600000000  0.5478260000000 1.0
C      1  0.5303480000000  0.5678990000000  0.5852750000000 1.0
C      1  0.4442220000000  0.5386010000000  0.5510100000000 1.0
C      1  0.4387880000000  0.4484720000000  0.5829400000000 1.0
END
