TITL C-1525613-7943-4272 0.157203160272164 3375 -8826.07312570031 0 0 60 (C2) n - 1
REM
REM in /home/nfs/bkarasulu/CARBON/AIRSS/Generating-Clusters/ReaxFF-fromJPCA2015/Units_Real/Try2-Higher-symm/Only-C60
REM
REM
REM
REM
REM
REM ./C.cell (863b2abdce7293c0672fb3ba77bf323a)
REM AIRSS Version 0.9.1 bugfix July 2018 build 013d7b7c2542+ Fri, 06 Jul 2018 19:26:36 +0100
REM compiler GCC version 9.2.1 20190827 (Red Hat 9.2.1-1)
REM options -cpp -mtune=generic -march=x86-64 -g -O0 -fpre-include=/usr/include/finclude/math-vector-fortran.h
REM seed 1701492867 -505195611 1298233783 -1640669681 232306739 -1941362458 2112447738 -577551032 76856301 -1318613561 -1032587447 1989253810 -1876041536 -1865085960 476111666 -518995022 -1326632706 -356295790 1783151045 1743169089 1785201002 -2114626993 1532653175 -2041327443 899664710 1775038975 564824243 -374376718 183030254 1852571581 -2119325072 -260115520 242279561
REM
CELL 1.54180   15.00000   15.00000   15.00000   90.00000   90.00000   90.00000
LATT -1
SFAC C  
C      1  0.3343490000000  0.3485790000000  0.5518150000000 1.0
C      1  0.3350880000000  0.3476890000000  0.4532820000000 1.0
C      1  0.3339080000000  0.4047370000000  0.3721230000000 1.0
C      1  0.3209640000000  0.4980880000000  0.3335520000000 1.0
C      1  0.3370930000000  0.5919000000000  0.3683140000000 1.0
C      1  0.3343490000000  0.6514210000000  0.4481850000000 1.0
C      1  0.3350880000000  0.6523110000000  0.5467180000000 1.0
C      1  0.3339080000000  0.5952630000000  0.6278770000000 1.0
C      1  0.3209640000000  0.5019120000000  0.6664480000000 1.0
C      1  0.3370930000000  0.4081000000000  0.6316860000000 1.0
C      1  0.5329790000000  0.7024060000000  0.3529590000000 1.0
C      1  0.5214870000000  0.7444210000000  0.5001370000000 1.0
C      1  0.5320170000000  0.7008990000000  0.6477440000000 1.0
C      1  0.5236620000000  0.5728420000000  0.7363930000000 1.0
C      1  0.5256240000000  0.4256140000000  0.7372340000000 1.0
C      1  0.5329790000000  0.2975940000000  0.6470410000000 1.0
C      1  0.5214870000000  0.2555790000000  0.4998630000000 1.0
C      1  0.5320170000000  0.2991010000000  0.3522560000000 1.0
C      1  0.5236620000000  0.4271580000000  0.2636070000000 1.0
C      1  0.5256240000000  0.5743860000000  0.2627660000000 1.0
C      1  0.6866190000000  0.3456420000000  0.4950170000000 1.0
C      1  0.6957650000000  0.3784170000000  0.4056280000000 1.0
C      1  0.6902370000000  0.4572390000000  0.3521640000000 1.0
C      1  0.6888390000000  0.5521040000000  0.3553930000000 1.0
C      1  0.6959560000000  0.6276690000000  0.4134430000000 1.0
C      1  0.6866190000000  0.6543580000000  0.5049830000000 1.0
C      1  0.6957650000000  0.6215830000000  0.5943720000000 1.0
C      1  0.6902370000000  0.5427610000000  0.6478360000000 1.0
C      1  0.6888390000000  0.4478960000000  0.6446070000000 1.0
C      1  0.6959560000000  0.3723310000000  0.5865570000000 1.0
C      1  0.4769310000000  0.7508250000000  0.4148240000000 1.0
C      1  0.4775210000000  0.7510430000000  0.5854290000000 1.0
C      1  0.4782730000000  0.6549260000000  0.7128840000000 1.0
C      1  0.4707220000000  0.4987770000000  0.7748180000000 1.0
C      1  0.4806610000000  0.3434480000000  0.7140490000000 1.0
C      1  0.4769310000000  0.2491750000000  0.5851760000000 1.0
C      1  0.4775210000000  0.2489570000000  0.4145710000000 1.0
C      1  0.4782730000000  0.3450740000000  0.2871160000000 1.0
C      1  0.4707220000000  0.5012230000000  0.2251820000000 1.0
C      1  0.4806610000000  0.6565520000000  0.2859510000000 1.0
C      1  0.3840960000000  0.6644000000000  0.6777710000000 1.0
C      1  0.3879960000000  0.4987880000000  0.7286840000000 1.0
C      1  0.3855840000000  0.3374360000000  0.6816410000000 1.0
C      1  0.3831550000000  0.2789080000000  0.6034670000000 1.0
C      1  0.3829030000000  0.2771950000000  0.4006570000000 1.0
C      1  0.3840960000000  0.3356000000000  0.3222290000000 1.0
C      1  0.3879960000000  0.5012120000000  0.2713160000000 1.0
C      1  0.3855840000000  0.6625640000000  0.3183590000000 1.0
C      1  0.3831550000000  0.7210920000000  0.3965330000000 1.0
C      1  0.3829030000000  0.7228050000000  0.5993430000000 1.0
C      1  0.5848660000000  0.4511020000000  0.3414150000000 1.0
C      1  0.5838280000000  0.5511770000000  0.3425450000000 1.0
C      1  0.5930860000000  0.6374460000000  0.4020520000000 1.0
C      1  0.5834580000000  0.6644380000000  0.5009320000000 1.0
C      1  0.5923340000000  0.6349610000000  0.6002470000000 1.0
C      1  0.5848660000000  0.5488980000000  0.6585850000000 1.0
C      1  0.5838280000000  0.4488230000000  0.6574550000000 1.0
C      1  0.5930860000000  0.3625540000000  0.5979480000000 1.0
C      1  0.5834580000000  0.3355620000000  0.4990680000000 1.0
C      1  0.5923340000000  0.3650390000000  0.3997530000000 1.0
END
