TITL C-1525613-7943-6652 -0.0321464193458486 3375 -8704.77921394157 0 0 60 (C1) n - 1
REM
REM in /home/nfs/bkarasulu/CARBON/AIRSS/Generating-Clusters/ReaxFF-fromJPCA2015/Units_Real/Try2-Higher-symm/Only-C60
REM
REM
REM
REM
REM
REM ./C.cell (863b2abdce7293c0672fb3ba77bf323a)
REM AIRSS Version 0.9.1 bugfix July 2018 build 013d7b7c2542+ Fri, 06 Jul 2018 19:26:36 +0100
REM compiler GCC version 9.2.1 20190827 (Red Hat 9.2.1-1)
REM options -cpp -mtune=generic -march=x86-64 -g -O0 -fpre-include=/usr/include/finclude/math-vector-fortran.h
REM seed -740158729 1837013035 -699565389 717961161 639938823 -168663430 -826368350 -1697988418 -630911940 121840641 -955213815 1907641470 836597888 213075735 -531351642 1260984824 422354892 231710310 -394790695 588741263 -659243308 229395086 -1013949310 257147882 736010073 1321064564 -341667178 1657288778 -1117878785 -258434846 813705521 -1056801218 2095598098
REM
CELL 1.54180   15.00000   15.00000   15.00000   90.00000   90.00000   90.00000
LATT -1
SFAC C  
C      1  0.4177170000000  0.3382290000000  0.6388730000000 1.0
C      1  0.3643060000000  0.3478220000000  0.5589740000000 1.0
C      1  0.3864910000000  0.3380870000000  0.4736050000000 1.0
C      1  0.4012490000000  0.3324950000000  0.3832990000000 1.0
C      1  0.4883440000000  0.3377870000000  0.3370170000000 1.0
C      1  0.5810860000000  0.3394620000000  0.3608760000000 1.0
C      1  0.6347820000000  0.3474070000000  0.4404340000000 1.0
C      1  0.6131870000000  0.3388020000000  0.5260580000000 1.0
C      1  0.5989270000000  0.3342350000000  0.6162670000000 1.0
C      1  0.5112830000000  0.3409990000000  0.6637440000000 1.0
C      1  0.2943780000000  0.6720710000000  0.6104900000000 1.0
C      1  0.2598200000000  0.6671940000000  0.4477910000000 1.0
C      1  0.3281940000000  0.6605270000000  0.3428440000000 1.0
C      1  0.4864600000000  0.6657890000000  0.2790180000000 1.0
C      1  0.6139630000000  0.6601760000000  0.2943700000000 1.0
C      1  0.7051850000000  0.6723540000000  0.3892940000000 1.0
C      1  0.7410070000000  0.6689140000000  0.5530050000000 1.0
C      1  0.6720340000000  0.6615860000000  0.6573160000000 1.0
C      1  0.5125020000000  0.6706730000000  0.7221650000000 1.0
C      1  0.3872380000000  0.6656860000000  0.7020300000000 1.0
C      1  0.2076350000000  0.4405880000000  0.5359040000000 1.0
C      1  0.2682030000000  0.4153000000000  0.3853370000000 1.0
C      1  0.3930770000000  0.4496860000000  0.2816510000000 1.0
C      1  0.5552620000000  0.4500740000000  0.2589660000000 1.0
C      1  0.7136050000000  0.4208640000000  0.3187170000000 1.0
C      1  0.7933450000000  0.4409360000000  0.4630670000000 1.0
C      1  0.7301550000000  0.4144170000000  0.6121600000000 1.0
C      1  0.6084010000000  0.4511700000000  0.7192050000000 1.0
C      1  0.4450480000000  0.4439280000000  0.7399470000000 1.0
C      1  0.2844750000000  0.4209430000000  0.6825870000000 1.0
C      1  0.3681480000000  0.3877870000000  0.7112070000000 1.0
C      1  0.2743420000000  0.4049740000000  0.5926520000000 1.0
C      1  0.2267160000000  0.4325910000000  0.4567040000000 1.0
C      1  0.3340110000000  0.3879950000000  0.3275670000000 1.0
C      1  0.4736020000000  0.3991940000000  0.2610870000000 1.0
C      1  0.6294460000000  0.3919020000000  0.2883460000000 1.0
C      1  0.7259550000000  0.4043620000000  0.4087370000000 1.0
C      1  0.7722440000000  0.4318560000000  0.5406300000000 1.0
C      1  0.6665030000000  0.3885570000000  0.6725440000000 1.0
C      1  0.5300250000000  0.3983070000000  0.7421840000000 1.0
C      1  0.6260360000000  0.5342780000000  0.5758390000000 1.0
C      1  0.5757790000000  0.5267340000000  0.6638760000000 1.0
C      1  0.4666100000000  0.5191290000000  0.6765840000000 1.0
C      1  0.4008160000000  0.5429400000000  0.6008340000000 1.0
C      1  0.3957880000000  0.5324530000000  0.5120300000000 1.0
C      1  0.3740710000000  0.5334880000000  0.4248390000000 1.0
C      1  0.4243480000000  0.5264000000000  0.3367310000000 1.0
C      1  0.5330340000000  0.5231080000000  0.3220480000000 1.0
C      1  0.6008310000000  0.5375000000000  0.3987150000000 1.0
C      1  0.6048150000000  0.5306500000000  0.4885170000000 1.0
C      1  0.2939230000000  0.5952270000000  0.3973540000000 1.0
C      1  0.4052900000000  0.6314780000000  0.3012120000000 1.0
C      1  0.5473450000000  0.6179400000000  0.2679750000000 1.0
C      1  0.6580720000000  0.6055380000000  0.3496900000000 1.0
C      1  0.7318160000000  0.6796760000000  0.4684670000000 1.0
C      1  0.7061890000000  0.5963830000000  0.6025290000000 1.0
C      1  0.5935850000000  0.6332800000000  0.6980040000000 1.0
C      1  0.4496690000000  0.6060210000000  0.7373220000000 1.0
C      1  0.3447680000000  0.6149070000000  0.6475490000000 1.0
C      1  0.2688660000000  0.6771450000000  0.5332130000000 1.0
END
