TITL C-1525613-7943-1818 0.0341148194157918 3375 -9063.88545989347 0 0 60 (C1) n - 1
REM
REM in /home/nfs/bkarasulu/CARBON/AIRSS/Generating-Clusters/ReaxFF-fromJPCA2015/Units_Real/Try2-Higher-symm/Only-C60
REM
REM
REM
REM
REM
REM ./C.cell (863b2abdce7293c0672fb3ba77bf323a)
REM AIRSS Version 0.9.1 bugfix July 2018 build 013d7b7c2542+ Fri, 06 Jul 2018 19:26:36 +0100
REM compiler GCC version 9.2.1 20190827 (Red Hat 9.2.1-1)
REM options -cpp -mtune=generic -march=x86-64 -g -O0 -fpre-include=/usr/include/finclude/math-vector-fortran.h
REM seed -972512606 1619789461 18827642 689443386 90120791 -2091539252 -555268686 153023482 -1385535179 888117455 -432647790 -474881874 1267847016 -1976045929 319485933 253643171 -145969514 -2061110221 1797970152 2120753350 -1657476326 1588381701 1840296374 -5113339 -629713693 -1163510083 1298082710 -28510178 -933697343 -1779810865 2028366769 -1747722931 207908770
REM
CELL 1.54180   15.00000   15.00000   15.00000   90.00000   90.00000   90.00000
LATT -1
SFAC C  
C      1  0.6543430000000  0.7029620000000  0.4346810000000 1.0
C      1  0.6676710000000  0.2970300000000  0.5329470000000 1.0
C      1  0.6152230000000  0.7018890000000  0.6282060000000 1.0
C      1  0.5196880000000  0.2994540000000  0.6660740000000 1.0
C      1  0.4140170000000  0.7026270000000  0.6536240000000 1.0
C      1  0.3458490000000  0.2972640000000  0.5670060000000 1.0
C      1  0.3304650000000  0.7022840000000  0.4695970000000 1.0
C      1  0.3845000000000  0.2981970000000  0.3731630000000 1.0
C      1  0.4795680000000  0.7078090000000  0.3322070000000 1.0
C      1  0.5859340000000  0.2942890000000  0.3473280000000 1.0
C      1  0.5244020000000  0.3274820000000  0.2789290000000 1.0
C      1  0.6474340000000  0.6749850000000  0.3416670000000 1.0
C      1  0.7156130000000  0.3284300000000  0.4541070000000 1.0
C      1  0.6963000000000  0.6667490000000  0.5913630000000 1.0
C      1  0.6066670000000  0.3348020000000  0.6847050000000 1.0
C      1  0.4755010000000  0.6678240000000  0.7209240000000 1.0
C      1  0.3550080000000  0.3314950000000  0.6575810000000 1.0
C      1  0.2855630000000  0.6645960000000  0.5474290000000 1.0
C      1  0.3034770000000  0.3342510000000  0.4103870000000 1.0
C      1  0.3904250000000  0.6733300000000  0.3116470000000 1.0
C      1  0.4898680000000  0.7335820000000  0.4240490000000 1.0
C      1  0.5403180000000  0.2655750000000  0.4267900000000 1.0
C      1  0.5720390000000  0.7318890000000  0.4710670000000 1.0
C      1  0.5794480000000  0.2664820000000  0.5134710000000 1.0
C      1  0.5533280000000  0.7315240000000  0.5632460000000 1.0
C      1  0.5093740000000  0.2668010000000  0.5767960000000 1.0
C      1  0.4593020000000  0.7320970000000  0.5742700000000 1.0
C      1  0.4275620000000  0.2666190000000  0.5301710000000 1.0
C      1  0.4197480000000  0.7322040000000  0.4880250000000 1.0
C      1  0.4460050000000  0.2669630000000  0.4377350000000 1.0
C      1  0.7047400000000  0.5871560000000  0.5458940000000 1.0
C      1  0.6389890000000  0.4157960000000  0.6539170000000 1.0
C      1  0.5236730000000  0.5836440000000  0.7110730000000 1.0
C      1  0.3983920000000  0.4128300000000  0.6801120000000 1.0
C      1  0.3097950000000  0.5809170000000  0.5904930000000 1.0
C      1  0.2943740000000  0.4127600000000  0.4597780000000 1.0
C      1  0.3548070000000  0.5872700000000  0.3432400000000 1.0
C      1  0.4765060000000  0.4127680000000  0.2845180000000 1.0
C      1  0.6060870000000  0.5912240000000  0.3133770000000 1.0
C      1  0.6960900000000  0.4137880000000  0.4100350000000 1.0
C      1  0.4016770000000  0.5186770000000  0.3947930000000 1.0
C      1  0.4836170000000  0.4808670000000  0.3551480000000 1.0
C      1  0.5726630000000  0.5207660000000  0.3733790000000 1.0
C      1  0.6332080000000  0.4819720000000  0.4408120000000 1.0
C      1  0.6401480000000  0.5190010000000  0.5319000000000 1.0
C      1  0.5955460000000  0.4808490000000  0.6053980000000 1.0
C      1  0.5166820000000  0.5177580000000  0.6398650000000 1.0
C      1  0.4295840000000  0.4790760000000  0.6221310000000 1.0
C      1  0.3712440000000  0.5163730000000  0.5611380000000 1.0
C      1  0.3593140000000  0.4801110000000  0.4749770000000 1.0
C      1  0.6757890000000  0.3287110000000  0.3650120000000 1.0
C      1  0.7149700000000  0.6666760000000  0.4996210000000 1.0
C      1  0.6773350000000  0.3337640000000  0.6223120000000 1.0
C      1  0.5722470000000  0.6678790000000  0.7086860000000 1.0
C      1  0.4380460000000  0.3334700000000  0.7037940000000 1.0
C      1  0.3257270000000  0.6652630000000  0.6359410000000 1.0
C      1  0.2849370000000  0.3321570000000  0.5023430000000 1.0
C      1  0.3183610000000  0.6716030000000  0.3775850000000 1.0
C      1  0.4275740000000  0.3285170000000  0.2913200000000 1.0
C      1  0.5632360000000  0.6768690000000  0.2922110000000 1.0
END
