TITL C-1525613-7943-5538 0.0853664390085698 3375 -8745.8471106215 0 0 60 (C1) n - 1
REM
REM in /home/nfs/bkarasulu/CARBON/AIRSS/Generating-Clusters/ReaxFF-fromJPCA2015/Units_Real/Try2-Higher-symm/Only-C60
REM
REM
REM
REM
REM
REM ./C.cell (863b2abdce7293c0672fb3ba77bf323a)
REM AIRSS Version 0.9.1 bugfix July 2018 build 013d7b7c2542+ Fri, 06 Jul 2018 19:26:36 +0100
REM compiler GCC version 9.2.1 20190827 (Red Hat 9.2.1-1)
REM options -cpp -mtune=generic -march=x86-64 -g -O0 -fpre-include=/usr/include/finclude/math-vector-fortran.h
REM seed -1305686744 -977300529 -1232774375 1879549383 712754783 1079824180 1134060766 -1479544630 1600605607 -402588100 -465610152 519952420 -588264705 2142421486 -1804569151 1817388935 -374017361 57517823 -424802914 1601550824 -1930957908 -62548373 -2027303914 869501176 -163587834 1018651380 493915917 -2134748457 507966872 -853673177 1281002704 735230816 1062917872
REM
CELL 1.54180   15.00000   15.00000   15.00000   90.00000   90.00000   90.00000
LATT -1
SFAC C  
C      1  0.2965200000000  0.4172660000000  0.3948830000000 1.0
C      1  0.3630180000000  0.3978490000000  0.6702910000000 1.0
C      1  0.6158970000000  0.3874150000000  0.6854930000000 1.0
C      1  0.7432700000000  0.4105180000000  0.4720710000000 1.0
C      1  0.5533050000000  0.4076840000000  0.2861890000000 1.0
C      1  0.2980020000000  0.5844840000000  0.3961730000000 1.0
C      1  0.3648020000000  0.6009100000000  0.6703280000000 1.0
C      1  0.6154170000000  0.6134030000000  0.6860960000000 1.0
C      1  0.7401580000000  0.5929010000000  0.4722610000000 1.0
C      1  0.5535010000000  0.5921020000000  0.2811310000000 1.0
C      1  0.7195890000000  0.4088790000000  0.6012180000000 1.0
C      1  0.6681990000000  0.3881280000000  0.3600110000000 1.0
C      1  0.4192010000000  0.3918830000000  0.2849690000000 1.0
C      1  0.2804680000000  0.3987150000000  0.5279040000000 1.0
C      1  0.4850640000000  0.4095690000000  0.7278250000000 1.0
C      1  0.7189010000000  0.5917490000000  0.6019360000000 1.0
C      1  0.6687490000000  0.6129840000000  0.3593140000000 1.0
C      1  0.4202940000000  0.6074850000000  0.2858840000000 1.0
C      1  0.2810800000000  0.6017790000000  0.5290030000000 1.0
C      1  0.4855960000000  0.5905620000000  0.7312030000000 1.0
C      1  0.5916120000000  0.6881220000000  0.6103910000000 1.0
C      1  0.6184360000000  0.6861970000000  0.4225210000000 1.0
C      1  0.4483790000000  0.6885190000000  0.3489920000000 1.0
C      1  0.3251970000000  0.6901910000000  0.4884690000000 1.0
C      1  0.4103360000000  0.6921960000000  0.6393700000000 1.0
C      1  0.5917130000000  0.3114330000000  0.6118730000000 1.0
C      1  0.6165480000000  0.3142480000000  0.4246890000000 1.0
C      1  0.4485180000000  0.3111050000000  0.3479480000000 1.0
C      1  0.3245880000000  0.3106250000000  0.4870890000000 1.0
C      1  0.4096110000000  0.3072900000000  0.6384530000000 1.0
C      1  0.3951730000000  0.7049380000000  0.4244740000000 1.0
C      1  0.3801490000000  0.7264250000000  0.5571470000000 1.0
C      1  0.5004400000000  0.7052980000000  0.6120090000000 1.0
C      1  0.6048400000000  0.6902510000000  0.5163240000000 1.0
C      1  0.5306590000000  0.6974060000000  0.3957710000000 1.0
C      1  0.3935840000000  0.2956850000000  0.4221070000000 1.0
C      1  0.3805410000000  0.2750450000000  0.5552500000000 1.0
C      1  0.5002220000000  0.2940660000000  0.6127540000000 1.0
C      1  0.6046770000000  0.3096050000000  0.5178630000000 1.0
C      1  0.5298480000000  0.3037690000000  0.3968380000000 1.0
C      1  0.6111050000000  0.4422870000000  0.3270670000000 1.0
C      1  0.3492360000000  0.4471320000000  0.3251760000000 1.0
C      1  0.3169020000000  0.4495710000000  0.6025860000000 1.0
C      1  0.5432660000000  0.4480920000000  0.6679060000000 1.0
C      1  0.6771300000000  0.4473910000000  0.5272720000000 1.0
C      1  0.6026790000000  0.5461910000000  0.3423800000000 1.0
C      1  0.3505320000000  0.5531150000000  0.3266570000000 1.0
C      1  0.3175780000000  0.5499720000000  0.6028370000000 1.0
C      1  0.5427180000000  0.5525210000000  0.6699680000000 1.0
C      1  0.6761030000000  0.5531630000000  0.5278370000000 1.0
C      1  0.4017540000000  0.5519500000000  0.7459580000000 1.0
C      1  0.6933340000000  0.5530430000000  0.6831210000000 1.0
C      1  0.7427270000000  0.5535580000000  0.3872030000000 1.0
C      1  0.4829130000000  0.5517540000000  0.2365630000000 1.0
C      1  0.2373680000000  0.5525220000000  0.4585170000000 1.0
C      1  0.4012890000000  0.4470150000000  0.7451380000000 1.0
C      1  0.6938820000000  0.4477490000000  0.6824480000000 1.0
C      1  0.7425390000000  0.4491670000000  0.3872780000000 1.0
C      1  0.4843310000000  0.4465590000000  0.2415130000000 1.0
C      1  0.2365080000000  0.4485650000000  0.4580560000000 1.0
END
