TITL C-1525613-7943-709 0.0440072523128294 3375 -8422.11113014523 0 0 60 (C2) n - 1
REM
REM in /home/nfs/bkarasulu/CARBON/AIRSS/Generating-Clusters/ReaxFF-fromJPCA2015/Units_Real/Try2-Higher-symm/Only-C60
REM
REM
REM
REM
REM
REM ./C.cell (863b2abdce7293c0672fb3ba77bf323a)
REM AIRSS Version 0.9.1 bugfix July 2018 build 013d7b7c2542+ Fri, 06 Jul 2018 19:26:36 +0100
REM compiler GCC version 9.2.1 20190827 (Red Hat 9.2.1-1)
REM options -cpp -mtune=generic -march=x86-64 -g -O0 -fpre-include=/usr/include/finclude/math-vector-fortran.h
REM seed -237571143 174769434 177502978 -1522382137 -377162389 -1518287175 -1562740639 5495464 869002578 636969844 -923838973 1187475448 1625783742 -172622283 -825465366 1255053236 1049580684 -1480261192 -1390836099 1531702220 -1422072398 -753977548 782956641 40934587 1182333216 250842535 1703327109 28026106 -1578681557 2105381855 -608090724 2082840893 1307500557
REM
CELL 1.54180   15.00000   15.00000   15.00000   90.00000   90.00000   90.00000
LATT -1
SFAC C  
C      1  0.4326210000000  0.5493300000000  0.5804420000000 1.0
C      1  0.5246860000000  0.5671050000000  0.5587230000000 1.0
C      1  0.5813020000000  0.4929250000000  0.5756040000000 1.0
C      1  0.5161030000000  0.4199610000000  0.5427400000000 1.0
C      1  0.4260420000000  0.4572900000000  0.5682420000000 1.0
C      1  0.4325620000000  0.4506620000000  0.4195180000000 1.0
C      1  0.5245910000000  0.4331000000000  0.4413550000000 1.0
C      1  0.5812540000000  0.5071690000000  0.4246340000000 1.0
C      1  0.5163190000000  0.5799620000000  0.4571290000000 1.0
C      1  0.4260020000000  0.5426290000000  0.4316770000000 1.0
C      1  0.6317420000000  0.5552800000000  0.7025580000000 1.0
C      1  0.5905280000000  0.3975220000000  0.7016960000000 1.0
C      1  0.4228620000000  0.3722360000000  0.6940320000000 1.0
C      1  0.3568750000000  0.5300930000000  0.7102310000000 1.0
C      1  0.4830530000000  0.6423730000000  0.7095850000000 1.0
C      1  0.6318840000000  0.4446570000000  0.2976320000000 1.0
C      1  0.5906740000000  0.6024270000000  0.2983090000000 1.0
C      1  0.4228400000000  0.6275140000000  0.3058560000000 1.0
C      1  0.3564910000000  0.4698450000000  0.2895830000000 1.0
C      1  0.4830000000000  0.3579460000000  0.2905920000000 1.0
C      1  0.3393430000000  0.4166750000000  0.5583050000000 1.0
C      1  0.3661550000000  0.6219300000000  0.5671380000000 1.0
C      1  0.6137320000000  0.7154740000000  0.5352660000000 1.0
C      1  0.6761300000000  0.5004030000000  0.5511790000000 1.0
C      1  0.5335660000000  0.3089360000000  0.5376270000000 1.0
C      1  0.3394150000000  0.5833560000000  0.4415860000000 1.0
C      1  0.3662440000000  0.3780860000000  0.4327770000000 1.0
C      1  0.6138310000000  0.2845140000000  0.4647060000000 1.0
C      1  0.6760480000000  0.4997120000000  0.4488960000000 1.0
C      1  0.5334980000000  0.6910840000000  0.4621810000000 1.0
C      1  0.3449940000000  0.5637860000000  0.2980030000000 1.0
C      1  0.5118620000000  0.6616820000000  0.3085960000000 1.0
C      1  0.6598830000000  0.5376830000000  0.3037590000000 1.0
C      1  0.5841830000000  0.3593280000000  0.3008360000000 1.0
C      1  0.3905260000000  0.3752010000000  0.2888860000000 1.0
C      1  0.3451110000000  0.4362380000000  0.7019280000000 1.0
C      1  0.5118960000000  0.3381450000000  0.6913330000000 1.0
C      1  0.6598620000000  0.4623790000000  0.6965060000000 1.0
C      1  0.5842500000000  0.6406890000000  0.6990910000000 1.0
C      1  0.3905720000000  0.6247470000000  0.7110800000000 1.0
C      1  0.2651930000000  0.4654890000000  0.5317960000000 1.0
C      1  0.3884790000000  0.7065520000000  0.5385650000000 1.0
C      1  0.6925630000000  0.6803460000000  0.5042410000000 1.0
C      1  0.7254080000000  0.3722060000000  0.5568260000000 1.0
C      1  0.4522940000000  0.2654230000000  0.5246480000000 1.0
C      1  0.2651400000000  0.5345590000000  0.4682070000000 1.0
C      1  0.3885510000000  0.2934880000000  0.4614640000000 1.0
C      1  0.6925900000000  0.3196470000000  0.4958370000000 1.0
C      1  0.7254160000000  0.6277510000000  0.4433150000000 1.0
C      1  0.4523620000000  0.7345760000000  0.4753350000000 1.0
C      1  0.4863230000000  0.2774070000000  0.6143990000000 1.0
C      1  0.2809530000000  0.4508360000000  0.6257840000000 1.0
C      1  0.3777020000000  0.6883600000000  0.6327420000000 1.0
C      1  0.6205240000000  0.6736560000000  0.6164730000000 1.0
C      1  0.7241160000000  0.4439750000000  0.6136130000000 1.0
C      1  0.4863550000000  0.7224670000000  0.3855360000000 1.0
C      1  0.2809730000000  0.5491890000000  0.3742340000000 1.0
C      1  0.3776410000000  0.3116480000000  0.3672590000000 1.0
C      1  0.6206870000000  0.3263610000000  0.3834750000000 1.0
C      1  0.7241960000000  0.5559890000000  0.3864320000000 1.0
END
