TITL C-1525613-7943-6489 0.155875761997615 3375 -8054.94987688035 0 0 60 (C2) n - 1
REM
REM in /home/nfs/bkarasulu/CARBON/AIRSS/Generating-Clusters/ReaxFF-fromJPCA2015/Units_Real/Try2-Higher-symm/Only-C60
REM
REM
REM
REM
REM
REM ./C.cell (863b2abdce7293c0672fb3ba77bf323a)
REM AIRSS Version 0.9.1 bugfix July 2018 build 013d7b7c2542+ Fri, 06 Jul 2018 19:26:36 +0100
REM compiler GCC version 9.2.1 20190827 (Red Hat 9.2.1-1)
REM options -cpp -mtune=generic -march=x86-64 -g -O0 -fpre-include=/usr/include/finclude/math-vector-fortran.h
REM seed 65736286 11325453 -116004579 123601035 1564641119 2137497968 2034607072 -1563145380 -1540462454 1171285024 -1208565364 -847034824 452986055 1151851282 1669595097 1629546446 1932437864 -1045724452 -774727029 789158084 496379700 216204430 634600433 1789451929 -1122821275 -638301879 480631515 1242090024 -1614387882 1966359484 -1731978896 -918742090 751303850
REM
CELL 1.54180   15.00000   15.00000   15.00000   90.00000   90.00000   90.00000
LATT -1
SFAC C  
C      1  0.5346940000000  0.2425680000000  0.4728030000000 1.0
C      1  0.5340760000000  0.2763940000000  0.6281100000000 1.0
C      1  0.5312940000000  0.3964320000000  0.7314940000000 1.0
C      1  0.5357020000000  0.5540660000000  0.7524480000000 1.0
C      1  0.5319510000000  0.6904250000000  0.6712360000000 1.0
C      1  0.5349570000000  0.7574300000000  0.5271930000000 1.0
C      1  0.5338210000000  0.7235980000000  0.3716440000000 1.0
C      1  0.5311690000000  0.6035740000000  0.2681770000000 1.0
C      1  0.5357800000000  0.4461350000000  0.2477680000000 1.0
C      1  0.5321090000000  0.3095320000000  0.3285590000000 1.0
C      1  0.5842170000000  0.3814870000000  0.3935700000000 1.0
C      1  0.5884440000000  0.3381450000000  0.4835230000000 1.0
C      1  0.5903060000000  0.3586860000000  0.5797270000000 1.0
C      1  0.5817810000000  0.4356160000000  0.6424500000000 1.0
C      1  0.5924760000000  0.5339590000000  0.6585480000000 1.0
C      1  0.5836790000000  0.6184630000000  0.6061430000000 1.0
C      1  0.5887080000000  0.6619420000000  0.5166540000000 1.0
C      1  0.5908900000000  0.6411620000000  0.4202300000000 1.0
C      1  0.5810190000000  0.5635250000000  0.3572980000000 1.0
C      1  0.5919660000000  0.4656900000000  0.3413550000000 1.0
C      1  0.6845140000000  0.6152820000000  0.6036970000000 1.0
C      1  0.6909200000000  0.6559180000000  0.5165210000000 1.0
C      1  0.6931070000000  0.6351530000000  0.4233180000000 1.0
C      1  0.6822330000000  0.5630630000000  0.3602880000000 1.0
C      1  0.6937050000000  0.4678630000000  0.3496150000000 1.0
C      1  0.6853830000000  0.3848720000000  0.3966460000000 1.0
C      1  0.6906910000000  0.3443770000000  0.4836990000000 1.0
C      1  0.6920370000000  0.3648580000000  0.5771510000000 1.0
C      1  0.6832010000000  0.4372060000000  0.6403730000000 1.0
C      1  0.6946170000000  0.5323960000000  0.6504470000000 1.0
C      1  0.3371560000000  0.7187560000000  0.5673570000000 1.0
C      1  0.2982810000000  0.7174670000000  0.4726990000000 1.0
C      1  0.3186380000000  0.6224900000000  0.2813600000000 1.0
C      1  0.3130250000000  0.5268200000000  0.2523880000000 1.0
C      1  0.3018680000000  0.3327540000000  0.3515750000000 1.0
C      1  0.3371340000000  0.2812670000000  0.4326270000000 1.0
C      1  0.2983520000000  0.2824950000000  0.5273290000000 1.0
C      1  0.3186680000000  0.3774850000000  0.7186130000000 1.0
C      1  0.3129020000000  0.4731540000000  0.7475400000000 1.0
C      1  0.3019840000000  0.6673200000000  0.6484720000000 1.0
C      1  0.3602010000000  0.5883690000000  0.6218140000000 1.0
C      1  0.3936450000000  0.6386060000000  0.5432770000000 1.0
C      1  0.3561970000000  0.6366870000000  0.4516700000000 1.0
C      1  0.3708510000000  0.5913900000000  0.3653340000000 1.0
C      1  0.3676430000000  0.5003940000000  0.3365810000000 1.0
C      1  0.3600670000000  0.4117150000000  0.3782610000000 1.0
C      1  0.3936440000000  0.3614070000000  0.4566980000000 1.0
C      1  0.3563540000000  0.3632170000000  0.5483770000000 1.0
C      1  0.3709040000000  0.4086210000000  0.6346680000000 1.0
C      1  0.3675650000000  0.4996240000000  0.6633800000000 1.0
C      1  0.5071320000000  0.2381600000000  0.3835150000000 1.0
C      1  0.5063140000000  0.2200290000000  0.5589970000000 1.0
C      1  0.5057560000000  0.3089200000000  0.7108990000000 1.0
C      1  0.5073000000000  0.4707870000000  0.7830750000000 1.0
C      1  0.5062150000000  0.6424160000000  0.7472420000000 1.0
C      1  0.5072290000000  0.7619460000000  0.6164310000000 1.0
C      1  0.5064930000000  0.7796280000000  0.4408690000000 1.0
C      1  0.5056300000000  0.6911940000000  0.2889550000000 1.0
C      1  0.5072000000000  0.5293890000000  0.2165470000000 1.0
C      1  0.5062070000000  0.3576750000000  0.2527640000000 1.0
END
