TITL C-1525613-7943-3779 -0.394151893985174 3375 -9193.77141730199 0 0 60 (S10) n - 1
REM
REM in /home/nfs/bkarasulu/CARBON/AIRSS/Generating-Clusters/ReaxFF-fromJPCA2015/Units_Real/Try2-Higher-symm/Only-C60
REM
REM
REM
REM
REM
REM ./C.cell (863b2abdce7293c0672fb3ba77bf323a)
REM AIRSS Version 0.9.1 bugfix July 2018 build 013d7b7c2542+ Fri, 06 Jul 2018 19:26:36 +0100
REM compiler GCC version 9.2.1 20190827 (Red Hat 9.2.1-1)
REM options -cpp -mtune=generic -march=x86-64 -g -O0 -fpre-include=/usr/include/finclude/math-vector-fortran.h
REM seed -939909800 454406151 -185105302 1212738268 -1569020384 -151172005 -298162287 -911570741 1214296597 321621021 668783456 1340656192 258298149 411897866 1442455164 1889887911 1504603994 923900230 1779807259 -656336774 -63583757 1729889781 -721091348 -606604638 -709149089 -1502368045 505413063 1465026033 -2090084812 -387610279 -221777622 1377733323 -218859073
REM
CELL 1.54180   15.00000   15.00000   15.00000   90.00000   90.00000   90.00000
LATT -1
SFAC C  
C      1  0.3737170000000  0.5403410000000  0.2414270000000 1.0
C      1  0.3741250000000  0.4583410000000  0.7584290000000 1.0
C      1  0.4225320000000  0.3923650000000  0.2413970000000 1.0
C      1  0.5008010000000  0.3673000000000  0.7585880000000 1.0
C      1  0.5786930000000  0.3933160000000  0.2415600000000 1.0
C      1  0.6262990000000  0.4597280000000  0.7585610000000 1.0
C      1  0.6259800000000  0.5415680000000  0.2413830000000 1.0
C      1  0.5772410000000  0.6075670000000  0.7585230000000 1.0
C      1  0.4993160000000  0.6327840000000  0.2414140000000 1.0
C      1  0.4214080000000  0.6066730000000  0.7585400000000 1.0
C      1  0.4210540000000  0.5256190000000  0.1559970000000 1.0
C      1  0.4210310000000  0.4742800000000  0.8438060000000 1.0
C      1  0.4512900000000  0.4326550000000  0.1559150000000 1.0
C      1  0.5000500000000  0.4168200000000  0.8439880000000 1.0
C      1  0.5490740000000  0.4327860000000  0.1559860000000 1.0
C      1  0.5788870000000  0.4744230000000  0.8439040000000 1.0
C      1  0.5789350000000  0.5257620000000  0.1559750000000 1.0
C      1  0.5486660000000  0.5673000000000  0.8440450000000 1.0
C      1  0.4999650000000  0.5831150000000  0.1560830000000 1.0
C      1  0.4510060000000  0.5672140000000  0.8440560000000 1.0
C      1  0.3296130000000  0.5487260000000  0.5543110000000 1.0
C      1  0.3339980000000  0.4391280000000  0.4456520000000 1.0
C      1  0.4009730000000  0.3532640000000  0.5543340000000 1.0
C      1  0.5063230000000  0.3228890000000  0.4455630000000 1.0
C      1  0.6095630000000  0.3605710000000  0.5543160000000 1.0
C      1  0.6703740000000  0.4513290000000  0.4457900000000 1.0
C      1  0.6658910000000  0.5608280000000  0.5539810000000 1.0
C      1  0.5989510000000  0.6467450000000  0.4457770000000 1.0
C      1  0.4936390000000  0.6772500000000  0.5543520000000 1.0
C      1  0.3903930000000  0.6396460000000  0.4457900000000 1.0
C      1  0.3741360000000  0.5399410000000  0.7056370000000 1.0
C      1  0.3744840000000  0.4584240000000  0.2941700000000 1.0
C      1  0.4230220000000  0.3925380000000  0.7058230000000 1.0
C      1  0.5008270000000  0.3679840000000  0.2940870000000 1.0
C      1  0.5781120000000  0.3938790000000  0.7056820000000 1.0
C      1  0.6260140000000  0.4600140000000  0.2944480000000 1.0
C      1  0.6254140000000  0.5415630000000  0.7057480000000 1.0
C      1  0.5769400000000  0.6072520000000  0.2942490000000 1.0
C      1  0.4990960000000  0.6318680000000  0.7058140000000 1.0
C      1  0.4219090000000  0.6061890000000  0.2943960000000 1.0
C      1  0.4101270000000  0.5273610000000  0.6137200000000 1.0
C      1  0.4111380000000  0.4688270000000  0.3861160000000 1.0
C      1  0.4460810000000  0.4228210000000  0.6139430000000 1.0
C      1  0.5021140000000  0.4056910000000  0.3861920000000 1.0
C      1  0.5567790000000  0.4249970000000  0.6135780000000 1.0
C      1  0.5900510000000  0.4729980000000  0.3862980000000 1.0
C      1  0.5888450000000  0.5308220000000  0.6138210000000 1.0
C      1  0.5535990000000  0.5773860000000  0.3860570000000 1.0
C      1  0.4982150000000  0.5942560000000  0.6137650000000 1.0
C      1  0.4430810000000  0.5749460000000  0.3864860000000 1.0
C      1  0.6637350000000  0.6306480000000  0.5019370000000 1.0
C      1  0.5557280000000  0.7014360000000  0.4982410000000 1.0
C      1  0.4264260000000  0.6956190000000  0.5018020000000 1.0
C      1  0.3255340000000  0.6152110000000  0.4983000000000 1.0
C      1  0.2909620000000  0.4903730000000  0.5017640000000 1.0
C      1  0.3364310000000  0.3695370000000  0.4981380000000 1.0
C      1  0.4442340000000  0.2985250000000  0.5018150000000 1.0
C      1  0.5734830000000  0.3044510000000  0.4983140000000 1.0
C      1  0.6747000000000  0.3846720000000  0.5017260000000 1.0
C      1  0.7089960000000  0.5094410000000  0.4984920000000 1.0
END
