TITL C-1525613-7943-2974 -0.0508963226582209 3375 -9223.25276437081 0 0 60 (Ci) n - 1
REM
REM in /home/nfs/bkarasulu/CARBON/AIRSS/Generating-Clusters/ReaxFF-fromJPCA2015/Units_Real/Try2-Higher-symm/Only-C60
REM
REM
REM
REM
REM
REM ./C.cell (863b2abdce7293c0672fb3ba77bf323a)
REM AIRSS Version 0.9.1 bugfix July 2018 build 013d7b7c2542+ Fri, 06 Jul 2018 19:26:36 +0100
REM compiler GCC version 9.2.1 20190827 (Red Hat 9.2.1-1)
REM options -cpp -mtune=generic -march=x86-64 -g -O0 -fpre-include=/usr/include/finclude/math-vector-fortran.h
REM seed -1844012740 1009825484 -1820693800 -1914293144 891431048 -769513655 1468002698 -336145748 1871243242 -150391066 -559835774 -1363223219 1101582247 -692207739 881876782 706057012 1592053683 1906690258 -576307105 -947317107 94784731 495335502 -1462140994 1686874814 -1148452422 -1022287957 130890173 -1009302619 1017966356 -972624116 186466969 1867868987 -901570893
REM
CELL 1.54180   15.00000   15.00000   15.00000   90.00000   90.00000   90.00000
LATT -1
SFAC C  
C      1  0.3724490000000  0.4801130000000  0.7022880000000 1.0
C      1  0.4209270000000  0.5766570000000  0.3038140000000 1.0
C      1  0.4702260000000  0.7440460000000  0.7056000000000 1.0
C      1  0.6319210000000  0.7697850000000  0.2976220000000 1.0
C      1  0.6844240000000  0.6291970000000  0.7036230000000 1.0
C      1  0.6275510000000  0.5198860000000  0.2977150000000 1.0
C      1  0.5790770000000  0.4233640000000  0.6961510000000 1.0
C      1  0.5297700000000  0.2559470000000  0.2943990000000 1.0
C      1  0.3680830000000  0.2302150000000  0.7023810000000 1.0
C      1  0.3155940000000  0.3708130000000  0.2963780000000 1.0
C      1  0.6795320000000  0.7366700000000  0.3831910000000 1.0
C      1  0.7324280000000  0.5878230000000  0.6239430000000 1.0
C      1  0.6461150000000  0.4558120000000  0.3732170000000 1.0
C      1  0.5801820000000  0.3492570000000  0.6265840000000 1.0
C      1  0.4827270000000  0.2413150000000  0.3854600000000 1.0
C      1  0.3204710000000  0.2633280000000  0.6168120000000 1.0
C      1  0.2676000000000  0.4121780000000  0.3760470000000 1.0
C      1  0.3538860000000  0.5441840000000  0.6267840000000 1.0
C      1  0.4198170000000  0.6507840000000  0.3734460000000 1.0
C      1  0.5172780000000  0.7586690000000  0.6145420000000 1.0
C      1  0.4735290000000  0.2501630000000  0.5500760000000 1.0
C      1  0.3463020000000  0.2988460000000  0.4579340000000 1.0
C      1  0.2769000000000  0.4156550000000  0.5480230000000 1.0
C      1  0.3119700000000  0.5569800000000  0.4655230000000 1.0
C      1  0.4054850000000  0.6740940000000  0.5377590000000 1.0
C      1  0.5264740000000  0.7498370000000  0.4499280000000 1.0
C      1  0.6536940000000  0.7011390000000  0.5420770000000 1.0
C      1  0.7231050000000  0.5843450000000  0.4519800000000 1.0
C      1  0.6880290000000  0.4430250000000  0.5344800000000 1.0
C      1  0.5945180000000  0.3259050000000  0.4622420000000 1.0
C      1  0.3590580000000  0.3835780000000  0.6938180000000 1.0
C      1  0.3816330000000  0.4917110000000  0.3317050000000 1.0
C      1  0.4765350000000  0.6472670000000  0.6908970000000 1.0
C      1  0.5698740000000  0.6934700000000  0.2989770000000 1.0
C      1  0.5860010000000  0.6152530000000  0.6811870000000 1.0
C      1  0.6409420000000  0.6164210000000  0.3061850000000 1.0
C      1  0.6183190000000  0.5082570000000  0.6682760000000 1.0
C      1  0.5234650000000  0.3527370000000  0.3091050000000 1.0
C      1  0.4301270000000  0.3065300000000  0.7010260000000 1.0
C      1  0.4139800000000  0.3847540000000  0.3188050000000 1.0
C      1  0.6292880000000  0.3660420000000  0.5431080000000 1.0
C      1  0.5299540000000  0.2535200000000  0.4708170000000 1.0
C      1  0.3765790000000  0.2512150000000  0.5372090000000 1.0
C      1  0.2769080000000  0.3675330000000  0.4632360000000 1.0
C      1  0.3043840000000  0.5091790000000  0.5493270000000 1.0
C      1  0.3707130000000  0.6339630000000  0.4568930000000 1.0
C      1  0.4700460000000  0.7464810000000  0.5291840000000 1.0
C      1  0.6234270000000  0.7487790000000  0.4627960000000 1.0
C      1  0.7231030000000  0.6324680000000  0.5367620000000 1.0
C      1  0.6956160000000  0.4908190000000  0.4506750000000 1.0
C      1  0.3002210000000  0.5040490000000  0.3842440000000 1.0
C      1  0.4086800000000  0.6239780000000  0.6213570000000 1.0
C      1  0.4985940000000  0.7061320000000  0.3682320000000 1.0
C      1  0.5864650000000  0.6897630000000  0.6107090000000 1.0
C      1  0.7049850000000  0.6418710000000  0.3756950000000 1.0
C      1  0.6997720000000  0.4959550000000  0.6157530000000 1.0
C      1  0.5913220000000  0.3760170000000  0.3786450000000 1.0
C      1  0.5014080000000  0.2938710000000  0.6317700000000 1.0
C      1  0.4135200000000  0.3102270000000  0.3892840000000 1.0
C      1  0.2950160000000  0.3581290000000  0.6243050000000 1.0
END
