TITL C-1525613-7943-518 0.0706644016158038 3375 -9212.318265336 0 0 60 (D5) n - 1
REM
REM in /home/nfs/bkarasulu/CARBON/AIRSS/Generating-Clusters/ReaxFF-fromJPCA2015/Units_Real/Try2-Higher-symm/Only-C60
REM
REM
REM
REM
REM
REM ./C.cell (863b2abdce7293c0672fb3ba77bf323a)
REM AIRSS Version 0.9.1 bugfix July 2018 build 013d7b7c2542+ Fri, 06 Jul 2018 19:26:36 +0100
REM compiler GCC version 9.2.1 20190827 (Red Hat 9.2.1-1)
REM options -cpp -mtune=generic -march=x86-64 -g -O0 -fpre-include=/usr/include/finclude/math-vector-fortran.h
REM seed 308937735 626745311 -318397040 -987868013 -1405773743 -690260855 1427856320 1019255658 1975981645 2111728159 1301250241 1012152854 1525433213 519074077 -1380857750 231977844 -1852861243 -1271150106 -1762090767 645734125 320225424 -802709125 -1961715794 -591523258 485709514 -117061302 -1749406547 -1178258341 644135045 1325793308 611963310 2023269567 -1797960728
REM
CELL 1.54180   15.00000   15.00000   15.00000   90.00000   90.00000   90.00000
LATT -1
SFAC C  
C      1  0.3966630000000  0.6611660000000  0.3641350000000 1.0
C      1  0.3386840000000  0.6612140000000  0.5563010000000 1.0
C      1  0.5037250000000  0.6612590000000  0.6708430000000 1.0
C      1  0.6635790000000  0.6611980000000  0.5492510000000 1.0
C      1  0.5973400000000  0.6612400000000  0.3595710000000 1.0
C      1  0.3966630000000  0.3388340000000  0.6358650000000 1.0
C      1  0.3386840000000  0.3387860000000  0.4436990000000 1.0
C      1  0.5037250000000  0.3387410000000  0.3291570000000 1.0
C      1  0.6635790000000  0.3388020000000  0.4507490000000 1.0
C      1  0.5973400000000  0.3387600000000  0.6404290000000 1.0
C      1  0.4138160000000  0.6201360000000  0.7025760000000 1.0
C      1  0.6659710000000  0.6202000000000  0.6446470000000 1.0
C      1  0.6887690000000  0.6201080000000  0.3867850000000 1.0
C      1  0.4506830000000  0.6202120000000  0.2853810000000 1.0
C      1  0.2807560000000  0.6201490000000  0.4806170000000 1.0
C      1  0.4138160000000  0.3798640000000  0.2974240000000 1.0
C      1  0.6659710000000  0.3798000000000  0.3553530000000 1.0
C      1  0.6887690000000  0.3798920000000  0.6132150000000 1.0
C      1  0.4506830000000  0.3797880000000  0.7146190000000 1.0
C      1  0.2807560000000  0.3798510000000  0.5193830000000 1.0
C      1  0.3033570000000  0.5113900000000  0.6970430000000 1.0
C      1  0.6266720000000  0.5114570000000  0.7478080000000 1.0
C      1  0.7748860000000  0.5114290000000  0.4562900000000 1.0
C      1  0.5432810000000  0.5114560000000  0.2250710000000 1.0
C      1  0.2517850000000  0.5113520000000  0.3737710000000 1.0
C      1  0.3033570000000  0.4886100000000  0.3029570000000 1.0
C      1  0.6266720000000  0.4885430000000  0.2521920000000 1.0
C      1  0.7748860000000  0.4885710000000  0.5437100000000 1.0
C      1  0.5432810000000  0.4885440000000  0.7749290000000 1.0
C      1  0.2517850000000  0.4886480000000  0.6262290000000 1.0
C      1  0.5789910000000  0.2945780000000  0.4756390000000 1.0
C      1  0.5012340000000  0.2944890000000  0.4173670000000 1.0
C      1  0.4218290000000  0.2945510000000  0.4733570000000 1.0
C      1  0.4504140000000  0.2945400000000  0.5660380000000 1.0
C      1  0.5475090000000  0.2945250000000  0.5676310000000 1.0
C      1  0.5789910000000  0.7054220000000  0.5243610000000 1.0
C      1  0.5012340000000  0.7055110000000  0.5826330000000 1.0
C      1  0.4218290000000  0.7054490000000  0.5266430000000 1.0
C      1  0.4504140000000  0.7054600000000  0.4339620000000 1.0
C      1  0.5475090000000  0.7054750000000  0.4323690000000 1.0
C      1  0.7380280000000  0.5354810000000  0.3728040000000 1.0
C      1  0.4526810000000  0.5355390000000  0.2342970000000 1.0
C      1  0.2326210000000  0.5355490000000  0.4630610000000 1.0
C      1  0.3822140000000  0.5355130000000  0.7428670000000 1.0
C      1  0.6944440000000  0.5356010000000  0.6870690000000 1.0
C      1  0.7380280000000  0.4645190000000  0.6271960000000 1.0
C      1  0.4526810000000  0.4644610000000  0.7657030000000 1.0
C      1  0.2326210000000  0.4644510000000  0.5369390000000 1.0
C      1  0.3822140000000  0.4644870000000  0.2571330000000 1.0
C      1  0.6944440000000  0.4643990000000  0.3129310000000 1.0
C      1  0.7026210000000  0.3779770000000  0.5240240000000 1.0
C      1  0.5855200000000  0.3779520000000  0.3143910000000 1.0
C      1  0.3501860000000  0.3779480000000  0.3613770000000 1.0
C      1  0.3219210000000  0.3779020000000  0.5997870000000 1.0
C      1  0.5398210000000  0.3779600000000  0.7004390000000 1.0
C      1  0.7026210000000  0.6220230000000  0.4759760000000 1.0
C      1  0.5855200000000  0.6220480000000  0.6856090000000 1.0
C      1  0.3501860000000  0.6220520000000  0.6386230000000 1.0
C      1  0.3219210000000  0.6220980000000  0.4002130000000 1.0
C      1  0.5398210000000  0.6220400000000  0.2995610000000 1.0
END
