TITL C-1525613-7943-2335 -0.0240729796393842 3375 -8670.57194536915 0 0 60 (C1) n - 1
REM
REM in /home/nfs/bkarasulu/CARBON/AIRSS/Generating-Clusters/ReaxFF-fromJPCA2015/Units_Real/Try2-Higher-symm/Only-C60
REM
REM
REM
REM
REM
REM ./C.cell (863b2abdce7293c0672fb3ba77bf323a)
REM AIRSS Version 0.9.1 bugfix July 2018 build 013d7b7c2542+ Fri, 06 Jul 2018 19:26:36 +0100
REM compiler GCC version 9.2.1 20190827 (Red Hat 9.2.1-1)
REM options -cpp -mtune=generic -march=x86-64 -g -O0 -fpre-include=/usr/include/finclude/math-vector-fortran.h
REM seed 1583039462 -1884871783 -376694606 -831397455 251102499 -430411812 1425833439 955876372 141436199 1871707678 -1084740725 1497101860 1671099553 -1226183520 -1376460089 -1754858531 1548586196 -2075599823 -1784644067 -1432613735 1610577970 1645600598 1801458683 493744503 -1249740718 960611677 -1162847013 2114890201 274971625 -822240948 1094248050 588543345 485645612
REM
CELL 1.54180   15.00000   15.00000   15.00000   90.00000   90.00000   90.00000
LATT -1
SFAC C  
C      1  0.3782000000000  0.3207900000000  0.6816520000000 1.0
C      1  0.4726560000000  0.3372410000000  0.6910950000000 1.0
C      1  0.5546500000000  0.3025570000000  0.6618110000000 1.0
C      1  0.6456770000000  0.2985720000000  0.6333300000000 1.0
C      1  0.6617690000000  0.3134790000000  0.4651830000000 1.0
C      1  0.6300690000000  0.3348810000000  0.3311730000000 1.0
C      1  0.5335410000000  0.3500170000000  0.3118680000000 1.0
C      1  0.4526560000000  0.3137840000000  0.3469470000000 1.0
C      1  0.3585440000000  0.3077300000000  0.3678830000000 1.0
C      1  0.3104270000000  0.3391200000000  0.5209330000000 1.0
C      1  0.6251750000000  0.3575340000000  0.6979850000000 1.0
C      1  0.6806550000000  0.3349230000000  0.5497750000000 1.0
C      1  0.6869400000000  0.3638160000000  0.4048350000000 1.0
C      1  0.6718660000000  0.4007920000000  0.2704560000000 1.0
C      1  0.5231270000000  0.4175120000000  0.2440760000000 1.0
C      1  0.3804510000000  0.3557790000000  0.2998810000000 1.0
C      1  0.3032280000000  0.3561420000000  0.4345360000000 1.0
C      1  0.3098310000000  0.3430570000000  0.6104650000000 1.0
C      1  0.3566440000000  0.3877230000000  0.7469960000000 1.0
C      1  0.4563740000000  0.4009440000000  0.7765570000000 1.0
C      1  0.6414070000000  0.5362940000000  0.2598380000000 1.0
C      1  0.4445990000000  0.4742330000000  0.2454800000000 1.0
C      1  0.3657990000000  0.4487100000000  0.2901010000000 1.0
C      1  0.2883500000000  0.4594150000000  0.4377680000000 1.0
C      1  0.2798970000000  0.4403840000000  0.6167510000000 1.0
C      1  0.3540980000000  0.5412870000000  0.7487650000000 1.0
C      1  0.5089730000000  0.4823310000000  0.7524150000000 1.0
C      1  0.6465310000000  0.4506910000000  0.6983480000000 1.0
C      1  0.7015150000000  0.4403640000000  0.5571300000000 1.0
C      1  0.7241420000000  0.4659880000000  0.4087390000000 1.0
C      1  0.5859260000000  0.6150840000000  0.2733920000000 1.0
C      1  0.4939660000000  0.6316350000000  0.2580550000000 1.0
C      1  0.3662270000000  0.5860830000000  0.3326130000000 1.0
C      1  0.2999320000000  0.6767650000000  0.5071690000000 1.0
C      1  0.3320990000000  0.6871900000000  0.5944420000000 1.0
C      1  0.4132020000000  0.6124370000000  0.7140520000000 1.0
C      1  0.5088550000000  0.6174050000000  0.7152320000000 1.0
C      1  0.6260170000000  0.5773390000000  0.6474550000000 1.0
C      1  0.7031850000000  0.6896470000000  0.4907440000000 1.0
C      1  0.6628740000000  0.6774450000000  0.4039780000000 1.0
C      1  0.2716830000000  0.4889140000000  0.5301100000000 1.0
C      1  0.3104300000000  0.4642600000000  0.7077960000000 1.0
C      1  0.4286480000000  0.4990390000000  0.7923640000000 1.0
C      1  0.5900860000000  0.5284320000000  0.7281000000000 1.0
C      1  0.6843120000000  0.5025980000000  0.6253780000000 1.0
C      1  0.7150580000000  0.4916810000000  0.4941580000000 1.0
C      1  0.7054620000000  0.4838430000000  0.3130980000000 1.0
C      1  0.6100600000000  0.4530440000000  0.2159680000000 1.0
C      1  0.4290910000000  0.5653620000000  0.2611890000000 1.0
C      1  0.3211830000000  0.5048910000000  0.3571060000000 1.0
C      1  0.4015150000000  0.6666050000000  0.3729100000000 1.0
C      1  0.3495080000000  0.7169250000000  0.4365440000000 1.0
C      1  0.3699640000000  0.7376280000000  0.5283370000000 1.0
C      1  0.4095510000000  0.6766770000000  0.6427080000000 1.0
C      1  0.5107390000000  0.6896000000000  0.6552990000000 1.0
C      1  0.5999280000000  0.6647500000000  0.6202890000000 1.0
C      1  0.6512260000000  0.7228920000000  0.5605910000000 1.0
C      1  0.6297710000000  0.7367500000000  0.4719000000000 1.0
C      1  0.5838300000000  0.6690090000000  0.3523770000000 1.0
C      1  0.4878840000000  0.6899780000000  0.3338750000000 1.0
END
