TITL C-1525613-7943-1443 -0.00186268066228264 3375 -9533.82277595954 0 0 60 (D5d) n - 1
REM
REM in /home/nfs/bkarasulu/CARBON/AIRSS/Generating-Clusters/ReaxFF-fromJPCA2015/Units_Real/Try2-Higher-symm/Only-C60
REM
REM
REM
REM
REM
REM ./C.cell (863b2abdce7293c0672fb3ba77bf323a)
REM AIRSS Version 0.9.1 bugfix July 2018 build 013d7b7c2542+ Fri, 06 Jul 2018 19:26:36 +0100
REM compiler GCC version 9.2.1 20190827 (Red Hat 9.2.1-1)
REM options -cpp -mtune=generic -march=x86-64 -g -O0 -fpre-include=/usr/include/finclude/math-vector-fortran.h
REM seed -1958645232 271233800 696841213 -1423628662 1947893871 -1059815841 -162117176 1781335550 -985018999 684564306 397077484 2041889841 1495867817 -1328477266 -2019963740 418984941 81110160 786893332 -1377749453 362397889 -311840177 -1284296630 165915261 -1435944331 -1841164229 -1598606106 -942321392 979713562 353571664 370573867 -1796657324 -1572821040 132302731
REM
CELL 1.54180   15.00000   15.00000   15.00000   90.00000   90.00000   90.00000
LATT -1
SFAC C  
C      1  0.6731550000000  0.3432210000000  0.5409470000000 1.0
C      1  0.4044120000000  0.2868340000000  0.5409520000000 1.0
C      1  0.2677490000000  0.5250420000000  0.5409640000000 1.0
C      1  0.4520510000000  0.7286370000000  0.5409530000000 1.0
C      1  0.7026250000000  0.6162700000000  0.5409480000000 1.0
C      1  0.3268180000000  0.3432280000000  0.5409660000000 1.0
C      1  0.5955740000000  0.2868280000000  0.5409490000000 1.0
C      1  0.7322410000000  0.5250300000000  0.5409450000000 1.0
C      1  0.5479820000000  0.7286520000000  0.5409500000000 1.0
C      1  0.2973980000000  0.6162720000000  0.5409610000000 1.0
C      1  0.4505080000000  0.3498420000000  0.6901660000000 1.0
C      1  0.3419840000000  0.5006500000000  0.6901490000000 1.0
C      1  0.4518170000000  0.6505190000000  0.6901510000000 1.0
C      1  0.6282640000000  0.5923730000000  0.6901360000000 1.0
C      1  0.6274180000000  0.4065690000000  0.6901350000000 1.0
C      1  0.5494550000000  0.3498620000000  0.6901620000000 1.0
C      1  0.6580010000000  0.5006590000000  0.6901390000000 1.0
C      1  0.5482230000000  0.6505590000000  0.6901510000000 1.0
C      1  0.3717880000000  0.5923360000000  0.6901320000000 1.0
C      1  0.3725250000000  0.4065300000000  0.6901620000000 1.0
C      1  0.6732170000000  0.6568080000000  0.4590180000000 1.0
C      1  0.7026220000000  0.3837310000000  0.4590430000000 1.0
C      1  0.4520380000000  0.2713430000000  0.4590330000000 1.0
C      1  0.2677190000000  0.4749700000000  0.4590390000000 1.0
C      1  0.4044180000000  0.7131850000000  0.4590240000000 1.0
C      1  0.3268030000000  0.6568040000000  0.4590360000000 1.0
C      1  0.2973670000000  0.3837360000000  0.4590430000000 1.0
C      1  0.5479560000000  0.2713350000000  0.4590340000000 1.0
C      1  0.7322620000000  0.4749510000000  0.4590280000000 1.0
C      1  0.5956100000000  0.7131960000000  0.4590190000000 1.0
C      1  0.2775540000000  0.4764950000000  0.6217140000000 1.0
C      1  0.4089260000000  0.7043110000000  0.6217050000000 1.0
C      1  0.6661690000000  0.6497880000000  0.6216940000000 1.0
C      1  0.6937440000000  0.3882410000000  0.6216900000000 1.0
C      1  0.4535880000000  0.2811270000000  0.6217130000000 1.0
C      1  0.7224220000000  0.4765080000000  0.6216980000000 1.0
C      1  0.5911210000000  0.7043300000000  0.6216950000000 1.0
C      1  0.3338670000000  0.6497530000000  0.6216990000000 1.0
C      1  0.3062150000000  0.3882470000000  0.6217080000000 1.0
C      1  0.5463860000000  0.2811320000000  0.6216990000000 1.0
C      1  0.6580420000000  0.4993230000000  0.3098690000000 1.0
C      1  0.5482140000000  0.3494850000000  0.3098640000000 1.0
C      1  0.3717520000000  0.4076640000000  0.3098830000000 1.0
C      1  0.3725240000000  0.5934580000000  0.3098730000000 1.0
C      1  0.5494710000000  0.6501050000000  0.3098710000000 1.0
C      1  0.3419540000000  0.4993490000000  0.3098760000000 1.0
C      1  0.4518020000000  0.3494960000000  0.3098750000000 1.0
C      1  0.6282480000000  0.4076340000000  0.3098760000000 1.0
C      1  0.6274680000000  0.5934300000000  0.3098670000000 1.0
C      1  0.4505250000000  0.6501110000000  0.3098740000000 1.0
C      1  0.2775130000000  0.5235210000000  0.3782970000000 1.0
C      1  0.4536110000000  0.7188670000000  0.3782910000000 1.0
C      1  0.6938160000000  0.6117560000000  0.3782740000000 1.0
C      1  0.6661880000000  0.3502070000000  0.3782990000000 1.0
C      1  0.4088910000000  0.2956780000000  0.3782930000000 1.0
C      1  0.7224780000000  0.5234990000000  0.3782930000000 1.0
C      1  0.5464040000000  0.7188660000000  0.3782810000000 1.0
C      1  0.3061900000000  0.6117700000000  0.3782980000000 1.0
C      1  0.3338290000000  0.3502260000000  0.3782940000000 1.0
C      1  0.5910890000000  0.2956550000000  0.3782980000000 1.0
END
