TITL C-1525613-7943-3412 0.0799975613718836 3375 -8335.69771392788 0 0 60 (C5) n - 1
REM
REM in /home/nfs/bkarasulu/CARBON/AIRSS/Generating-Clusters/ReaxFF-fromJPCA2015/Units_Real/Try2-Higher-symm/Only-C60
REM
REM
REM
REM
REM
REM ./C.cell (863b2abdce7293c0672fb3ba77bf323a)
REM AIRSS Version 0.9.1 bugfix July 2018 build 013d7b7c2542+ Fri, 06 Jul 2018 19:26:36 +0100
REM compiler GCC version 9.2.1 20190827 (Red Hat 9.2.1-1)
REM options -cpp -mtune=generic -march=x86-64 -g -O0 -fpre-include=/usr/include/finclude/math-vector-fortran.h
REM seed 2064038445 1463240654 362358184 -1017350360 -718280362 1469054034 -1634770376 10871991 -109293126 -2028135594 -1478935629 -1207286153 -2095898143 1413962327 -1117932242 847405383 -1713378223 2111288449 -357371862 1463436079 639419544 370929529 1427568057 -181520779 280251032 -1145020811 1747173970 561820248 -1667952000 2022323090 -503446626 313620710 -411931019
REM
CELL 1.54180   15.00000   15.00000   15.00000   90.00000   90.00000   90.00000
LATT -1
SFAC C  
C      1  0.7018780000000  0.3467480000000  0.5468440000000 1.0
C      1  0.7020800000000  0.4091620000000  0.3688100000000 1.0
C      1  0.7007090000000  0.5967470000000  0.3738580000000 1.0
C      1  0.7021640000000  0.6518420000000  0.5520380000000 1.0
C      1  0.7027120000000  0.4973960000000  0.6607490000000 1.0
C      1  0.2982060000000  0.3467280000000  0.5465410000000 1.0
C      1  0.2980250000000  0.4089760000000  0.3683970000000 1.0
C      1  0.2992810000000  0.5966110000000  0.3727740000000 1.0
C      1  0.2977380000000  0.6520050000000  0.5525480000000 1.0
C      1  0.2975180000000  0.4972930000000  0.6607940000000 1.0
C      1  0.3598320000000  0.7150890000000  0.5080600000000 1.0
C      1  0.3601030000000  0.5582400000000  0.7066410000000 1.0
C      1  0.3604610000000  0.3213960000000  0.6194910000000 1.0
C      1  0.3598370000000  0.3316240000000  0.3667540000000 1.0
C      1  0.3601460000000  0.5740910000000  0.2981930000000 1.0
C      1  0.6409620000000  0.7152460000000  0.5071370000000 1.0
C      1  0.6402410000000  0.5586620000000  0.7066970000000 1.0
C      1  0.6398480000000  0.3214430000000  0.6199990000000 1.0
C      1  0.6402640000000  0.3317410000000  0.3668840000000 1.0
C      1  0.6404700000000  0.5743220000000  0.2986530000000 1.0
C      1  0.4167260000000  0.4192330000000  0.5014400000000 1.0
C      1  0.4184990000000  0.4733610000000  0.4245030000000 1.0
C      1  0.4186140000000  0.5630320000000  0.4525600000000 1.0
C      1  0.4193700000000  0.5643320000000  0.5465480000000 1.0
C      1  0.4175930000000  0.4754110000000  0.5769220000000 1.0
C      1  0.5829960000000  0.4192310000000  0.5011470000000 1.0
C      1  0.5805840000000  0.4733640000000  0.4241880000000 1.0
C      1  0.5778210000000  0.5625000000000  0.4530480000000 1.0
C      1  0.5794780000000  0.5634400000000  0.5467690000000 1.0
C      1  0.5817600000000  0.4747620000000  0.5768410000000 1.0
C      1  0.5482940000000  0.6370740000000  0.3947230000000 1.0
C      1  0.5488340000000  0.6426120000000  0.5978900000000 1.0
C      1  0.5484240000000  0.4525600000000  0.6663200000000 1.0
C      1  0.5487740000000  0.3265210000000  0.5049770000000 1.0
C      1  0.5486740000000  0.4415790000000  0.3358710000000 1.0
C      1  0.4503580000000  0.6363240000000  0.3937450000000 1.0
C      1  0.4507510000000  0.6433430000000  0.5974740000000 1.0
C      1  0.4513470000000  0.4533880000000  0.6660830000000 1.0
C      1  0.4505440000000  0.3264890000000  0.5059710000000 1.0
C      1  0.4506750000000  0.4409460000000  0.3365720000000 1.0
C      1  0.6985870000000  0.5060560000000  0.3417290000000 1.0
C      1  0.7012410000000  0.6551620000000  0.4557780000000 1.0
C      1  0.6968210000000  0.5887960000000  0.6305840000000 1.0
C      1  0.6954250000000  0.4035020000000  0.6242760000000 1.0
C      1  0.6963550000000  0.3521100000000  0.4462360000000 1.0
C      1  0.3018130000000  0.5057820000000  0.3409140000000 1.0
C      1  0.3020560000000  0.6533000000000  0.4562620000000 1.0
C      1  0.3034060000000  0.5887910000000  0.6309180000000 1.0
C      1  0.3049230000000  0.4033810000000  0.6240930000000 1.0
C      1  0.3034810000000  0.3519560000000  0.4459710000000 1.0
C      1  0.5516260000000  0.7248900000000  0.5458150000000 1.0
C      1  0.5511190000000  0.5253560000000  0.7298570000000 1.0
C      1  0.5513340000000  0.2885840000000  0.5946410000000 1.0
C      1  0.5512490000000  0.3446650000000  0.3283060000000 1.0
C      1  0.5513380000000  0.6143220000000  0.3000830000000 1.0
C      1  0.4494540000000  0.7259280000000  0.5459550000000 1.0
C      1  0.4496060000000  0.5257920000000  0.7304040000000 1.0
C      1  0.4493160000000  0.2882000000000  0.5953990000000 1.0
C      1  0.4490310000000  0.3441250000000  0.3283760000000 1.0
C      1  0.4492300000000  0.6144370000000  0.2989480000000 1.0
END
