TITL C-1525613-7943-1840 -0.0154461531734805 3375 -8362.47045923148 0 0 60 (C1) n - 1
REM
REM in /home/nfs/bkarasulu/CARBON/AIRSS/Generating-Clusters/ReaxFF-fromJPCA2015/Units_Real/Try2-Higher-symm/Only-C60
REM
REM
REM
REM
REM
REM ./C.cell (863b2abdce7293c0672fb3ba77bf323a)
REM AIRSS Version 0.9.1 bugfix July 2018 build 013d7b7c2542+ Fri, 06 Jul 2018 19:26:36 +0100
REM compiler GCC version 9.2.1 20190827 (Red Hat 9.2.1-1)
REM options -cpp -mtune=generic -march=x86-64 -g -O0 -fpre-include=/usr/include/finclude/math-vector-fortran.h
REM seed 772833256 668516994 -64045120 -628220598 1848653853 -1317143969 43478466 1107386201 1537922868 -157418838 -1504576764 -1911269725 -1101040675 -2113509333 -1227022234 -2091746213 567164330 1697001154 -1648735754 2101299782 1818685129 -349036929 -1778733554 -597907123 -1524382213 647263105 -743299815 -1232893404 -2060746069 528030854 -941594771 -1955990572 -928317873
REM
CELL 1.54180   15.00000   15.00000   15.00000   90.00000   90.00000   90.00000
LATT -1
SFAC C  
C      1  0.2800500000000  0.5111110000000  0.6148310000000 1.0
C      1  0.3412280000000  0.6243450000000  0.3856380000000 1.0
C      1  0.4506880000000  0.7009910000000  0.6130810000000 1.0
C      1  0.5851720000000  0.7037380000000  0.3883150000000 1.0
C      1  0.6909090000000  0.6190290000000  0.6115720000000 1.0
C      1  0.7177500000000  0.4918640000000  0.3854750000000 1.0
C      1  0.6613660000000  0.3764020000000  0.6131600000000 1.0
C      1  0.5481830000000  0.3005630000000  0.3885790000000 1.0
C      1  0.4222890000000  0.3011310000000  0.6133790000000 1.0
C      1  0.3123790000000  0.3794070000000  0.3929270000000 1.0
C      1  0.5592140000000  0.6755040000000  0.4842670000000 1.0
C      1  0.6503980000000  0.6105890000000  0.5172220000000 1.0
C      1  0.6824440000000  0.5058750000000  0.4819780000000 1.0
C      1  0.6452680000000  0.4019950000000  0.5135920000000 1.0
C      1  0.5536950000000  0.3330610000000  0.4852680000000 1.0
C      1  0.4426200000000  0.3291920000000  0.5194290000000 1.0
C      1  0.3488870000000  0.3886290000000  0.4889380000000 1.0
C      1  0.3173570000000  0.4952210000000  0.5182170000000 1.0
C      1  0.3548050000000  0.6003180000000  0.4853710000000 1.0
C      1  0.4470180000000  0.6701320000000  0.5150380000000 1.0
C      1  0.6016370000000  0.4353490000000  0.3247710000000 1.0
C      1  0.5304030000000  0.3749220000000  0.6666630000000 1.0
C      1  0.4506360000000  0.4047550000000  0.2850390000000 1.0
C      1  0.4090070000000  0.4346060000000  0.6925720000000 1.0
C      1  0.3962290000000  0.4803480000000  0.2840340000000 1.0
C      1  0.3950180000000  0.5684340000000  0.6723430000000 1.0
C      1  0.4718370000000  0.6145170000000  0.3276620000000 1.0
C      1  0.5497410000000  0.5918940000000  0.7118420000000 1.0
C      1  0.5956530000000  0.5678140000000  0.2958550000000 1.0
C      1  0.6032840000000  0.5156100000000  0.7163170000000 1.0
C      1  0.4637570000000  0.6226100000000  0.6764630000000 1.0
C      1  0.5533840000000  0.6376010000000  0.3190090000000 1.0
C      1  0.6395110000000  0.5962450000000  0.6905070000000 1.0
C      1  0.6481350000000  0.5036570000000  0.3127690000000 1.0
C      1  0.6021350000000  0.4253750000000  0.6779370000000 1.0
C      1  0.5360860000000  0.3779570000000  0.3231540000000 1.0
C      1  0.4476360000000  0.3579680000000  0.6852720000000 1.0
C      1  0.3626470000000  0.4001520000000  0.3123020000000 1.0
C      1  0.3508990000000  0.4979100000000  0.6832380000000 1.0
C      1  0.3995060000000  0.5702110000000  0.3216100000000 1.0
C      1  0.3244860000000  0.2757150000000  0.6151350000000 1.0
C      1  0.2289960000000  0.4247350000000  0.3958320000000 1.0
C      1  0.2408610000000  0.5984320000000  0.6094210000000 1.0
C      1  0.3518370000000  0.7197440000000  0.3856090000000 1.0
C      1  0.5150730000000  0.7709140000000  0.6143100000000 1.0
C      1  0.6784510000000  0.7183530000000  0.3909860000000 1.0
C      1  0.7713130000000  0.5695640000000  0.6020350000000 1.0
C      1  0.7573740000000  0.4051600000000  0.3888260000000 1.0
C      1  0.6463620000000  0.2812140000000  0.6085590000000 1.0
C      1  0.4828350000000  0.2314500000000  0.3901550000000 1.0
C      1  0.6970180000000  0.6710580000000  0.4576980000000 1.0
C      1  0.7583250000000  0.5234790000000  0.5407430000000 1.0
C      1  0.7152740000000  0.3731800000000  0.4542640000000 1.0
C      1  0.5991020000000  0.2735350000000  0.5473030000000 1.0
C      1  0.4412620000000  0.2543190000000  0.4586300000000 1.0
C      1  0.2861880000000  0.3309020000000  0.5420030000000 1.0
C      1  0.2428820000000  0.4756400000000  0.4602170000000 1.0
C      1  0.2836780000000  0.6284090000000  0.5436760000000 1.0
C      1  0.4014790000000  0.7276730000000  0.4528620000000 1.0
C      1  0.5583450000000  0.7494920000000  0.5460990000000 1.0
END
