TITL C-1525613-7943-1744 0.00563622895852955 3375 -9093.12632749212 0 0 60 (Cs) n - 1
REM
REM in /home/nfs/bkarasulu/CARBON/AIRSS/Generating-Clusters/ReaxFF-fromJPCA2015/Units_Real/Try2-Higher-symm/Only-C60
REM
REM
REM
REM
REM
REM ./C.cell (863b2abdce7293c0672fb3ba77bf323a)
REM AIRSS Version 0.9.1 bugfix July 2018 build 013d7b7c2542+ Fri, 06 Jul 2018 19:26:36 +0100
REM compiler GCC version 9.2.1 20190827 (Red Hat 9.2.1-1)
REM options -cpp -mtune=generic -march=x86-64 -g -O0 -fpre-include=/usr/include/finclude/math-vector-fortran.h
REM seed 84576747 721280424 1269125315 63515760 1903533823 1835328183 1483951706 132051521 -1090740556 -1530675534 1675193284 -1171438282 1116659335 -487149889 -1373954415 1572177705 -955758476 -1839913521 -955277099 476832365 951659447 -1758064634 203399772 595112341 -233180269 -1637296638 -1995016104 -1201787632 -1780991289 -1089728295 144465645 2122618836 1463605482
REM
CELL 1.54180   15.00000   15.00000   15.00000   90.00000   90.00000   90.00000
LATT -1
SFAC C  
C      1  0.4334370000000  0.7477020000000  0.4504480000000 1.0
C      1  0.5270720000000  0.7505780000000  0.4210670000000 1.0
C      1  0.5834550000000  0.7471430000000  0.5013960000000 1.0
C      1  0.5249190000000  0.7461660000000  0.5800320000000 1.0
C      1  0.4321630000000  0.7461310000000  0.5482400000000 1.0
C      1  0.4334420000000  0.2522740000000  0.4504170000000 1.0
C      1  0.5270830000000  0.2494140000000  0.4210610000000 1.0
C      1  0.5834490000000  0.2528500000000  0.5014030000000 1.0
C      1  0.5249280000000  0.2538290000000  0.5800330000000 1.0
C      1  0.4321750000000  0.2538550000000  0.5482240000000 1.0
C      1  0.5503410000000  0.5505600000000  0.5710200000000 1.0
C      1  0.4499370000000  0.5504960000000  0.5743020000000 1.0
C      1  0.4140970000000  0.5575580000000  0.4709460000000 1.0
C      1  0.4949090000000  0.5795900000000  0.4189500000000 1.0
C      1  0.5777250000000  0.5557730000000  0.4663050000000 1.0
C      1  0.5503470000000  0.4494400000000  0.5710270000000 1.0
C      1  0.4499440000000  0.4495290000000  0.5743000000000 1.0
C      1  0.4141200000000  0.4424620000000  0.4709610000000 1.0
C      1  0.4949180000000  0.4204120000000  0.4189570000000 1.0
C      1  0.5777300000000  0.4442310000000  0.4663010000000 1.0
C      1  0.3017420000000  0.6322480000000  0.5529320000000 1.0
C      1  0.3873620000000  0.6338730000000  0.3279000000000 1.0
C      1  0.6306250000000  0.6350870000000  0.3429870000000 1.0
C      1  0.6863090000000  0.6302250000000  0.5744160000000 1.0
C      1  0.4862200000000  0.6308410000000  0.7039050000000 1.0
C      1  0.3016770000000  0.3677830000000  0.5530020000000 1.0
C      1  0.3873440000000  0.3661260000000  0.3279110000000 1.0
C      1  0.6306400000000  0.3649140000000  0.3429840000000 1.0
C      1  0.6863200000000  0.3697770000000  0.5744210000000 1.0
C      1  0.4862100000000  0.3691480000000  0.7039140000000 1.0
C      1  0.7106770000000  0.4564900000000  0.5457990000000 1.0
C      1  0.5209650000000  0.4561450000000  0.7183670000000 1.0
C      1  0.2997660000000  0.4562590000000  0.5878720000000 1.0
C      1  0.3598410000000  0.4570820000000  0.3179430000000 1.0
C      1  0.6318930000000  0.4573220000000  0.3198150000000 1.0
C      1  0.7106790000000  0.5435160000000  0.5457920000000 1.0
C      1  0.5209940000000  0.5438590000000  0.7183640000000 1.0
C      1  0.2997890000000  0.5437860000000  0.5878560000000 1.0
C      1  0.3598440000000  0.5429220000000  0.3179500000000 1.0
C      1  0.6318860000000  0.5426740000000  0.3198080000000 1.0
C      1  0.4888110000000  0.6260900000000  0.3338880000000 1.0
C      1  0.6594700000000  0.6133520000000  0.4368340000000 1.0
C      1  0.6057070000000  0.6120170000000  0.6324550000000 1.0
C      1  0.4069870000000  0.6125140000000  0.6439820000000 1.0
C      1  0.3352790000000  0.6194920000000  0.4592040000000 1.0
C      1  0.4888080000000  0.3739180000000  0.3338920000000 1.0
C      1  0.6594730000000  0.3866540000000  0.4368300000000 1.0
C      1  0.6057120000000  0.3879810000000  0.6324430000000 1.0
C      1  0.4069710000000  0.3875000000000  0.6439620000000 1.0
C      1  0.3353030000000  0.3804550000000  0.4592630000000 1.0
C      1  0.5534580000000  0.6977440000000  0.3431240000000 1.0
C      1  0.6614760000000  0.6885050000000  0.4990180000000 1.0
C      1  0.5501170000000  0.6882230000000  0.6547310000000 1.0
C      1  0.3695420000000  0.6889120000000  0.5974620000000 1.0
C      1  0.3656500000000  0.6926950000000  0.4046730000000 1.0
C      1  0.5534680000000  0.3022600000000  0.3431150000000 1.0
C      1  0.6614820000000  0.3114890000000  0.4990190000000 1.0
C      1  0.5501200000000  0.3117640000000  0.6547200000000 1.0
C      1  0.3695350000000  0.3111040000000  0.5973980000000 1.0
C      1  0.3656550000000  0.3072600000000  0.4046580000000 1.0
END
