TITL C-1525613-7943-6416 0.180056603687763 3375 -8226.60621995883 0 0 60 (Ci) n - 1
REM
REM in /home/nfs/bkarasulu/CARBON/AIRSS/Generating-Clusters/ReaxFF-fromJPCA2015/Units_Real/Try2-Higher-symm/Only-C60
REM
REM
REM
REM
REM
REM ./C.cell (863b2abdce7293c0672fb3ba77bf323a)
REM AIRSS Version 0.9.1 bugfix July 2018 build 013d7b7c2542+ Fri, 06 Jul 2018 19:26:36 +0100
REM compiler GCC version 9.2.1 20190827 (Red Hat 9.2.1-1)
REM options -cpp -mtune=generic -march=x86-64 -g -O0 -fpre-include=/usr/include/finclude/math-vector-fortran.h
REM seed 755822682 1655036164 -1674481915 -308404809 1645375644 -316851545 1577149481 2086696078 822435097 -1737428049 1296652138 -1148609709 496807259 1788296060 2040680948 -1780530464 1246876708 -1107713067 -1861848769 -1546792072 -1366992277 -1599770399 -902630908 -1773012441 1995770637 -1104987773 -127330276 -1581326134 812491219 -1797750676 437734955 648998064 -1630876092
REM
CELL 1.54180   15.00000   15.00000   15.00000   90.00000   90.00000   90.00000
LATT -1
SFAC C  
C      1  0.5269570000000  0.5177480000000  0.6150460000000 1.0
C      1  0.4717170000000  0.5804060000000  0.5889120000000 1.0
C      1  0.5274300000000  0.6100380000000  0.5242450000000 1.0
C      1  0.4698080000000  0.5986400000000  0.4544780000000 1.0
C      1  0.5282630000000  0.5508550000000  0.4013170000000 1.0
C      1  0.4723330000000  0.4821020000000  0.3853530000000 1.0
C      1  0.5273730000000  0.4224480000000  0.4130220000000 1.0
C      1  0.4720840000000  0.3892360000000  0.4753900000000 1.0
C      1  0.5295370000000  0.4017370000000  0.5459910000000 1.0
C      1  0.4713590000000  0.4496440000000  0.5973910000000 1.0
C      1  0.4069220000000  0.6656530000000  0.6606240000000 1.0
C      1  0.5920270000000  0.7291270000000  0.5320820000000 1.0
C      1  0.4084150000000  0.7056980000000  0.3918810000000 1.0
C      1  0.5915190000000  0.6027970000000  0.2926250000000 1.0
C      1  0.4093390000000  0.4613150000000  0.2730010000000 1.0
C      1  0.5911130000000  0.3341040000000  0.3392590000000 1.0
C      1  0.4085550000000  0.2713510000000  0.4682250000000 1.0
C      1  0.5914660000000  0.2937130000000  0.6078300000000 1.0
C      1  0.4083700000000  0.3967100000000  0.7070640000000 1.0
C      1  0.5913210000000  0.5391410000000  0.7274850000000 1.0
C      1  0.6319020000000  0.4201760000000  0.5397880000000 1.0
C      1  0.3707410000000  0.4584800000000  0.5800780000000 1.0
C      1  0.6284910000000  0.5138230000000  0.5901830000000 1.0
C      1  0.3722430000000  0.5634320000000  0.5661420000000 1.0
C      1  0.6301770000000  0.5885540000000  0.5157420000000 1.0
C      1  0.3685280000000  0.5800920000000  0.4604790000000 1.0
C      1  0.6304060000000  0.5415410000000  0.4202860000000 1.0
C      1  0.3711520000000  0.4858110000000  0.4097830000000 1.0
C      1  0.6274100000000  0.4365860000000  0.4336580000000 1.0
C      1  0.3701520000000  0.4111230000000  0.4838270000000 1.0
C      1  0.6766760000000  0.6836300000000  0.5274110000000 1.0
C      1  0.3241750000000  0.6654570000000  0.4144600000000 1.0
C      1  0.6762490000000  0.5836820000000  0.3334350000000 1.0
C      1  0.3235280000000  0.4693420000000  0.3156430000000 1.0
C      1  0.6763370000000  0.3668770000000  0.3688600000000 1.0
C      1  0.3234540000000  0.3161820000000  0.4725180000000 1.0
C      1  0.6756420000000  0.3348070000000  0.5853850000000 1.0
C      1  0.3236720000000  0.4162480000000  0.6667950000000 1.0
C      1  0.6766470000000  0.5306010000000  0.6840720000000 1.0
C      1  0.3219880000000  0.6322330000000  0.6303440000000 1.0
C      1  0.4593310000000  0.2690600000000  0.5622450000000 1.0
C      1  0.5402670000000  0.3492230000000  0.6855840000000 1.0
C      1  0.4601530000000  0.4874830000000  0.7386960000000 1.0
C      1  0.5406430000000  0.6303700000000  0.6994680000000 1.0
C      1  0.4605700000000  0.7233580000000  0.5830350000000 1.0
C      1  0.5406930000000  0.7306390000000  0.4374350000000 1.0
C      1  0.4597050000000  0.6507140000000  0.3148280000000 1.0
C      1  0.5403470000000  0.5129440000000  0.2614930000000 1.0
C      1  0.4602770000000  0.3691810000000  0.3005050000000 1.0
C      1  0.5403420000000  0.2769510000000  0.4161620000000 1.0
C      1  0.4597710000000  0.3181330000000  0.6549610000000 1.0
C      1  0.5399020000000  0.4428790000000  0.7314100000000 1.0
C      1  0.4608040000000  0.5902180000000  0.7211290000000 1.0
C      1  0.5404100000000  0.7038720000000  0.6238610000000 1.0
C      1  0.4601820000000  0.7401440000000  0.4806320000000 1.0
C      1  0.5401890000000  0.6818900000000  0.3453770000000 1.0
C      1  0.4601020000000  0.5568820000000  0.2682080000000 1.0
C      1  0.5401790000000  0.4090300000000  0.2795100000000 1.0
C      1  0.4604640000000  0.2960180000000  0.3757360000000 1.0
C      1  0.5401920000000  0.2598660000000  0.5196150000000 1.0
END
