TITL C-1525613-7943-4654 -0.000749183633015359 3375 -8675.23156702323 0 0 60 (C5) n - 1
REM
REM in /home/nfs/bkarasulu/CARBON/AIRSS/Generating-Clusters/ReaxFF-fromJPCA2015/Units_Real/Try2-Higher-symm/Only-C60
REM
REM
REM
REM
REM
REM ./C.cell (863b2abdce7293c0672fb3ba77bf323a)
REM AIRSS Version 0.9.1 bugfix July 2018 build 013d7b7c2542+ Fri, 06 Jul 2018 19:26:36 +0100
REM compiler GCC version 9.2.1 20190827 (Red Hat 9.2.1-1)
REM options -cpp -mtune=generic -march=x86-64 -g -O0 -fpre-include=/usr/include/finclude/math-vector-fortran.h
REM seed -972077389 266494317 1665542002 1802789106 473506064 -1545718295 -579555299 1017515038 460743970 1016689359 -349806679 1677008082 -1404444275 1858112884 -431749917 -30941062 847605435 1654301552 -834586382 -1825949154 770140019 284704555 -2120384960 -291902605 -825560655 -261125580 -1218560659 -1884916746 -959072001 -39925558 2061647067 2139454043 -974062911
REM
CELL 1.54180   15.00000   15.00000   15.00000   90.00000   90.00000   90.00000
LATT -1
SFAC C  
C      1  0.5492160000000  0.6524950000000  0.3285210000000 1.0
C      1  0.6597640000000  0.5005820000000  0.3292440000000 1.0
C      1  0.5498200000000  0.3483620000000  0.3294150000000 1.0
C      1  0.3708350000000  0.4058250000000  0.3289020000000 1.0
C      1  0.3703810000000  0.5940390000000  0.3285610000000 1.0
C      1  0.4511410000000  0.6522760000000  0.3291100000000 1.0
C      1  0.3404110000000  0.5006400000000  0.3295030000000 1.0
C      1  0.4502380000000  0.3482350000000  0.3291840000000 1.0
C      1  0.6293480000000  0.4057800000000  0.3286930000000 1.0
C      1  0.6297430000000  0.5939520000000  0.3285260000000 1.0
C      1  0.5992670000000  0.2799370000000  0.4753040000000 1.0
C      1  0.3202200000000  0.3368010000000  0.4743860000000 1.0
C      1  0.2891430000000  0.6208280000000  0.4741440000000 1.0
C      1  0.5497500000000  0.7375020000000  0.4741610000000 1.0
C      1  0.7396200000000  0.5263850000000  0.4752330000000 1.0
C      1  0.4004330000000  0.2791360000000  0.4747800000000 1.0
C      1  0.6800580000000  0.3367680000000  0.4742120000000 1.0
C      1  0.7104990000000  0.6207250000000  0.4741480000000 1.0
C      1  0.4510310000000  0.7360660000000  0.4751690000000 1.0
C      1  0.2602610000000  0.5263770000000  0.4754230000000 1.0
C      1  0.4512930000000  0.6510680000000  0.5221940000000 1.0
C      1  0.6289100000000  0.5929410000000  0.5217030000000 1.0
C      1  0.6282950000000  0.4058520000000  0.5216420000000 1.0
C      1  0.4502750000000  0.3490310000000  0.5218810000000 1.0
C      1  0.3411760000000  0.5005510000000  0.5224010000000 1.0
C      1  0.5485510000000  0.6513100000000  0.5217140000000 1.0
C      1  0.3708000000000  0.5929330000000  0.5215540000000 1.0
C      1  0.3718110000000  0.4059690000000  0.5217530000000 1.0
C      1  0.5496660000000  0.3490590000000  0.5222920000000 1.0
C      1  0.6587390000000  0.5003930000000  0.5222840000000 1.0
C      1  0.6593070000000  0.4993790000000  0.6811820000000 1.0
C      1  0.5486950000000  0.3482130000000  0.6812240000000 1.0
C      1  0.3705820000000  0.4066310000000  0.6811970000000 1.0
C      1  0.3711980000000  0.5942370000000  0.6811430000000 1.0
C      1  0.5497560000000  0.6515180000000  0.6812030000000 1.0
C      1  0.3407180000000  0.4993490000000  0.6812160000000 1.0
C      1  0.4512890000000  0.3480360000000  0.6812380000000 1.0
C      1  0.6294960000000  0.4065880000000  0.6811850000000 1.0
C      1  0.6287330000000  0.5941190000000  0.6811830000000 1.0
C      1  0.4502080000000  0.6513090000000  0.6811320000000 1.0
C      1  0.6752890000000  0.6572750000000  0.3898820000000 1.0
C      1  0.7036160000000  0.3820440000000  0.3901510000000 1.0
C      1  0.4506360000000  0.2703410000000  0.3907480000000 1.0
C      1  0.2666370000000  0.4761680000000  0.3911670000000 1.0
C      1  0.4051330000000  0.7148090000000  0.3908870000000 1.0
C      1  0.3248820000000  0.6572820000000  0.3900680000000 1.0
C      1  0.2965730000000  0.3820660000000  0.3903990000000 1.0
C      1  0.5493770000000  0.2706560000000  0.3911300000000 1.0
C      1  0.7335040000000  0.4761540000000  0.3909630000000 1.0
C      1  0.5953980000000  0.7153450000000  0.3898930000000 1.0
C      1  0.4503620000000  0.2879360000000  0.6029050000000 1.0
C      1  0.2839230000000  0.4809470000000  0.6025870000000 1.0
C      1  0.4151350000000  0.6995650000000  0.6024180000000 1.0
C      1  0.6643220000000  0.6422740000000  0.6025390000000 1.0
C      1  0.6863300000000  0.3870210000000  0.6028900000000 1.0
C      1  0.5488940000000  0.2884310000000  0.6026550000000 1.0
C      1  0.7160470000000  0.4809630000000  0.6024700000000 1.0
C      1  0.5845340000000  0.7002390000000  0.6025430000000 1.0
C      1  0.3349960000000  0.6422420000000  0.6028510000000 1.0
C      1  0.3137340000000  0.3870440000000  0.6029160000000 1.0
END
