TITL C-1525613-7943-4489 -0.0340902732752592 3375 -8541.15662185636 0 0 60 (C5) n - 1
REM
REM in /home/nfs/bkarasulu/CARBON/AIRSS/Generating-Clusters/ReaxFF-fromJPCA2015/Units_Real/Try2-Higher-symm/Only-C60
REM
REM
REM
REM
REM
REM ./C.cell (863b2abdce7293c0672fb3ba77bf323a)
REM AIRSS Version 0.9.1 bugfix July 2018 build 013d7b7c2542+ Fri, 06 Jul 2018 19:26:36 +0100
REM compiler GCC version 9.2.1 20190827 (Red Hat 9.2.1-1)
REM options -cpp -mtune=generic -march=x86-64 -g -O0 -fpre-include=/usr/include/finclude/math-vector-fortran.h
REM seed 1002390177 -1384701781 705845907 -1190094514 711288468 1682327029 1281926145 1804674999 1057280073 1119351513 1088286029 1221143213 807146134 1134263402 -482001909 1281098829 -947300521 164900136 1855359190 -1113572641 -200473498 -1324254273 -2084135498 1247274498 175870430 -95132160 428402314 -895378446 -734675830 -584929068 1721966734 732683122 -522977272
REM
CELL 1.54180   15.00000   15.00000   15.00000   90.00000   90.00000   90.00000
LATT -1
SFAC C  
C      1  0.4078880000000  0.6182490000000  0.2983930000000 1.0
C      1  0.4081040000000  0.7284910000000  0.5501290000000 1.0
C      1  0.4084720000000  0.5226880000000  0.7326860000000 1.0
C      1  0.4079870000000  0.2859040000000  0.5938440000000 1.0
C      1  0.4078030000000  0.3444760000000  0.3253650000000 1.0
C      1  0.4079220000000  0.6181280000000  0.7015950000000 1.0
C      1  0.4081320000000  0.7285090000000  0.4498880000000 1.0
C      1  0.4081530000000  0.5229110000000  0.2674290000000 1.0
C      1  0.4079940000000  0.2858970000000  0.4062190000000 1.0
C      1  0.4077800000000  0.3445340000000  0.6745790000000 1.0
C      1  0.5732750000000  0.2948460000000  0.5860470000000 1.0
C      1  0.5728010000000  0.3552130000000  0.3319290000000 1.0
C      1  0.5730360000000  0.6151330000000  0.3105390000000 1.0
C      1  0.5728770000000  0.7163970000000  0.5510700000000 1.0
C      1  0.5725880000000  0.5179050000000  0.7215640000000 1.0
C      1  0.5732360000000  0.2947700000000  0.4140620000000 1.0
C      1  0.5729660000000  0.3552440000000  0.6680150000000 1.0
C      1  0.5729000000000  0.6152580000000  0.6895260000000 1.0
C      1  0.5728650000000  0.7164450000000  0.4489380000000 1.0
C      1  0.5734660000000  0.5183600000000  0.2784660000000 1.0
C      1  0.6612670000000  0.4995710000000  0.6524330000000 1.0
C      1  0.6610830000000  0.3548030000000  0.5468440000000 1.0
C      1  0.6609550000000  0.4102490000000  0.3761320000000 1.0
C      1  0.6610290000000  0.5899780000000  0.3765040000000 1.0
C      1  0.6609170000000  0.6448600000000  0.5473550000000 1.0
C      1  0.6611920000000  0.4995970000000  0.3474540000000 1.0
C      1  0.6610820000000  0.3548130000000  0.4531370000000 1.0
C      1  0.6608840000000  0.4101670000000  0.6239530000000 1.0
C      1  0.6610410000000  0.5899460000000  0.6235080000000 1.0
C      1  0.6609240000000  0.6448210000000  0.4526400000000 1.0
C      1  0.3440160000000  0.5944200000000  0.3707670000000 1.0
C      1  0.3440720000000  0.6520500000000  0.5498640000000 1.0
C      1  0.3440110000000  0.4997220000000  0.6600400000000 1.0
C      1  0.3440930000000  0.3478120000000  0.5491330000000 1.0
C      1  0.3443020000000  0.4061870000000  0.3703150000000 1.0
C      1  0.3441430000000  0.5943170000000  0.6293630000000 1.0
C      1  0.3440390000000  0.6520310000000  0.4501470000000 1.0
C      1  0.3438630000000  0.4996480000000  0.3400340000000 1.0
C      1  0.3441100000000  0.3478120000000  0.4508480000000 1.0
C      1  0.3443070000000  0.4062620000000  0.6297490000000 1.0
C      1  0.4875890000000  0.7316460000000  0.6085760000000 1.0
C      1  0.4871630000000  0.4683200000000  0.7536890000000 1.0
C      1  0.4875730000000  0.2487780000000  0.5483210000000 1.0
C      1  0.4874250000000  0.3760910000000  0.2754970000000 1.0
C      1  0.4874730000000  0.6751420000000  0.3127760000000 1.0
C      1  0.4875730000000  0.7316230000000  0.3914310000000 1.0
C      1  0.4875470000000  0.4684160000000  0.2465680000000 1.0
C      1  0.4875630000000  0.2488710000000  0.4516570000000 1.0
C      1  0.4873980000000  0.3764980000000  0.7247440000000 1.0
C      1  0.4874680000000  0.6750220000000  0.6872110000000 1.0
C      1  0.5251770000000  0.5783490000000  0.6083060000000 1.0
C      1  0.5246240000000  0.4218720000000  0.6079600000000 1.0
C      1  0.5272060000000  0.3725610000000  0.4588910000000 1.0
C      1  0.5277180000000  0.5004490000000  0.3659650000000 1.0
C      1  0.5264590000000  0.6274050000000  0.4590990000000 1.0
C      1  0.5252820000000  0.5784540000000  0.3915740000000 1.0
C      1  0.5248760000000  0.4214480000000  0.3920840000000 1.0
C      1  0.5271830000000  0.3725060000000  0.5410160000000 1.0
C      1  0.5287240000000  0.5006450000000  0.6332820000000 1.0
C      1  0.5264040000000  0.6274800000000  0.5408540000000 1.0
END
