TITL C-1525613-7943-7011 -0.189952255137784 3375 -8689.61265604448 0 0 60 (C2) n - 1
REM
REM in /home/nfs/bkarasulu/CARBON/AIRSS/Generating-Clusters/ReaxFF-fromJPCA2015/Units_Real/Try2-Higher-symm/Only-C60
REM
REM
REM
REM
REM
REM ./C.cell (863b2abdce7293c0672fb3ba77bf323a)
REM AIRSS Version 0.9.1 bugfix July 2018 build 013d7b7c2542+ Fri, 06 Jul 2018 19:26:36 +0100
REM compiler GCC version 9.2.1 20190827 (Red Hat 9.2.1-1)
REM options -cpp -mtune=generic -march=x86-64 -g -O0 -fpre-include=/usr/include/finclude/math-vector-fortran.h
REM seed 1531421116 275650592 506414673 1465617298 1450023454 -1754854777 2091708338 1535069078 -1261825420 -1636537597 -975401498 1384119424 -287800193 5367488 1697149277 1781778021 812629266 -1658539415 -1837330040 -582956237 -473407596 -1011975746 1746686868 -29891788 713513377 1335779698 1074104748 -1315746001 692005956 1231402653 1264306146 899157289 -398894055
REM
CELL 1.54180   15.00000   15.00000   15.00000   90.00000   90.00000   90.00000
LATT -1
SFAC C  
C      1  0.6637580000000  0.6647370000000  0.3659120000000 1.0
C      1  0.6692980000000  0.7121210000000  0.4917020000000 1.0
C      1  0.6532420000000  0.6828120000000  0.6205440000000 1.0
C      1  0.6709370000000  0.5757420000000  0.7003380000000 1.0
C      1  0.6846360000000  0.4447490000000  0.7065030000000 1.0
C      1  0.6642210000000  0.3346190000000  0.6340980000000 1.0
C      1  0.6695660000000  0.2873530000000  0.5082330000000 1.0
C      1  0.6530280000000  0.3163180000000  0.3793980000000 1.0
C      1  0.6700080000000  0.4233700000000  0.2993440000000 1.0
C      1  0.6838480000000  0.5543280000000  0.2936350000000 1.0
C      1  0.5342000000000  0.2463540000000  0.5687880000000 1.0
C      1  0.5332490000000  0.2262140000000  0.4661040000000 1.0
C      1  0.5236340000000  0.3627320000000  0.2869660000000 1.0
C      1  0.5510890000000  0.5115520000000  0.2393630000000 1.0
C      1  0.5431390000000  0.6043490000000  0.2565970000000 1.0
C      1  0.5341160000000  0.7535510000000  0.4313050000000 1.0
C      1  0.5328580000000  0.7724040000000  0.5340910000000 1.0
C      1  0.5256840000000  0.6389500000000  0.7181750000000 1.0
C      1  0.5518560000000  0.4884070000000  0.7598730000000 1.0
C      1  0.5434270000000  0.3954940000000  0.7432350000000 1.0
C      1  0.6294310000000  0.7380220000000  0.5619830000000 1.0
C      1  0.6251850000000  0.6479180000000  0.6919530000000 1.0
C      1  0.6492940000000  0.5094500000000  0.7494940000000 1.0
C      1  0.6383530000000  0.3722980000000  0.7056700000000 1.0
C      1  0.6370120000000  0.2752670000000  0.5840090000000 1.0
C      1  0.6295460000000  0.2609830000000  0.4380810000000 1.0
C      1  0.6237670000000  0.3520060000000  0.3091020000000 1.0
C      1  0.6481990000000  0.4898680000000  0.2503220000000 1.0
C      1  0.6381200000000  0.6270630000000  0.2943660000000 1.0
C      1  0.6367110000000  0.7243900000000  0.4158540000000 1.0
C      1  0.3381870000000  0.6055410000000  0.6919370000000 1.0
C      1  0.3437820000000  0.4725060000000  0.7172150000000 1.0
C      1  0.3329500000000  0.3493520000000  0.6637420000000 1.0
C      1  0.3344220000000  0.2843760000000  0.5419380000000 1.0
C      1  0.3351760000000  0.2997730000000  0.4051480000000 1.0
C      1  0.3376630000000  0.3944830000000  0.3057880000000 1.0
C      1  0.3434480000000  0.5280050000000  0.2815460000000 1.0
C      1  0.3327380000000  0.6509000000000  0.3355090000000 1.0
C      1  0.3338730000000  0.7153560000000  0.4574310000000 1.0
C      1  0.3320280000000  0.7016430000000  0.5942620000000 1.0
C      1  0.3580950000000  0.6895450000000  0.6803310000000 1.0
C      1  0.3874910000000  0.5444460000000  0.7285880000000 1.0
C      1  0.3566080000000  0.3905390000000  0.7310640000000 1.0
C      1  0.3598750000000  0.2748580000000  0.6236540000000 1.0
C      1  0.3507360000000  0.2510050000000  0.4655300000000 1.0
C      1  0.3631630000000  0.3130550000000  0.3205750000000 1.0
C      1  0.3867370000000  0.4565840000000  0.2679850000000 1.0
C      1  0.3562860000000  0.6099880000000  0.2682190000000 1.0
C      1  0.3599780000000  0.7253950000000  0.3758240000000 1.0
C      1  0.3493440000000  0.7493320000000  0.5340230000000 1.0
C      1  0.4880880000000  0.5551460000000  0.7399030000000 1.0
C      1  0.4552450000000  0.3593120000000  0.7310390000000 1.0
C      1  0.4560620000000  0.2631610000000  0.6024620000000 1.0
C      1  0.4473790000000  0.2196980000000  0.4298150000000 1.0
C      1  0.4523650000000  0.3198620000000  0.3070980000000 1.0
C      1  0.4865940000000  0.4452620000000  0.2597580000000 1.0
C      1  0.4551500000000  0.6409410000000  0.2685700000000 1.0
C      1  0.4558660000000  0.7372310000000  0.3977910000000 1.0
C      1  0.4473220000000  0.7770330000000  0.5705190000000 1.0
C      1  0.4519350000000  0.6822500000000  0.6977020000000 1.0
END
