TITL C-1525613-7943-3368 6.48984285314706 3375 -2851.74185163092 0 0 60 (C5) n - 1
REM
REM in /home/nfs/bkarasulu/CARBON/AIRSS/Generating-Clusters/ReaxFF-fromJPCA2015/Units_Real/Try2-Higher-symm/Only-C60
REM
REM
REM
REM
REM
REM ./C.cell (863b2abdce7293c0672fb3ba77bf323a)
REM AIRSS Version 0.9.1 bugfix July 2018 build 013d7b7c2542+ Fri, 06 Jul 2018 19:26:36 +0100
REM compiler GCC version 9.2.1 20190827 (Red Hat 9.2.1-1)
REM options -cpp -mtune=generic -march=x86-64 -g -O0 -fpre-include=/usr/include/finclude/math-vector-fortran.h
REM seed 1176631334 -754121560 -2100076496 2030620623 -149318812 378945072 478163887 824162325 -1306977685 26527680 1568495009 -1309622404 605048037 -590264433 -1906111062 914257013 -1708667560 -900677417 -1521901173 -136267168 1857374126 1331471611 -725026104 -1127516833 -2005351829 -1662458482 1569740194 1124922234 1931940412 1377877440 -448564110 1989647178 1710393357
REM
CELL 1.54180   15.00000   15.00000   15.00000   90.00000   90.00000   90.00000
LATT -1
SFAC C  
C      1  0.6751470000000  0.6715820000000  0.3973650000000 1.0
C      1  0.4565120000000  0.6715820000000  0.3017090000000 1.0
C      1  0.2979750000000  0.6715820000000  0.4800840000000 1.0
C      1  0.4186300000000  0.6715820000000  0.6859830000000 1.0
C      1  0.6517350000000  0.6715820000000  0.6348590000000 1.0
C      1  0.3248530000000  0.6715820000000  0.3973650000000 1.0
C      1  0.5434880000000  0.6715820000000  0.3017090000000 1.0
C      1  0.7020250000000  0.6715820000000  0.4800840000000 1.0
C      1  0.5813700000000  0.6715820000000  0.6859830000000 1.0
C      1  0.3482650000000  0.6715820000000  0.6348590000000 1.0
C      1  0.3471890000000  0.3539390000000  0.5002120000000 1.0
C      1  0.4529810000000  0.3539380000000  0.6453970000000 1.0
C      1  0.6237510000000  0.3539370000000  0.5896480000000 1.0
C      1  0.6235020000000  0.3539380000000  0.4100090000000 1.0
C      1  0.4525770000000  0.3539380000000  0.3547340000000 1.0
C      1  0.6528110000000  0.3539390000000  0.5002120000000 1.0
C      1  0.5470190000000  0.3539380000000  0.6453970000000 1.0
C      1  0.3762490000000  0.3539370000000  0.5896480000000 1.0
C      1  0.3764980000000  0.3539380000000  0.4100090000000 1.0
C      1  0.5474230000000  0.3539380000000  0.3547340000000 1.0
C      1  0.2582390000000  0.4201390000000  0.5054420000000 1.0
C      1  0.4304680000000  0.4201390000000  0.7316100000000 1.0
C      1  0.6987880000000  0.4201390000000  0.6377010000000 1.0
C      1  0.6923900000000  0.4201390000000  0.3534930000000 1.0
C      1  0.4201160000000  0.4201400000000  0.2717530000000 1.0
C      1  0.7417610000000  0.4201390000000  0.5054420000000 1.0
C      1  0.5695320000000  0.4201390000000  0.7316100000000 1.0
C      1  0.3012120000000  0.4201390000000  0.6377010000000 1.0
C      1  0.3076100000000  0.4201390000000  0.3534930000000 1.0
C      1  0.5798840000000  0.4201400000000  0.2717530000000 1.0
C      1  0.6406100000000  0.4628460000000  0.4142550000000 1.0
C      1  0.4619020000000  0.4628460000000  0.3397750000000 1.0
C      1  0.3358440000000  0.4628460000000  0.4867210000000 1.0
C      1  0.4366440000000  0.4628460000000  0.6520180000000 1.0
C      1  0.6250000000000  0.4628470000000  0.6072310000000 1.0
C      1  0.3593900000000  0.4628460000000  0.4142550000000 1.0
C      1  0.5380980000000  0.4628460000000  0.3397750000000 1.0
C      1  0.6641560000000  0.4628460000000  0.4867210000000 1.0
C      1  0.5633560000000  0.4628460000000  0.6520180000000 1.0
C      1  0.3750000000000  0.4628470000000  0.6072310000000 1.0
C      1  0.6035820000000  0.5159830000000  0.2749820000000 1.0
C      1  0.3180040000000  0.5159820000000  0.3319530000000 1.0
C      1  0.2839380000000  0.5159830000000  0.6211590000000 1.0
C      1  0.5484630000000  0.5159820000000  0.7429280000000 1.0
C      1  0.7460130000000  0.5159820000000  0.5289780000000 1.0
C      1  0.3964180000000  0.5159830000000  0.2749820000000 1.0
C      1  0.6819960000000  0.5159820000000  0.3319530000000 1.0
C      1  0.7160620000000  0.5159830000000  0.6211590000000 1.0
C      1  0.4515370000000  0.5159820000000  0.7429280000000 1.0
C      1  0.2539870000000  0.5159820000000  0.5289780000000 1.0
C      1  0.3579350000000  0.5755120000000  0.5000170000000 1.0
C      1  0.4561160000000  0.5755120000000  0.6351170000000 1.0
C      1  0.6149430000000  0.5755120000000  0.5834900000000 1.0
C      1  0.6149230000000  0.5755120000000  0.4164820000000 1.0
C      1  0.4560830000000  0.5755120000000  0.3648930000000 1.0
C      1  0.6420650000000  0.5755120000000  0.5000170000000 1.0
C      1  0.5438840000000  0.5755120000000  0.6351170000000 1.0
C      1  0.3850570000000  0.5755120000000  0.5834900000000 1.0
C      1  0.3850770000000  0.5755120000000  0.4164820000000 1.0
C      1  0.5439170000000  0.5755120000000  0.3648930000000 1.0
END
