TITL C-1525613-7943-1754 -0.000544203677057691 3375 -9566.5471534468 0 0 60 (D10) n - 1
REM
REM in /home/nfs/bkarasulu/CARBON/AIRSS/Generating-Clusters/ReaxFF-fromJPCA2015/Units_Real/Try2-Higher-symm/Only-C60
REM
REM
REM
REM
REM
REM ./C.cell (863b2abdce7293c0672fb3ba77bf323a)
REM AIRSS Version 0.9.1 bugfix July 2018 build 013d7b7c2542+ Fri, 06 Jul 2018 19:26:36 +0100
REM compiler GCC version 9.2.1 20190827 (Red Hat 9.2.1-1)
REM options -cpp -mtune=generic -march=x86-64 -g -O0 -fpre-include=/usr/include/finclude/math-vector-fortran.h
REM seed -1384813399 1390334994 1094303540 1906184190 -597137214 -1506566037 -1216718279 749654494 -43910425 -6916748 -1284387379 194178421 2002199133 2127858619 42543643 201466662 977994234 -82649731 -1582584355 44567603 -968202065 -151888368 -1070781173 -191203984 805401989 853503511 1760903405 7645044 -619216516 -539294313 -152699968 1433350464 228102330
REM
CELL 1.54180   15.00000   15.00000   15.00000   90.00000   90.00000   90.00000
LATT -1
SFAC C  
C      1  0.6192870000000  0.7102670000000  0.4063030000000 1.0
C      1  0.4729680000000  0.7402160000000  0.4063720000000 1.0
C      1  0.3369650000000  0.6784950000000  0.4063030000000 1.0
C      1  0.2633360000000  0.5485330000000  0.4065090000000 1.0
C      1  0.2800410000000  0.4000830000000  0.4065090000000 1.0
C      1  0.3807130000000  0.2897330000000  0.4063030000000 1.0
C      1  0.5270320000000  0.2597840000000  0.4063720000000 1.0
C      1  0.6630360000000  0.3215050000000  0.4063030000000 1.0
C      1  0.7366640000000  0.4514670000000  0.4065090000000 1.0
C      1  0.7199590000000  0.5999170000000  0.4065100000000 1.0
C      1  0.2679360000000  0.5472000000000  0.5921380000000 1.0
C      1  0.2842310000000  0.4024050000000  0.5921370000000 1.0
C      1  0.3828640000000  0.2935910000000  0.5925450000000 1.0
C      1  0.5265500000000  0.2640670000000  0.5925130000000 1.0
C      1  0.6600800000000  0.3247870000000  0.5925450000000 1.0
C      1  0.7320640000000  0.4528000000000  0.5921380000000 1.0
C      1  0.7157690000000  0.5975950000000  0.5921380000000 1.0
C      1  0.6171360000000  0.7064090000000  0.5925450000000 1.0
C      1  0.4734500000000  0.7359330000000  0.5925130000000 1.0
C      1  0.3399190000000  0.6752130000000  0.5925450000000 1.0
C      1  0.4456150000000  0.2345280000000  0.4517390000000 1.0
C      1  0.6120250000000  0.2532560000000  0.4517390000000 1.0
C      1  0.7356270000000  0.3661970000000  0.4516980000000 1.0
C      1  0.7686370000000  0.5302300000000  0.4524520000000 1.0
C      1  0.6999960000000  0.6828240000000  0.4516980000000 1.0
C      1  0.5543850000000  0.7654720000000  0.4517390000000 1.0
C      1  0.3879750000000  0.7467440000000  0.4517380000000 1.0
C      1  0.2643730000000  0.6338030000000  0.4516970000000 1.0
C      1  0.2313630000000  0.4697700000000  0.4524520000000 1.0
C      1  0.3000040000000  0.3171760000000  0.4516970000000 1.0
C      1  0.5774780000000  0.6365240000000  0.3566500000000 1.0
C      1  0.4824480000000  0.6559750000000  0.3566920000000 1.0
C      1  0.3941180000000  0.6158900000000  0.3566500000000 1.0
C      1  0.3462350000000  0.5315170000000  0.3567330000000 1.0
C      1  0.3570860000000  0.4350970000000  0.3567330000000 1.0
C      1  0.4225220000000  0.3634760000000  0.3566500000000 1.0
C      1  0.5175520000000  0.3440250000000  0.3566920000000 1.0
C      1  0.6058820000000  0.3841100000000  0.3566500000000 1.0
C      1  0.6537650000000  0.4684830000000  0.3567330000000 1.0
C      1  0.6429150000000  0.5649030000000  0.3567330000000 1.0
C      1  0.6530240000000  0.4685480000000  0.6428090000000 1.0
C      1  0.6422070000000  0.5646750000000  0.6428090000000 1.0
C      1  0.5771900000000  0.6362600000000  0.6428520000000 1.0
C      1  0.4824750000000  0.6557300000000  0.6428500000000 1.0
C      1  0.3944560000000  0.6156960000000  0.6428520000000 1.0
C      1  0.3469760000000  0.5314510000000  0.6428090000000 1.0
C      1  0.3577930000000  0.4353250000000  0.6428090000000 1.0
C      1  0.4228090000000  0.3637400000000  0.6428520000000 1.0
C      1  0.5175250000000  0.3442700000000  0.6428500000000 1.0
C      1  0.6055440000000  0.3843040000000  0.6428530000000 1.0
C      1  0.7324150000000  0.3682070000000  0.5497690000000 1.0
C      1  0.7640810000000  0.5297170000000  0.5500050000000 1.0
C      1  0.6973110000000  0.6801510000000  0.5497690000000 1.0
C      1  0.5536750000000  0.7619450000000  0.5498140000000 1.0
C      1  0.3894510000000  0.7434630000000  0.5498140000000 1.0
C      1  0.2675850000000  0.6317930000000  0.5497690000000 1.0
C      1  0.2359190000000  0.4702830000000  0.5500040000000 1.0
C      1  0.3026890000000  0.3198490000000  0.5497690000000 1.0
C      1  0.4463250000000  0.2380550000000  0.5498140000000 1.0
C      1  0.6105490000000  0.2565370000000  0.5498140000000 1.0
END
