TITL C-1525613-7943-4092 -2.59990397780088e-05 3375 -8991.9624979204 0 0 60 (C1) n - 1
REM
REM in /home/nfs/bkarasulu/CARBON/AIRSS/Generating-Clusters/ReaxFF-fromJPCA2015/Units_Real/Try2-Higher-symm/Only-C60
REM
REM
REM
REM
REM
REM ./C.cell (863b2abdce7293c0672fb3ba77bf323a)
REM AIRSS Version 0.9.1 bugfix July 2018 build 013d7b7c2542+ Fri, 06 Jul 2018 19:26:36 +0100
REM compiler GCC version 9.2.1 20190827 (Red Hat 9.2.1-1)
REM options -cpp -mtune=generic -march=x86-64 -g -O0 -fpre-include=/usr/include/finclude/math-vector-fortran.h
REM seed -2049139392 -1932583449 1124498629 -1519193328 -491420137 -912129691 -412127000 -1919526439 777962275 1854590943 -1919819958 1441076435 -1563611726 1906750845 1505120255 -1149890471 -1450231278 402849885 1034702966 917918825 -1750578999 2119619603 926426625 -1473126836 -13910641 2142443925 494034930 304791445 -1054814026 1726990961 117404902 963055107 661782241
REM
CELL 1.54180   15.00000   15.00000   15.00000   90.00000   90.00000   90.00000
LATT -1
SFAC C  
C      1  0.5489890000000  0.6995270000000  0.3527200000000 1.0
C      1  0.3747210000000  0.7000810000000  0.4092630000000 1.0
C      1  0.3723950000000  0.7014070000000  0.5930390000000 1.0
C      1  0.5480100000000  0.7010260000000  0.6479920000000 1.0
C      1  0.6559380000000  0.7000450000000  0.4994140000000 1.0
C      1  0.5489430000000  0.3003400000000  0.6478620000000 1.0
C      1  0.3748430000000  0.2998320000000  0.5907060000000 1.0
C      1  0.3723100000000  0.2982090000000  0.4069090000000 1.0
C      1  0.5477900000000  0.2991090000000  0.3517000000000 1.0
C      1  0.6546150000000  0.3006180000000  0.5008120000000 1.0
C      1  0.5253520000000  0.5576750000000  0.5806070000000 1.0
C      1  0.5830090000000  0.5569390000000  0.4989890000000 1.0
C      1  0.5242430000000  0.5571020000000  0.4210450000000 1.0
C      1  0.4322470000000  0.5566720000000  0.4504920000000 1.0
C      1  0.4303670000000  0.5567410000000  0.5489760000000 1.0
C      1  0.5255850000000  0.4422590000000  0.4202180000000 1.0
C      1  0.5822940000000  0.4437760000000  0.5004920000000 1.0
C      1  0.5247140000000  0.4418260000000  0.5779830000000 1.0
C      1  0.4321440000000  0.4437590000000  0.5493500000000 1.0
C      1  0.4309700000000  0.4423250000000  0.4507670000000 1.0
C      1  0.5549340000000  0.5932770000000  0.3321380000000 1.0
C      1  0.3557740000000  0.5931630000000  0.3958070000000 1.0
C      1  0.3522620000000  0.5938560000000  0.6069670000000 1.0
C      1  0.5555980000000  0.5947830000000  0.6729660000000 1.0
C      1  0.6798340000000  0.5945640000000  0.4992440000000 1.0
C      1  0.5550810000000  0.4065460000000  0.6679720000000 1.0
C      1  0.3557240000000  0.4066430000000  0.6041850000000 1.0
C      1  0.3526480000000  0.4059440000000  0.3930880000000 1.0
C      1  0.5553160000000  0.4055880000000  0.3278900000000 1.0
C      1  0.6763290000000  0.4067120000000  0.5006360000000 1.0
C      1  0.6486650000000  0.4517440000000  0.6690330000000 1.0
C      1  0.7057470000000  0.4509330000000  0.4106630000000 1.0
C      1  0.4780970000000  0.4511840000000  0.2748970000000 1.0
C      1  0.2788110000000  0.4514280000000  0.4503120000000 1.0
C      1  0.3849100000000  0.4511620000000  0.6935090000000 1.0
C      1  0.6488340000000  0.5486050000000  0.3309440000000 1.0
C      1  0.7064770000000  0.5493100000000  0.5895480000000 1.0
C      1  0.4780930000000  0.5487580000000  0.7251460000000 1.0
C      1  0.2786950000000  0.5483440000000  0.5497040000000 1.0
C      1  0.3848030000000  0.5487050000000  0.3063010000000 1.0
C      1  0.4783540000000  0.5484810000000  0.2764720000000 1.0
C      1  0.2797220000000  0.5488640000000  0.4511210000000 1.0
C      1  0.3840410000000  0.5487130000000  0.6946390000000 1.0
C      1  0.6491210000000  0.5493120000000  0.6697440000000 1.0
C      1  0.7072860000000  0.5483350000000  0.4101080000000 1.0
C      1  0.4784840000000  0.4514510000000  0.7233780000000 1.0
C      1  0.2797040000000  0.4508630000000  0.5488780000000 1.0
C      1  0.3840210000000  0.4511510000000  0.3051690000000 1.0
C      1  0.6489100000000  0.4510700000000  0.3303380000000 1.0
C      1  0.7063320000000  0.4519210000000  0.5894710000000 1.0
C      1  0.4593560000000  0.2876780000000  0.3757380000000 1.0
C      1  0.3699090000000  0.2878970000000  0.4992540000000 1.0
C      1  0.4622550000000  0.2895550000000  0.6209700000000 1.0
C      1  0.6191270000000  0.2669110000000  0.5867210000000 1.0
C      1  0.6027050000000  0.2894810000000  0.4262590000000 1.0
C      1  0.4595340000000  0.7120460000000  0.6239110000000 1.0
C      1  0.3699880000000  0.7118820000000  0.5007010000000 1.0
C      1  0.4622440000000  0.7103690000000  0.3794110000000 1.0
C      1  0.6193020000000  0.7328500000000  0.4136350000000 1.0
C      1  0.6034930000000  0.7106550000000  0.5737940000000 1.0
END
