TITL C-1525613-7943-5416 0.00205494119094601 3375 -8832.00952758752 0 0 60 (Ci) n - 1
REM
REM in /home/nfs/bkarasulu/CARBON/AIRSS/Generating-Clusters/ReaxFF-fromJPCA2015/Units_Real/Try2-Higher-symm/Only-C60
REM
REM
REM
REM
REM
REM ./C.cell (863b2abdce7293c0672fb3ba77bf323a)
REM AIRSS Version 0.9.1 bugfix July 2018 build 013d7b7c2542+ Fri, 06 Jul 2018 19:26:36 +0100
REM compiler GCC version 9.2.1 20190827 (Red Hat 9.2.1-1)
REM options -cpp -mtune=generic -march=x86-64 -g -O0 -fpre-include=/usr/include/finclude/math-vector-fortran.h
REM seed 790189057 -1060308017 869794746 969820934 -1766680393 1194568155 -1350623939 -1021824477 -780360367 167253958 -1917589764 -2109466554 30839945 -1838811811 674485012 -230871731 184550288 932529778 -1680690789 590824756 -1027361960 1371390421 1502100799 757982301 -565007016 -1981901380 1346861684 1913995624 1572861401 -1220374830 -824886798 1203762172 -329890294
REM
CELL 1.54180   15.00000   15.00000   15.00000   90.00000   90.00000   90.00000
LATT -1
SFAC C  
C      1  0.4961210000000  0.2745760000000  0.6532130000000 1.0
C      1  0.4029010000000  0.7303170000000  0.6214410000000 1.0
C      1  0.3515940000000  0.2622630000000  0.5424940000000 1.0
C      1  0.3534810000000  0.7251060000000  0.4469820000000 1.0
C      1  0.4152300000000  0.2632110000000  0.3726620000000 1.0
C      1  0.5047460000000  0.7250580000000  0.3470080000000 1.0
C      1  0.5966740000000  0.2701240000000  0.3782580000000 1.0
C      1  0.6486130000000  0.7375650000000  0.4582530000000 1.0
C      1  0.6470390000000  0.2748660000000  0.5524800000000 1.0
C      1  0.5848550000000  0.7397570000000  0.6286830000000 1.0
C      1  0.2615690000000  0.4246450000000  0.5668210000000 1.0
C      1  0.2907740000000  0.5503920000000  0.4327430000000 1.0
C      1  0.3506030000000  0.4234940000000  0.3074880000000 1.0
C      1  0.4857580000000  0.5460230000000  0.2838780000000 1.0
C      1  0.6421710000000  0.4500330000000  0.3328360000000 1.0
C      1  0.7380460000000  0.5748910000000  0.4328710000000 1.0
C      1  0.7089520000000  0.4496130000000  0.5670560000000 1.0
C      1  0.6509080000000  0.5764650000000  0.6946630000000 1.0
C      1  0.5145120000000  0.4539550000000  0.7153150000000 1.0
C      1  0.3579360000000  0.5494950000000  0.6662090000000 1.0
C      1  0.5568180000000  0.5910570000000  0.5720380000000 1.0
C      1  0.4824440000000  0.4120240000000  0.5742600000000 1.0
C      1  0.4637220000000  0.5910750000000  0.5673220000000 1.0
C      1  0.4091190000000  0.4103410000000  0.5145350000000 1.0
C      1  0.4384230000000  0.5872170000000  0.4770690000000 1.0
C      1  0.4424180000000  0.4089190000000  0.4278470000000 1.0
C      1  0.5172220000000  0.5874030000000  0.4257330000000 1.0
C      1  0.5342450000000  0.4084300000000  0.4320150000000 1.0
C      1  0.5905710000000  0.5892920000000  0.4842050000000 1.0
C      1  0.5611490000000  0.4122480000000  0.5224680000000 1.0
C      1  0.5173560000000  0.6227980000000  0.3347410000000 1.0
C      1  0.5911110000000  0.3721200000000  0.3610440000000 1.0
C      1  0.6712170000000  0.6368960000000  0.4595190000000 1.0
C      1  0.6466680000000  0.3775060000000  0.5530720000000 1.0
C      1  0.6006340000000  0.6389600000000  0.6440440000000 1.0
C      1  0.4826480000000  0.3767790000000  0.6652200000000 1.0
C      1  0.4077830000000  0.6283220000000  0.6383260000000 1.0
C      1  0.3284600000000  0.3628350000000  0.5402490000000 1.0
C      1  0.3532060000000  0.6224360000000  0.4459890000000 1.0
C      1  0.4003050000000  0.3630060000000  0.3602200000000 1.0
C      1  0.5694020000000  0.7596270000000  0.4087860000000 1.0
C      1  0.6142810000000  0.2429170000000  0.4683760000000 1.0
C      1  0.6054080000000  0.7661360000000  0.5388950000000 1.0
C      1  0.5662370000000  0.2460200000000  0.5949880000000 1.0
C      1  0.4928120000000  0.7626470000000  0.6139470000000 1.0
C      1  0.4310810000000  0.2400760000000  0.5918210000000 1.0
C      1  0.3860450000000  0.7569820000000  0.5312040000000 1.0
C      1  0.3949750000000  0.2341510000000  0.4619270000000 1.0
C      1  0.4343910000000  0.7540550000000  0.4047240000000 1.0
C      1  0.5069610000000  0.2377960000000  0.3866820000000 1.0
C      1  0.6128880000000  0.4882620000000  0.7135750000000 1.0
C      1  0.4356250000000  0.5044580000000  0.6983820000000 1.0
C      1  0.2807380000000  0.5114240000000  0.6085330000000 1.0
C      1  0.2531010000000  0.5121020000000  0.5170430000000 1.0
C      1  0.3110560000000  0.5082810000000  0.3441650000000 1.0
C      1  0.3875440000000  0.5110840000000  0.2861710000000 1.0
C      1  0.5649700000000  0.4957010000000  0.3001790000000 1.0
C      1  0.7189060000000  0.4880480000000  0.3911320000000 1.0
C      1  0.7467140000000  0.4876600000000  0.4826110000000 1.0
C      1  0.6888680000000  0.4910600000000  0.6555920000000 1.0
END
