TITL C-1525613-7943-7745 -0.173823008161884 3375 -8732.11104014626 0 0 60 (Ci) n - 1
REM
REM in /home/nfs/bkarasulu/CARBON/AIRSS/Generating-Clusters/ReaxFF-fromJPCA2015/Units_Real/Try2-Higher-symm/Only-C60
REM
REM
REM
REM
REM
REM ./C.cell (863b2abdce7293c0672fb3ba77bf323a)
REM AIRSS Version 0.9.1 bugfix July 2018 build 013d7b7c2542+ Fri, 06 Jul 2018 19:26:36 +0100
REM compiler GCC version 9.2.1 20190827 (Red Hat 9.2.1-1)
REM options -cpp -mtune=generic -march=x86-64 -g -O0 -fpre-include=/usr/include/finclude/math-vector-fortran.h
REM seed -804270434 1713131992 -843699553 1025180938 1227556365 711030958 811508506 1106489383 834647818 504461853 -1205341514 -1562956403 -1952328612 1247661158 1445193083 583794566 -2123256124 -83308863 1038415845 -696441419 299719134 -1573289958 -2094522592 674003930 -1319845305 1240720541 489215526 1788145328 -1900702959 -436556325 -543762829 -1969074585 -2106714765
REM
CELL 1.54180   15.00000   15.00000   15.00000   90.00000   90.00000   90.00000
LATT -1
SFAC C  
C      1  0.4334990000000  0.5629210000000  0.6713520000000 1.0
C      1  0.3428500000000  0.4367620000000  0.6002710000000 1.0
C      1  0.3186690000000  0.5650460000000  0.4918880000000 1.0
C      1  0.3537640000000  0.4348830000000  0.3840350000000 1.0
C      1  0.4527880000000  0.5638490000000  0.3224430000000 1.0
C      1  0.5665010000000  0.4370790000000  0.3286480000000 1.0
C      1  0.6571500000000  0.5632380000000  0.3997290000000 1.0
C      1  0.6813310000000  0.4349540000000  0.5081120000000 1.0
C      1  0.6462360000000  0.5651170000000  0.6159650000000 1.0
C      1  0.5472120000000  0.4361510000000  0.6775570000000 1.0
C      1  0.4783170000000  0.5689720000000  0.4213080000000 1.0
C      1  0.5251650000000  0.4303520000000  0.4228190000000 1.0
C      1  0.5690850000000  0.5683590000000  0.4535550000000 1.0
C      1  0.5790230000000  0.4300070000000  0.5022340000000 1.0
C      1  0.5661960000000  0.5684350000000  0.5492690000000 1.0
C      1  0.5216830000000  0.4310280000000  0.5786920000000 1.0
C      1  0.4748350000000  0.5696480000000  0.5771810000000 1.0
C      1  0.4309150000000  0.4316410000000  0.5464450000000 1.0
C      1  0.4209770000000  0.5699930000000  0.4977660000000 1.0
C      1  0.4338040000000  0.4315650000000  0.4507310000000 1.0
C      1  0.5296850000000  0.6096960000000  0.2785630000000 1.0
C      1  0.6540240000000  0.3905810000000  0.3388370000000 1.0
C      1  0.7192760000000  0.6056430000000  0.4667810000000 1.0
C      1  0.7015860000000  0.3942120000000  0.5987320000000 1.0
C      1  0.6053420000000  0.6088510000000  0.6977710000000 1.0
C      1  0.4703150000000  0.3903040000000  0.7214370000000 1.0
C      1  0.3459760000000  0.6094190000000  0.6611630000000 1.0
C      1  0.2807240000000  0.3943570000000  0.5332190000000 1.0
C      1  0.2984140000000  0.6057880000000  0.4012680000000 1.0
C      1  0.3946580000000  0.3911490000000  0.3022290000000 1.0
C      1  0.4516970000000  0.3097950000000  0.6659210000000 1.0
C      1  0.3641000000000  0.6903470000000  0.6063770000000 1.0
C      1  0.3274830000000  0.3107740000000  0.5037350000000 1.0
C      1  0.3573960000000  0.6866700000000  0.4011990000000 1.0
C      1  0.4423440000000  0.3110200000000  0.3359340000000 1.0
C      1  0.5483030000000  0.6902050000000  0.3340790000000 1.0
C      1  0.6359000000000  0.3096530000000  0.3936230000000 1.0
C      1  0.6725170000000  0.6892260000000  0.4962650000000 1.0
C      1  0.6426040000000  0.3133300000000  0.5988010000000 1.0
C      1  0.5576560000000  0.6889800000000  0.6640660000000 1.0
C      1  0.4272510000000  0.4805590000000  0.2721270000000 1.0
C      1  0.5761130000000  0.5205700000000  0.2735390000000 1.0
C      1  0.6960580000000  0.4792460000000  0.3614180000000 1.0
C      1  0.7271340000000  0.5199700000000  0.5101930000000 1.0
C      1  0.6923540000000  0.4826580000000  0.6348340000000 1.0
C      1  0.5727490000000  0.5194410000000  0.7278730000000 1.0
C      1  0.4238870000000  0.4794300000000  0.7264610000000 1.0
C      1  0.3039420000000  0.5207540000000  0.6385820000000 1.0
C      1  0.2728660000000  0.4800300000000  0.4898070000000 1.0
C      1  0.3076460000000  0.5173420000000  0.3651660000000 1.0
C      1  0.4328360000000  0.7313050000000  0.5508440000000 1.0
C      1  0.4144950000000  0.2687800000000  0.5010360000000 1.0
C      1  0.4285720000000  0.7306110000000  0.4496630000000 1.0
C      1  0.4723860000000  0.2689110000000  0.4187870000000 1.0
C      1  0.5240550000000  0.7313320000000  0.4188380000000 1.0
C      1  0.5671640000000  0.2686950000000  0.4491560000000 1.0
C      1  0.5855050000000  0.7312200000000  0.4989640000000 1.0
C      1  0.5714280000000  0.2693890000000  0.5503370000000 1.0
C      1  0.5276140000000  0.7310890000000  0.5812130000000 1.0
C      1  0.4759450000000  0.2686680000000  0.5811620000000 1.0
END
