TITL C-1525613-7943-4765 -0.0430066507649942 3375 -8965.30556402175 0 0 60 (C1) n - 1
REM
REM in /home/nfs/bkarasulu/CARBON/AIRSS/Generating-Clusters/ReaxFF-fromJPCA2015/Units_Real/Try2-Higher-symm/Only-C60
REM
REM
REM
REM
REM
REM ./C.cell (863b2abdce7293c0672fb3ba77bf323a)
REM AIRSS Version 0.9.1 bugfix July 2018 build 013d7b7c2542+ Fri, 06 Jul 2018 19:26:36 +0100
REM compiler GCC version 9.2.1 20190827 (Red Hat 9.2.1-1)
REM options -cpp -mtune=generic -march=x86-64 -g -O0 -fpre-include=/usr/include/finclude/math-vector-fortran.h
REM seed -600792493 -2117186096 -180546097 1629958067 -1847938768 -330447656 -786965940 -2067580823 -704974329 -1988073550 1742356316 -935082799 -1767126978 -1719763940 1564000009 1095065731 592352188 -1773996634 -1944460614 -1056394972 982834836 -1354780498 1060672236 1166297382 1183156494 -658112520 -1574698719 -1164451420 -716817741 662871535 77393864 -311058775 -668879214
REM
CELL 1.54180   15.00000   15.00000   15.00000   90.00000   90.00000   90.00000
LATT -1
SFAC C  
C      1  0.6163990000000  0.5349500000000  0.7452280000000 1.0
C      1  0.6174970000000  0.6666980000000  0.6836980000000 1.0
C      1  0.6121210000000  0.7305670000000  0.5538670000000 1.0
C      1  0.5897700000000  0.6980370000000  0.4100340000000 1.0
C      1  0.6091020000000  0.6087440000000  0.2934390000000 1.0
C      1  0.5991990000000  0.4646050000000  0.2657250000000 1.0
C      1  0.6220230000000  0.3252110000000  0.3214740000000 1.0
C      1  0.6180790000000  0.2648920000000  0.4490420000000 1.0
C      1  0.5880830000000  0.3062530000000  0.5917220000000 1.0
C      1  0.6103030000000  0.3943570000000  0.7104850000000 1.0
C      1  0.4666200000000  0.2905350000000  0.4740810000000 1.0
C      1  0.4649210000000  0.3932510000000  0.6667150000000 1.0
C      1  0.4688160000000  0.4772680000000  0.7162520000000 1.0
C      1  0.4718870000000  0.5951810000000  0.6990110000000 1.0
C      1  0.4699620000000  0.6832630000000  0.6210320000000 1.0
C      1  0.4666650000000  0.6987880000000  0.5245030000000 1.0
C      1  0.4587010000000  0.6501770000000  0.3046580000000 1.0
C      1  0.4630110000000  0.5746390000000  0.2519140000000 1.0
C      1  0.4713170000000  0.3559650000000  0.2988160000000 1.0
C      1  0.4654580000000  0.2857200000000  0.3724860000000 1.0
C      1  0.5556090000000  0.5470560000000  0.2409180000000 1.0
C      1  0.5578360000000  0.3765190000000  0.2659570000000 1.0
C      1  0.5697530000000  0.2604900000000  0.3671850000000 1.0
C      1  0.5456860000000  0.2613650000000  0.5166680000000 1.0
C      1  0.5419870000000  0.3367540000000  0.6716880000000 1.0
C      1  0.5594250000000  0.4598870000000  0.7590100000000 1.0
C      1  0.5580950000000  0.6128100000000  0.7391450000000 1.0
C      1  0.5613340000000  0.7263450000000  0.6352050000000 1.0
C      1  0.5436640000000  0.7395750000000  0.4851620000000 1.0
C      1  0.5490620000000  0.6783460000000  0.3245420000000 1.0
C      1  0.3290600000000  0.5430350000000  0.7399440000000 1.0
C      1  0.3298660000000  0.6624330000000  0.6867310000000 1.0
C      1  0.3253280000000  0.6906950000000  0.5593020000000 1.0
C      1  0.3410900000000  0.6554380000000  0.4303500000000 1.0
C      1  0.3308640000000  0.5761540000000  0.3241520000000 1.0
C      1  0.3455650000000  0.4555160000000  0.2706630000000 1.0
C      1  0.3249330000000  0.3327450000000  0.3179600000000 1.0
C      1  0.3226640000000  0.3058040000000  0.4439090000000 1.0
C      1  0.3412780000000  0.3497470000000  0.5699370000000 1.0
C      1  0.3238840000000  0.4280010000000  0.6775160000000 1.0
C      1  0.3691200000000  0.4697680000000  0.7384600000000 1.0
C      1  0.3833670000000  0.6130580000000  0.7376650000000 1.0
C      1  0.3710160000000  0.7082250000000  0.6301020000000 1.0
C      1  0.3755420000000  0.7044430000000  0.4909350000000 1.0
C      1  0.3673100000000  0.6493880000000  0.3482280000000 1.0
C      1  0.3705450000000  0.5358500000000  0.2580550000000 1.0
C      1  0.3822920000000  0.3766150000000  0.2661500000000 1.0
C      1  0.3624430000000  0.2808780000000  0.3723960000000 1.0
C      1  0.3765320000000  0.2960230000000  0.5113470000000 1.0
C      1  0.3738140000000  0.3658440000000  0.6467790000000 1.0
C      1  0.6654820000000  0.5713270000000  0.3638750000000 1.0
C      1  0.6592130000000  0.4762830000000  0.3425540000000 1.0
C      1  0.6728650000000  0.3884280000000  0.3815830000000 1.0
C      1  0.6716400000000  0.3480080000000  0.4685930000000 1.0
C      1  0.6547010000000  0.3707160000000  0.5621750000000 1.0
C      1  0.6689580000000  0.4294620000000  0.6394770000000 1.0
C      1  0.6724920000000  0.5232890000000  0.6638760000000 1.0
C      1  0.6727760000000  0.6109090000000  0.6226100000000 1.0
C      1  0.6688980000000  0.6520930000000  0.5347820000000 1.0
C      1  0.6540750000000  0.6315740000000  0.4402320000000 1.0
END
