TITL C-1525613-7943-643 -0.0303794892751993 3375 -8860.91088588772 0 0 60 (C1) n - 1
REM
REM in /home/nfs/bkarasulu/CARBON/AIRSS/Generating-Clusters/ReaxFF-fromJPCA2015/Units_Real/Try2-Higher-symm/Only-C60
REM
REM
REM
REM
REM
REM ./C.cell (863b2abdce7293c0672fb3ba77bf323a)
REM AIRSS Version 0.9.1 bugfix July 2018 build 013d7b7c2542+ Fri, 06 Jul 2018 19:26:36 +0100
REM compiler GCC version 9.2.1 20190827 (Red Hat 9.2.1-1)
REM options -cpp -mtune=generic -march=x86-64 -g -O0 -fpre-include=/usr/include/finclude/math-vector-fortran.h
REM seed -896309749 -226740029 -1871939172 196822686 1584241948 -813262997 -945292352 788403578 819401214 529265823 1353819374 -1972814584 1141115394 -516577937 225890192 2097914524 -1283353777 649292590 -311657036 -966893700 -1145696007 63474643 2001906139 -669858511 -1203044273 -765992111 -928193864 -1718291495 1800952113 1483463685 -473893880 2066980751 -1879543992
REM
CELL 1.54180   15.00000   15.00000   15.00000   90.00000   90.00000   90.00000
LATT -1
SFAC C  
C      1  0.7031150000000  0.3453980000000  0.4473720000000 1.0
C      1  0.3007550000000  0.3546040000000  0.5477250000000 1.0
C      1  0.7013000000000  0.4038520000000  0.6268000000000 1.0
C      1  0.3011660000000  0.5034510000000  0.6659290000000 1.0
C      1  0.7023570000000  0.5943580000000  0.6309730000000 1.0
C      1  0.2985750000000  0.6405110000000  0.5406940000000 1.0
C      1  0.7034870000000  0.6526340000000  0.4511980000000 1.0
C      1  0.3014930000000  0.5911710000000  0.3570450000000 1.0
C      1  0.6982350000000  0.4992070000000  0.3395880000000 1.0
C      1  0.3020290000000  0.4041870000000  0.3638570000000 1.0
C      1  0.4344950000000  0.4563250000000  0.4640020000000 1.0
C      1  0.5674140000000  0.4192130000000  0.5139410000000 1.0
C      1  0.4301800000000  0.4462540000000  0.5596760000000 1.0
C      1  0.5759520000000  0.4812250000000  0.5822230000000 1.0
C      1  0.4404120000000  0.5354230000000  0.5849740000000 1.0
C      1  0.5744360000000  0.5687810000000  0.5444590000000 1.0
C      1  0.4411230000000  0.5886320000000  0.5077710000000 1.0
C      1  0.5641040000000  0.5613310000000  0.4511900000000 1.0
C      1  0.3889010000000  0.5401220000000  0.4472180000000 1.0
C      1  0.5301930000000  0.4704780000000  0.4410910000000 1.0
C      1  0.7027760000000  0.4202450000000  0.3921070000000 1.0
C      1  0.2797720000000  0.3716970000000  0.4546310000000 1.0
C      1  0.7263490000000  0.3627760000000  0.5439690000000 1.0
C      1  0.2798860000000  0.4222490000000  0.6159280000000 1.0
C      1  0.7222430000000  0.4993960000000  0.6388600000000 1.0
C      1  0.2971440000000  0.5824280000000  0.6115800000000 1.0
C      1  0.7136960000000  0.6278580000000  0.5428400000000 1.0
C      1  0.3000860000000  0.5826470000000  0.4558410000000 1.0
C      1  0.7103130000000  0.5779160000000  0.3920430000000 1.0
C      1  0.2914450000000  0.4976150000000  0.3486380000000 1.0
C      1  0.3984420000000  0.3889150000000  0.3350450000000 1.0
C      1  0.6102320000000  0.3135460000000  0.4254140000000 1.0
C      1  0.3937970000000  0.3103280000000  0.5510380000000 1.0
C      1  0.6082630000000  0.3737340000000  0.6640560000000 1.0
C      1  0.3923930000000  0.4945440000000  0.7111880000000 1.0
C      1  0.6083780000000  0.6173350000000  0.6704210000000 1.0
C      1  0.3795000000000  0.6866940000000  0.5760600000000 1.0
C      1  0.6083430000000  0.6948950000000  0.4422900000000 1.0
C      1  0.3982800000000  0.6193050000000  0.3318860000000 1.0
C      1  0.6039950000000  0.5001820000000  0.2935270000000 1.0
C      1  0.5490630000000  0.5778810000000  0.2956870000000 1.0
C      1  0.4549420000000  0.4537540000000  0.2897460000000 1.0
C      1  0.5496250000000  0.3413060000000  0.3563530000000 1.0
C      1  0.4521090000000  0.2971110000000  0.4764800000000 1.0
C      1  0.5496630000000  0.3195420000000  0.6115720000000 1.0
C      1  0.4504040000000  0.4209980000000  0.6990300000000 1.0
C      1  0.5519230000000  0.5522790000000  0.7109520000000 1.0
C      1  0.4464780000000  0.6621270000000  0.6394800000000 1.0
C      1  0.5494990000000  0.7112080000000  0.5149750000000 1.0
C      1  0.4511280000000  0.6739850000000  0.3878380000000 1.0
C      1  0.4541390000000  0.5740710000000  0.6932490000000 1.0
C      1  0.5461490000000  0.6640900000000  0.6037790000000 1.0
C      1  0.4523620000000  0.6886700000000  0.4886290000000 1.0
C      1  0.5466840000000  0.6441130000000  0.3774970000000 1.0
C      1  0.4566490000000  0.5541740000000  0.2861030000000 1.0
C      1  0.5467560000000  0.4222990000000  0.2966010000000 1.0
C      1  0.4554700000000  0.3254090000000  0.3828980000000 1.0
C      1  0.5502540000000  0.3102780000000  0.5093750000000 1.0
C      1  0.4528940000000  0.3520020000000  0.6233310000000 1.0
C      1  0.5487560000000  0.4532380000000  0.6913410000000 1.0
END
