TITL C-1525613-7943-2232 0.312693846618751 3375 -8479.35462077124 0 0 60 (S10) n - 1
REM
REM in /home/nfs/bkarasulu/CARBON/AIRSS/Generating-Clusters/ReaxFF-fromJPCA2015/Units_Real/Try2-Higher-symm/Only-C60
REM
REM
REM
REM
REM
REM ./C.cell (863b2abdce7293c0672fb3ba77bf323a)
REM AIRSS Version 0.9.1 bugfix July 2018 build 013d7b7c2542+ Fri, 06 Jul 2018 19:26:36 +0100
REM compiler GCC version 9.2.1 20190827 (Red Hat 9.2.1-1)
REM options -cpp -mtune=generic -march=x86-64 -g -O0 -fpre-include=/usr/include/finclude/math-vector-fortran.h
REM seed 545034645 -1108780560 351959117 46012513 -2118114454 676617871 -1877023502 -1438633334 -1852768571 240159310 -1282414940 602394569 514418520 -759715428 -725883617 83563858 -964703171 -708599654 -405477404 2041178148 -801922336 1388120194 -327428968 175213613 -895255597 -1433238223 -499282765 1546079182 -177685773 573718875 747636981 1503632297 1054007714
REM
CELL 1.54180   15.00000   15.00000   15.00000   90.00000   90.00000   90.00000
LATT -1
SFAC C  
C      1  0.5876410000000  0.6333810000000  0.3229850000000 1.0
C      1  0.6494780000000  0.5564200000000  0.6770550000000 1.0
C      1  0.6541680000000  0.4579630000000  0.3229030000000 1.0
C      1  0.5997420000000  0.3754290000000  0.6771280000000 1.0
C      1  0.5075710000000  0.3406410000000  0.3229480000000 1.0
C      1  0.4123590000000  0.3666190000000  0.6770150000000 1.0
C      1  0.3505220000000  0.4435800000000  0.3229450000000 1.0
C      1  0.3458320000000  0.5420370000000  0.6770970000000 1.0
C      1  0.4002580000000  0.6245710000000  0.3228720000000 1.0
C      1  0.4924290000000  0.6593590000000  0.6770520000000 1.0
C      1  0.3025920000000  0.6761090000000  0.4648340000000 1.0
C      1  0.4437950000000  0.7585510000000  0.5351710000000 1.0
C      1  0.6064010000000  0.7421420000000  0.4649120000000 1.0
C      1  0.7285130000000  0.6333370000000  0.5350000000000 1.0
C      1  0.7633170000000  0.4735320000000  0.4648910000000 1.0
C      1  0.6974080000000  0.3238910000000  0.5351660000000 1.0
C      1  0.5562050000000  0.2414490000000  0.4648290000000 1.0
C      1  0.3935990000000  0.2578580000000  0.5350880000000 1.0
C      1  0.2714870000000  0.3666630000000  0.4650000000000 1.0
C      1  0.2366830000000  0.5264680000000  0.5351090000000 1.0
C      1  0.2671290000000  0.5721770000000  0.6096720000000 1.0
C      1  0.3541260000000  0.6951720000000  0.3901970000000 1.0
C      1  0.4966030000000  0.7436870000000  0.6098080000000 1.0
C      1  0.6404640000000  0.6991670000000  0.3903090000000 1.0
C      1  0.7308220000000  0.5784620000000  0.6096020000000 1.0
C      1  0.7328710000000  0.4278230000000  0.3903280000000 1.0
C      1  0.6458740000000  0.3048280000000  0.6098030000000 1.0
C      1  0.5033970000000  0.2563130000000  0.3901920000000 1.0
C      1  0.3595360000000  0.3008330000000  0.6096910000000 1.0
C      1  0.2691780000000  0.4215380000000  0.3903980000000 1.0
C      1  0.5759370000000  0.7231550000000  0.5536780000000 1.0
C      1  0.6926450000000  0.6359590000000  0.4462970000000 1.0
C      1  0.7358220000000  0.4967280000000  0.5536070000000 1.0
C      1  0.6888630000000  0.3587740000000  0.4464260000000 1.0
C      1  0.5697660000000  0.2746910000000  0.5535910000000 1.0
C      1  0.4240630000000  0.2768450000000  0.4463220000000 1.0
C      1  0.3073550000000  0.3640410000000  0.5537030000000 1.0
C      1  0.2641780000000  0.5032720000000  0.4463930000000 1.0
C      1  0.3111370000000  0.6412260000000  0.5535740000000 1.0
C      1  0.4302340000000  0.7253090000000  0.4464090000000 1.0
C      1  0.5349970000000  0.3656840000000  0.5235460000000 1.0
C      1  0.4493260000000  0.3708240000000  0.4764500000000 1.0
C      1  0.3830170000000  0.4252330000000  0.5236050000000 1.0
C      1  0.3614260000000  0.5082660000000  0.4764500000000 1.0
C      1  0.3927340000000  0.5881340000000  0.5236100000000 1.0
C      1  0.4650030000000  0.6343160000000  0.4764540000000 1.0
C      1  0.5506740000000  0.6291760000000  0.5235500000000 1.0
C      1  0.6169830000000  0.5747670000000  0.4763950000000 1.0
C      1  0.6385740000000  0.4917340000000  0.5235500000000 1.0
C      1  0.6072660000000  0.4118660000000  0.4763900000000 1.0
C      1  0.4299360000000  0.3936110000000  0.3214300000000 1.0
C      1  0.3808200000000  0.4551050000000  0.6786710000000 1.0
C      1  0.3770750000000  0.5336320000000  0.3213700000000 1.0
C      1  0.4203020000000  0.5993970000000  0.6786270000000 1.0
C      1  0.4940970000000  0.6271990000000  0.3213270000000 1.0
C      1  0.5700640000000  0.6063890000000  0.6785700000000 1.0
C      1  0.6191800000000  0.5448950000000  0.3213290000000 1.0
C      1  0.6229250000000  0.4663680000000  0.6786300000000 1.0
C      1  0.5796980000000  0.4006030000000  0.3213730000000 1.0
C      1  0.5059030000000  0.3728010000000  0.6786730000000 1.0
END
