TITL C-1525613-7943-7152 0.0522966258963529 3375 -8670.6137134058 0 0 60 (S10) n - 1
REM
REM in /home/nfs/bkarasulu/CARBON/AIRSS/Generating-Clusters/ReaxFF-fromJPCA2015/Units_Real/Try2-Higher-symm/Only-C60
REM
REM
REM
REM
REM
REM ./C.cell (863b2abdce7293c0672fb3ba77bf323a)
REM AIRSS Version 0.9.1 bugfix July 2018 build 013d7b7c2542+ Fri, 06 Jul 2018 19:26:36 +0100
REM compiler GCC version 9.2.1 20190827 (Red Hat 9.2.1-1)
REM options -cpp -mtune=generic -march=x86-64 -g -O0 -fpre-include=/usr/include/finclude/math-vector-fortran.h
REM seed -502865377 62510023 -1351666481 171897582 1318906277 867032966 895481251 1384533572 -491388618 1728483682 177369575 -1498686499 -1322440226 -741313488 -1251934911 213174243 390968633 980050691 247279134 1238866498 1642774392 -741313106 1481197230 -1085470155 -1397348432 -2002285768 379545300 861821298 -1803797649 1022659811 1331684308 -734354995 1979275803
REM
CELL 1.54180   15.00000   15.00000   15.00000   90.00000   90.00000   90.00000
LATT -1
SFAC C  
C      1  0.3875890000000  0.5188340000000  0.7155250000000 1.0
C      1  0.4202790000000  0.5809570000000  0.2844170000000 1.0
C      1  0.4832360000000  0.6118580000000  0.7153830000000 1.0
C      1  0.5523670000000  0.6003410000000  0.2845600000000 1.0
C      1  0.6018010000000  0.5506110000000  0.7154950000000 1.0
C      1  0.6124390000000  0.4811850000000  0.2844590000000 1.0
C      1  0.5797130000000  0.4190350000000  0.7155760000000 1.0
C      1  0.5167600000000  0.3881940000000  0.2846500000000 1.0
C      1  0.4476340000000  0.3996550000000  0.7154310000000 1.0
C      1  0.3981770000000  0.4493850000000  0.2845150000000 1.0
C      1  0.5932450000000  0.3118280000000  0.5480430000000 1.0
C      1  0.4648170000000  0.2928750000000  0.4519360000000 1.0
C      1  0.3498310000000  0.3532650000000  0.5479480000000 1.0
C      1  0.2921280000000  0.4694980000000  0.4519950000000 1.0
C      1  0.3139260000000  0.5975290000000  0.5480590000000 1.0
C      1  0.4067570000000  0.6882240000000  0.4519770000000 1.0
C      1  0.5351580000000  0.7071080000000  0.5480670000000 1.0
C      1  0.6502800000000  0.6467910000000  0.4520540000000 1.0
C      1  0.7077470000000  0.5304790000000  0.5479850000000 1.0
C      1  0.6860600000000  0.4024480000000  0.4519590000000 1.0
C      1  0.3041410000000  0.4987940000000  0.5476960000000 1.0
C      1  0.3407160000000  0.6141760000000  0.4523600000000 1.0
C      1  0.4382210000000  0.6860070000000  0.5476860000000 1.0
C      1  0.5593210000000  0.6864150000000  0.4524330000000 1.0
C      1  0.6576500000000  0.6161090000000  0.5477790000000 1.0
C      1  0.6957670000000  0.5011980000000  0.4522570000000 1.0
C      1  0.6592890000000  0.3858850000000  0.5476740000000 1.0
C      1  0.5617510000000  0.3139940000000  0.4523430000000 1.0
C      1  0.4407150000000  0.3134940000000  0.5476030000000 1.0
C      1  0.3423700000000  0.3839450000000  0.4522310000000 1.0
C      1  0.5209510000000  0.3589790000000  0.6919430000000 1.0
C      1  0.4339590000000  0.3735880000000  0.3082630000000 1.0
C      1  0.3721050000000  0.4365370000000  0.6918080000000 1.0
C      1  0.3591040000000  0.5237440000000  0.3081880000000 1.0
C      1  0.4000100000000  0.6019200000000  0.6917820000000 1.0
C      1  0.4790480000000  0.6409800000000  0.3080960000000 1.0
C      1  0.5660290000000  0.6264000000000  0.6917600000000 1.0
C      1  0.6279040000000  0.5634830000000  0.3081990000000 1.0
C      1  0.6408680000000  0.4762610000000  0.6917830000000 1.0
C      1  0.5999930000000  0.3981030000000  0.3082160000000 1.0
C      1  0.4770320000000  0.6961530000000  0.3889070000000 1.0
C      1  0.5968560000000  0.6724820000000  0.6111250000000 1.0
C      1  0.6798140000000  0.5825730000000  0.3889330000000 1.0
C      1  0.6940730000000  0.4611160000000  0.6110600000000 1.0
C      1  0.6340410000000  0.3544190000000  0.3889420000000 1.0
C      1  0.5229840000000  0.3038260000000  0.6111240000000 1.0
C      1  0.4031290000000  0.3275250000000  0.3888900000000 1.0
C      1  0.3201820000000  0.4174380000000  0.6110700000000 1.0
C      1  0.3059980000000  0.5388900000000  0.3889810000000 1.0
C      1  0.3659520000000  0.6455840000000  0.6110550000000 1.0
C      1  0.4361940000000  0.5486460000000  0.4335430000000 1.0
C      1  0.4769040000000  0.5767000000000  0.5667820000000 1.0
C      1  0.5264850000000  0.5754350000000  0.4336090000000 1.0
C      1  0.5658720000000  0.5455750000000  0.5668990000000 1.0
C      1  0.5801980000000  0.4980800000000  0.4331990000000 1.0
C      1  0.5638480000000  0.4514290000000  0.5664860000000 1.0
C      1  0.5230660000000  0.4232530000000  0.4331160000000 1.0
C      1  0.4736050000000  0.4245110000000  0.5663360000000 1.0
C      1  0.4340990000000  0.4544790000000  0.4330950000000 1.0
C      1  0.4198110000000  0.5017730000000  0.5667150000000 1.0
END
