TITL C-1525613-7943-66 -0.00969896173886902 3375 -9049.42847856612 0 0 60 (C5) n - 1
REM
REM in /home/nfs/bkarasulu/CARBON/AIRSS/Generating-Clusters/ReaxFF-fromJPCA2015/Units_Real/Try2-Higher-symm/Only-C60
REM
REM
REM
REM
REM
REM ./C.cell (863b2abdce7293c0672fb3ba77bf323a)
REM AIRSS Version 0.9.1 bugfix July 2018 build 013d7b7c2542+ Fri, 06 Jul 2018 19:26:36 +0100
REM compiler GCC version 9.2.1 20190827 (Red Hat 9.2.1-1)
REM options -cpp -mtune=generic -march=x86-64 -g -O0 -fpre-include=/usr/include/finclude/math-vector-fortran.h
REM seed 743636818 1084276335 -1013158917 32075322 978804820 504533626 1704277068 808476482 229185917 766790481 -1796247883 -1833023607 -1361307154 -404868567 670246068 1497434712 162273629 -751508041 -1646835713 1861446155 1200394692 -1795475672 1371892885 -639231051 739330516 1548825733 -893347335 200362380 335995160 1328491544 1997770970 -874373646 2003524449
REM
CELL 1.54180   15.00000   15.00000   15.00000   90.00000   90.00000   90.00000
LATT -1
SFAC C  
C      1  0.4750030000000  0.3237630000000  0.6015300000000 1.0
C      1  0.3246770000000  0.4693270000000  0.6015380000000 1.0
C      1  0.4166580000000  0.6572750000000  0.6015320000000 1.0
C      1  0.6238120000000  0.6278700000000  0.6015320000000 1.0
C      1  0.6598790000000  0.4217530000000  0.6015310000000 1.0
C      1  0.4750030000000  0.3237630000000  0.3984700000000 1.0
C      1  0.3246770000000  0.4693270000000  0.3984620000000 1.0
C      1  0.4166580000000  0.6572750000000  0.3984680000000 1.0
C      1  0.6238120000000  0.6278700000000  0.3984680000000 1.0
C      1  0.6598790000000  0.4217530000000  0.3984690000000 1.0
C      1  0.5440880000000  0.3349900000000  0.6694970000000 1.0
C      1  0.3566930000000  0.4070900000000  0.6694840000000 1.0
C      1  0.3673620000000  0.6075860000000  0.6694910000000 1.0
C      1  0.5613320000000  0.6593990000000  0.6695200000000 1.0
C      1  0.6705540000000  0.4909330000000  0.6695070000000 1.0
C      1  0.5440880000000  0.3349900000000  0.3305030000000 1.0
C      1  0.3566930000000  0.4070900000000  0.3305160000000 1.0
C      1  0.3673620000000  0.6075860000000  0.3305090000000 1.0
C      1  0.5613320000000  0.6593990000000  0.3304800000000 1.0
C      1  0.6705540000000  0.4909330000000  0.3304930000000 1.0
C      1  0.7274630000000  0.5262380000000  0.4541730000000 1.0
C      1  0.5952540000000  0.2917820000000  0.4541730000000 1.0
C      1  0.3314040000000  0.3450800000000  0.4541730000000 1.0
C      1  0.3005600000000  0.6124560000000  0.4541930000000 1.0
C      1  0.5453080000000  0.7244270000000  0.4541890000000 1.0
C      1  0.7274630000000  0.5262380000000  0.5458270000000 1.0
C      1  0.5952540000000  0.2917820000000  0.5458270000000 1.0
C      1  0.3314040000000  0.3450800000000  0.5458270000000 1.0
C      1  0.3005600000000  0.6124560000000  0.5458070000000 1.0
C      1  0.5453080000000  0.7244270000000  0.5458110000000 1.0
C      1  0.4309250000000  0.4543070000000  0.2817920000000 1.0
C      1  0.4351990000000  0.5515710000000  0.2817910000000 1.0
C      1  0.5290140000000  0.5775550000000  0.2817780000000 1.0
C      1  0.5827240000000  0.4963680000000  0.2817770000000 1.0
C      1  0.5221120000000  0.4201880000000  0.2817820000000 1.0
C      1  0.4309250000000  0.4543070000000  0.7182080000000 1.0
C      1  0.4351990000000  0.5515710000000  0.7182090000000 1.0
C      1  0.5290140000000  0.5775550000000  0.7182220000000 1.0
C      1  0.5827240000000  0.4963680000000  0.7182230000000 1.0
C      1  0.5221120000000  0.4201880000000  0.7182180000000 1.0
C      1  0.5621780000000  0.5645030000000  0.4486680000000 1.0
C      1  0.5805630000000  0.4607930000000  0.4486630000000 1.0
C      1  0.4876120000000  0.4112630000000  0.4486650000000 1.0
C      1  0.4117820000000  0.4843760000000  0.4486610000000 1.0
C      1  0.4578760000000  0.5790730000000  0.4486590000000 1.0
C      1  0.5621780000000  0.5645030000000  0.5513320000000 1.0
C      1  0.5805630000000  0.4607930000000  0.5513370000000 1.0
C      1  0.4876120000000  0.4112630000000  0.5513350000000 1.0
C      1  0.4117820000000  0.4843760000000  0.5513390000000 1.0
C      1  0.4578760000000  0.5790730000000  0.5513410000000 1.0
C      1  0.7017710000000  0.5719430000000  0.6244000000000 1.0
C      1  0.6307750000000  0.3303260000000  0.6244030000000 1.0
C      1  0.3790470000000  0.3232010000000  0.6243990000000 1.0
C      1  0.2944450000000  0.5604070000000  0.6244180000000 1.0
C      1  0.4939290000000  0.7141570000000  0.6244290000000 1.0
C      1  0.7017710000000  0.5719430000000  0.3756000000000 1.0
C      1  0.6307750000000  0.3303260000000  0.3755970000000 1.0
C      1  0.3790470000000  0.3232010000000  0.3756010000000 1.0
C      1  0.2944450000000  0.5604070000000  0.3755820000000 1.0
C      1  0.4939290000000  0.7141570000000  0.3755710000000 1.0
END
