TITL C-1525613-7943-5142 -0.0286982221050272 3375 -9772.02062828061 0 0 60 (C1) n - 1
REM
REM in /home/nfs/bkarasulu/CARBON/AIRSS/Generating-Clusters/ReaxFF-fromJPCA2015/Units_Real/Try2-Higher-symm/Only-C60
REM
REM
REM
REM
REM
REM ./C.cell (863b2abdce7293c0672fb3ba77bf323a)
REM AIRSS Version 0.9.1 bugfix July 2018 build 013d7b7c2542+ Fri, 06 Jul 2018 19:26:36 +0100
REM compiler GCC version 9.2.1 20190827 (Red Hat 9.2.1-1)
REM options -cpp -mtune=generic -march=x86-64 -g -O0 -fpre-include=/usr/include/finclude/math-vector-fortran.h
REM seed 1181948340 -1980324491 413446762 -417834574 -1097082194 -588911674 -1789777311 245718278 -1574974498 2039615268 2142607009 341763371 -1168826110 -1651722440 -1609331037 -387795117 1757896251 -606575223 940611638 1733605381 844052907 -270185688 1918194955 -28448653 -1160076708 -1423788597 -1632385551 -2138623746 1649606911 -393478821 -1088999725 -1653037741 -878262949
REM
CELL 1.54180   15.00000   15.00000   15.00000   90.00000   90.00000   90.00000
LATT -1
SFAC C  
C      1  0.6292770000000  0.3474710000000  0.6390940000000 1.0
C      1  0.3892720000000  0.4731840000000  0.6834890000000 1.0
C      1  0.6308950000000  0.5782720000000  0.6884630000000 1.0
C      1  0.3643180000000  0.6812990000000  0.6047020000000 1.0
C      1  0.6216210000000  0.6999180000000  0.4794000000000 1.0
C      1  0.3736220000000  0.6523200000000  0.3612920000000 1.0
C      1  0.6243360000000  0.5421640000000  0.2984070000000 1.0
C      1  0.3765810000000  0.4158060000000  0.3127360000000 1.0
C      1  0.6266700000000  0.3216320000000  0.3971900000000 1.0
C      1  0.3786170000000  0.2980830000000  0.5235200000000 1.0
C      1  0.7293900000000  0.4842530000000  0.4174180000000 1.0
C      1  0.2719570000000  0.4396920000000  0.4422150000000 1.0
C      1  0.7307650000000  0.4172100000000  0.4881470000000 1.0
C      1  0.2714490000000  0.4281720000000  0.5387400000000 1.0
C      1  0.7333250000000  0.4625670000000  0.5739730000000 1.0
C      1  0.2667740000000  0.5163890000000  0.5795480000000 1.0
C      1  0.7320940000000  0.5582100000000  0.5553320000000 1.0
C      1  0.2667100000000  0.5828250000000  0.5086040000000 1.0
C      1  0.7290070000000  0.5719850000000  0.4589880000000 1.0
C      1  0.2704690000000  0.5352010000000  0.4238740000000 1.0
C      1  0.5431240000000  0.4095980000000  0.2804980000000 1.0
C      1  0.4603930000000  0.3000720000000  0.3771110000000 1.0
C      1  0.5440040000000  0.2652820000000  0.5187970000000 1.0
C      1  0.4638640000000  0.3269710000000  0.6524930000000 1.0
C      1  0.5480620000000  0.4510130000000  0.7302630000000 1.0
C      1  0.4223110000000  0.6092710000000  0.7527330000000 1.0
C      1  0.5330140000000  0.6739680000000  0.6212730000000 1.0
C      1  0.4553850000000  0.7303570000000  0.4844680000000 1.0
C      1  0.5396940000000  0.6787440000000  0.3479530000000 1.0
C      1  0.4581840000000  0.5555750000000  0.2698650000000 1.0
C      1  0.6860310000000  0.4250450000000  0.6506110000000 1.0
C      1  0.3187010000000  0.5334500000000  0.6600880000000 1.0
C      1  0.6809260000000  0.6172490000000  0.6131330000000 1.0
C      1  0.3175540000000  0.6649260000000  0.5213130000000 1.0
C      1  0.6754770000000  0.6438140000000  0.4208530000000 1.0
C      1  0.3225190000000  0.5706020000000  0.3497650000000 1.0
C      1  0.6771470000000  0.4698950000000  0.3367350000000 1.0
C      1  0.3247530000000  0.3798120000000  0.3866810000000 1.0
C      1  0.6783310000000  0.3360130000000  0.4782920000000 1.0
C      1  0.3271780000000  0.3593180000000  0.5784630000000 1.0
C      1  0.3720910000000  0.6975310000000  0.4472940000000 1.0
C      1  0.6236200000000  0.6298720000000  0.3399550000000 1.0
C      1  0.3752040000000  0.5109820000000  0.2937130000000 1.0
C      1  0.6264180000000  0.3878110000000  0.3260000000000 1.0
C      1  0.3773440000000  0.3086480000000  0.4269630000000 1.0
C      1  0.6272660000000  0.3015000000000  0.5535280000000 1.0
C      1  0.3833290000000  0.3812680000000  0.6551110000000 1.0
C      1  0.6370930000000  0.4833260000000  0.7120710000000 1.0
C      1  0.3523640000000  0.6237570000000  0.6857680000000 1.0
C      1  0.6197210000000  0.6811070000000  0.5744890000000 1.0
C      1  0.5382730000000  0.6019120000000  0.6836080000000 1.0
C      1  0.4520820000000  0.7116970000000  0.5799600000000 1.0
C      1  0.5384190000000  0.7226290000000  0.4344430000000 1.0
C      1  0.4569390000000  0.6431840000000  0.3116710000000 1.0
C      1  0.5413370000000  0.5052370000000  0.2640280000000 1.0
C      1  0.4600480000000  0.3662250000000  0.3061200000000 1.0
C      1  0.5435020000000  0.2782530000000  0.4225020000000 1.0
C      1  0.4619100000000  0.2769890000000  0.5692790000000 1.0
C      1  0.5462870000000  0.3636300000000  0.6886610000000 1.0
C      1  0.4729500000000  0.5168140000000  0.7183160000000 1.0
END
