TITL C-1525613-7943-5679 0.118696895005429 3375 -8240.13316960633 0 0 60 (C1) n - 1
REM
REM in /home/nfs/bkarasulu/CARBON/AIRSS/Generating-Clusters/ReaxFF-fromJPCA2015/Units_Real/Try2-Higher-symm/Only-C60
REM
REM
REM
REM
REM
REM ./C.cell (863b2abdce7293c0672fb3ba77bf323a)
REM AIRSS Version 0.9.1 bugfix July 2018 build 013d7b7c2542+ Fri, 06 Jul 2018 19:26:36 +0100
REM compiler GCC version 9.2.1 20190827 (Red Hat 9.2.1-1)
REM options -cpp -mtune=generic -march=x86-64 -g -O0 -fpre-include=/usr/include/finclude/math-vector-fortran.h
REM seed 1978991121 568629687 1615290241 -1205472684 717911232 717458017 -563062757 493840821 -1094653771 889821440 1791863800 -2138730289 -66428087 1918935219 2130253556 -99318355 -293087875 -1236412477 -2088402992 -1130418775 1850354483 72213467 -1328590148 -260373368 1770858969 -1423446246 656883332 715069444 2106145889 1362773100 -2050387007 403271579 2042709611
REM
CELL 1.54180   15.00000   15.00000   15.00000   90.00000   90.00000   90.00000
LATT -1
SFAC C  
C      1  0.5477070000000  0.5781120000000  0.6978470000000 1.0
C      1  0.6867490000000  0.5469450000000  0.5294080000000 1.0
C      1  0.6061590000000  0.5994160000000  0.3479890000000 1.0
C      1  0.3781160000000  0.5861060000000  0.3315160000000 1.0
C      1  0.3270550000000  0.5729450000000  0.5696240000000 1.0
C      1  0.5490570000000  0.4223950000000  0.3024550000000 1.0
C      1  0.6863320000000  0.4527940000000  0.4686670000000 1.0
C      1  0.6055760000000  0.4034830000000  0.6526990000000 1.0
C      1  0.3751070000000  0.4159670000000  0.6664260000000 1.0
C      1  0.3129840000000  0.4229350000000  0.4351100000000 1.0
C      1  0.3463580000000  0.2952660000000  0.5077180000000 1.0
C      1  0.4532160000000  0.3092400000000  0.6205760000000 1.0
C      1  0.5820710000000  0.3029340000000  0.5523960000000 1.0
C      1  0.6229570000000  0.3255710000000  0.4083630000000 1.0
C      1  0.4659850000000  0.3248570000000  0.3914230000000 1.0
C      1  0.3416630000000  0.7028070000000  0.4911420000000 1.0
C      1  0.4537300000000  0.6920280000000  0.3877750000000 1.0
C      1  0.5775520000000  0.6994390000000  0.4508360000000 1.0
C      1  0.6240210000000  0.6733130000000  0.5929720000000 1.0
C      1  0.4654650000000  0.6762190000000  0.6063980000000 1.0
C      1  0.3711110000000  0.7087720000000  0.5889990000000 1.0
C      1  0.5425320000000  0.7253890000000  0.6296570000000 1.0
C      1  0.6616410000000  0.7056510000000  0.5026050000000 1.0
C      1  0.5443780000000  0.7260040000000  0.3604690000000 1.0
C      1  0.3653810000000  0.7286040000000  0.4005950000000 1.0
C      1  0.3718570000000  0.2917900000000  0.4076840000000 1.0
C      1  0.5422960000000  0.2741380000000  0.3693760000000 1.0
C      1  0.6638790000000  0.2939320000000  0.4975300000000 1.0
C      1  0.5440340000000  0.2756600000000  0.6375650000000 1.0
C      1  0.3663160000000  0.2706280000000  0.5997810000000 1.0
C      1  0.3210800000000  0.3348760000000  0.6672520000000 1.0
C      1  0.5881880000000  0.3295650000000  0.7144090000000 1.0
C      1  0.7279800000000  0.3660580000000  0.5077380000000 1.0
C      1  0.5924420000000  0.3341760000000  0.3130280000000 1.0
C      1  0.3129010000000  0.3567960000000  0.3713870000000 1.0
C      1  0.3227170000000  0.6656160000000  0.3296860000000 1.0
C      1  0.5915080000000  0.6706660000000  0.2986570000000 1.0
C      1  0.7259200000000  0.6338970000000  0.4890710000000 1.0
C      1  0.5913930000000  0.6661110000000  0.6875200000000 1.0
C      1  0.3094760000000  0.6498540000000  0.6376570000000 1.0
C      1  0.3682870000000  0.3884030000000  0.5119630000000 1.0
C      1  0.4385790000000  0.4039680000000  0.5853730000000 1.0
C      1  0.5519340000000  0.3972610000000  0.5584730000000 1.0
C      1  0.5817460000000  0.4186000000000  0.4635190000000 1.0
C      1  0.5096360000000  0.4162410000000  0.3936920000000 1.0
C      1  0.3631350000000  0.6090820000000  0.4854240000000 1.0
C      1  0.4374100000000  0.5956370000000  0.4159270000000 1.0
C      1  0.5503860000000  0.6043380000000  0.4438270000000 1.0
C      1  0.5808320000000  0.5814060000000  0.5370050000000 1.0
C      1  0.5087330000000  0.5845090000000  0.6065890000000 1.0
C      1  0.7289780000000  0.4718870000000  0.3754040000000 1.0
C      1  0.4719450000000  0.4622500000000  0.2694560000000 1.0
C      1  0.2169760000000  0.4698760000000  0.4605950000000 1.0
C      1  0.3949300000000  0.4855040000000  0.7451370000000 1.0
C      1  0.6876120000000  0.4591660000000  0.6721450000000 1.0
C      1  0.7323530000000  0.5279280000000  0.6206370000000 1.0
C      1  0.4706200000000  0.5383680000000  0.7308310000000 1.0
C      1  0.2621740000000  0.5209900000000  0.5244370000000 1.0
C      1  0.3950770000000  0.5155480000000  0.2551290000000 1.0
C      1  0.6837700000000  0.5380840000000  0.3224310000000 1.0
END
