TITL C-1525613-7943-978 -0.138901780629737 3375 -8527.09420677076 0 0 60 (Cs) n - 1
REM
REM in /home/nfs/bkarasulu/CARBON/AIRSS/Generating-Clusters/ReaxFF-fromJPCA2015/Units_Real/Try2-Higher-symm/Only-C60
REM
REM
REM
REM
REM
REM ./C.cell (863b2abdce7293c0672fb3ba77bf323a)
REM AIRSS Version 0.9.1 bugfix July 2018 build 013d7b7c2542+ Fri, 06 Jul 2018 19:26:36 +0100
REM compiler GCC version 9.2.1 20190827 (Red Hat 9.2.1-1)
REM options -cpp -mtune=generic -march=x86-64 -g -O0 -fpre-include=/usr/include/finclude/math-vector-fortran.h
REM seed 2008530432 688399661 1283236582 -1533714521 10816747 1440776228 -932122003 -835653063 1834979328 1090818201 98314949 603164155 1366649502 655854942 1528102859 -1701509091 1826853712 -1256260561 -1588552020 1061542021 -2073285768 347072398 -1362907832 -1046433992 -2024336343 -717196534 -1959690704 -463125505 -388898047 1560040754 -964472348 -102860386 1025846025
REM
CELL 1.54180   15.00000   15.00000   15.00000   90.00000   90.00000   90.00000
LATT -1
SFAC C  
C      1  0.4799690000000  0.3641900000000  0.3494040000000 1.0
C      1  0.6224300000000  0.4381340000000  0.3405980000000 1.0
C      1  0.5948310000000  0.5993140000000  0.3486810000000 1.0
C      1  0.4373170000000  0.6221750000000  0.3386240000000 1.0
C      1  0.3662200000000  0.4743700000000  0.3464600000000 1.0
C      1  0.4799690000000  0.3641900000000  0.6505960000000 1.0
C      1  0.6224300000000  0.4381340000000  0.6594020000000 1.0
C      1  0.5948310000000  0.5993140000000  0.6513190000000 1.0
C      1  0.4373170000000  0.6221750000000  0.6613760000000 1.0
C      1  0.3662200000000  0.4743700000000  0.6535400000000 1.0
C      1  0.5739710000000  0.3544660000000  0.6777020000000 1.0
C      1  0.6583790000000  0.5282950000000  0.6764610000000 1.0
C      1  0.5261570000000  0.6626430000000  0.6764310000000 1.0
C      1  0.3610660000000  0.5663250000000  0.6835770000000 1.0
C      1  0.3867010000000  0.3810760000000  0.6742480000000 1.0
C      1  0.5739710000000  0.3544660000000  0.3222980000000 1.0
C      1  0.6583790000000  0.5282950000000  0.3235390000000 1.0
C      1  0.5261570000000  0.6626430000000  0.3235690000000 1.0
C      1  0.3610660000000  0.5663250000000  0.3164230000000 1.0
C      1  0.3867010000000  0.3810760000000  0.3257520000000 1.0
C      1  0.2502920000000  0.5708300000000  0.5380700000000 1.0
C      1  0.3634820000000  0.2795620000000  0.5392160000000 1.0
C      1  0.6628330000000  0.3026670000000  0.5389510000000 1.0
C      1  0.7405600000000  0.5945990000000  0.5416980000000 1.0
C      1  0.4814860000000  0.7564790000000  0.5413770000000 1.0
C      1  0.2502920000000  0.5708300000000  0.4619300000000 1.0
C      1  0.3634820000000  0.2795620000000  0.4607840000000 1.0
C      1  0.6628330000000  0.3026670000000  0.4610490000000 1.0
C      1  0.7405600000000  0.5945990000000  0.4583020000000 1.0
C      1  0.4814860000000  0.7564790000000  0.4586230000000 1.0
C      1  0.7616440000000  0.4603500000000  0.4500380000000 1.0
C      1  0.6122680000000  0.7343050000000  0.4607420000000 1.0
C      1  0.3056790000000  0.6845480000000  0.4204490000000 1.0
C      1  0.2753710000000  0.3785530000000  0.4585900000000 1.0
C      1  0.5419670000000  0.2395690000000  0.4503010000000 1.0
C      1  0.7616440000000  0.4603500000000  0.5499620000000 1.0
C      1  0.6122680000000  0.7343050000000  0.5392580000000 1.0
C      1  0.3056790000000  0.6845480000000  0.5795510000000 1.0
C      1  0.2753710000000  0.3785530000000  0.5414100000000 1.0
C      1  0.5419670000000  0.2395690000000  0.5496990000000 1.0
C      1  0.4582260000000  0.5729570000000  0.4207760000000 1.0
C      1  0.4159700000000  0.4844000000000  0.4325230000000 1.0
C      1  0.4901540000000  0.4163890000000  0.4338470000000 1.0
C      1  0.5758870000000  0.4663640000000  0.4214830000000 1.0
C      1  0.5578080000000  0.5639150000000  0.4349850000000 1.0
C      1  0.4582260000000  0.5729570000000  0.5792240000000 1.0
C      1  0.4159700000000  0.4844000000000  0.5674770000000 1.0
C      1  0.4901540000000  0.4163890000000  0.5661530000000 1.0
C      1  0.5758870000000  0.4663640000000  0.5785170000000 1.0
C      1  0.5578080000000  0.5639150000000  0.5650150000000 1.0
C      1  0.5445380000000  0.7342570000000  0.6085150000000 1.0
C      1  0.2856970000000  0.6103960000000  0.6260720000000 1.0
C      1  0.3271080000000  0.3345900000000  0.6086020000000 1.0
C      1  0.6072370000000  0.2877940000000  0.6131380000000 1.0
C      1  0.7347540000000  0.5364880000000  0.6133360000000 1.0
C      1  0.5445380000000  0.7342570000000  0.3914850000000 1.0
C      1  0.2856970000000  0.6103960000000  0.3739280000000 1.0
C      1  0.3271080000000  0.3345900000000  0.3913980000000 1.0
C      1  0.6072370000000  0.2877940000000  0.3868620000000 1.0
C      1  0.7347540000000  0.5364880000000  0.3866640000000 1.0
END
