TITL C-1525613-7943-1352 0.100524759456703 3375 -8295.8821712581 0 0 60 (C1) n - 1
REM
REM in /home/nfs/bkarasulu/CARBON/AIRSS/Generating-Clusters/ReaxFF-fromJPCA2015/Units_Real/Try2-Higher-symm/Only-C60
REM
REM
REM
REM
REM
REM ./C.cell (863b2abdce7293c0672fb3ba77bf323a)
REM AIRSS Version 0.9.1 bugfix July 2018 build 013d7b7c2542+ Fri, 06 Jul 2018 19:26:36 +0100
REM compiler GCC version 9.2.1 20190827 (Red Hat 9.2.1-1)
REM options -cpp -mtune=generic -march=x86-64 -g -O0 -fpre-include=/usr/include/finclude/math-vector-fortran.h
REM seed 33628196 -2070071671 -1034707711 -1492563775 868075539 -1957988889 -1602507169 -673742983 1395443974 1381649444 1351498137 631319408 -1153419146 -1729621854 -733176091 -1762987968 -1060256979 1505534004 1985692216 739810875 983233662 572176229 -1106647594 -689610031 432563028 -1955397298 -382400869 -906753890 -1486926239 1705011445 -1696905201 -1323268055 -1237920819
REM
CELL 1.54180   15.00000   15.00000   15.00000   90.00000   90.00000   90.00000
LATT -1
SFAC C  
C      1  0.6265420000000  0.5264430000000  0.7242320000000 1.0
C      1  0.6325340000000  0.6537630000000  0.6636640000000 1.0
C      1  0.6347500000000  0.7228570000000  0.5443600000000 1.0
C      1  0.6269820000000  0.7039020000000  0.4045680000000 1.0
C      1  0.6352460000000  0.6120650000000  0.2977960000000 1.0
C      1  0.6278280000000  0.4740630000000  0.2794940000000 1.0
C      1  0.6317280000000  0.3457120000000  0.3374690000000 1.0
C      1  0.6369850000000  0.2745280000000  0.4558930000000 1.0
C      1  0.6270900000000  0.2963770000000  0.5952090000000 1.0
C      1  0.6335730000000  0.3896830000000  0.7006340000000 1.0
C      1  0.5353070000000  0.5116410000000  0.6808700000000 1.0
C      1  0.5358300000000  0.6374150000000  0.6308380000000 1.0
C      1  0.5368930000000  0.6872890000000  0.5448270000000 1.0
C      1  0.5355490000000  0.6598300000000  0.4183940000000 1.0
C      1  0.5374090000000  0.5926760000000  0.3305770000000 1.0
C      1  0.5359020000000  0.4898720000000  0.3225390000000 1.0
C      1  0.5367870000000  0.3617000000000  0.3726840000000 1.0
C      1  0.5377850000000  0.3095110000000  0.4587650000000 1.0
C      1  0.5356920000000  0.3364050000000  0.5719310000000 1.0
C      1  0.5359400000000  0.4121620000000  0.6694170000000 1.0
C      1  0.3244300000000  0.6511480000000  0.5261330000000 1.0
C      1  0.3245920000000  0.6405780000000  0.4309460000000 1.0
C      1  0.3260440000000  0.5739630000000  0.3623140000000 1.0
C      1  0.3262190000000  0.4795760000000  0.3449180000000 1.0
C      1  0.3222670000000  0.3944940000000  0.3895480000000 1.0
C      1  0.3265580000000  0.3489180000000  0.4750730000000 1.0
C      1  0.3242300000000  0.3586180000000  0.5700410000000 1.0
C      1  0.3254280000000  0.4238990000000  0.6393220000000 1.0
C      1  0.3255490000000  0.5211000000000  0.6575060000000 1.0
C      1  0.3241500000000  0.6083040000000  0.6115950000000 1.0
C      1  0.4543730000000  0.2993650000000  0.5929370000000 1.0
C      1  0.4656600000000  0.3723110000000  0.7293240000000 1.0
C      1  0.4508150000000  0.5273250000000  0.7215180000000 1.0
C      1  0.4649510000000  0.6766770000000  0.6862410000000 1.0
C      1  0.4653940000000  0.7567430000000  0.5493960000000 1.0
C      1  0.4536940000000  0.6996860000000  0.4051910000000 1.0
C      1  0.4639610000000  0.6269700000000  0.2672020000000 1.0
C      1  0.4544710000000  0.4717120000000  0.2812350000000 1.0
C      1  0.4625250000000  0.3306070000000  0.3164660000000 1.0
C      1  0.4648150000000  0.2384900000000  0.4486810000000 1.0
C      1  0.6788120000000  0.6577640000000  0.3529550000000 1.0
C      1  0.6805810000000  0.5417300000000  0.2898680000000 1.0
C      1  0.6774680000000  0.4111400000000  0.3083830000000 1.0
C      1  0.6839780000000  0.3149900000000  0.3987500000000 1.0
C      1  0.6793860000000  0.2861940000000  0.5273640000000 1.0
C      1  0.6777680000000  0.3439170000000  0.6462730000000 1.0
C      1  0.6798080000000  0.4589430000000  0.7113920000000 1.0
C      1  0.6773810000000  0.5891470000000  0.6941650000000 1.0
C      1  0.6835450000000  0.6832130000000  0.6015660000000 1.0
C      1  0.6782220000000  0.7127100000000  0.4730400000000 1.0
C      1  0.3700840000000  0.2587400000000  0.4546940000000 1.0
C      1  0.3663980000000  0.2678890000000  0.6104470000000 1.0
C      1  0.3682630000000  0.3778890000000  0.7187650000000 1.0
C      1  0.3768470000000  0.5347910000000  0.7392520000000 1.0
C      1  0.3658090000000  0.6778900000000  0.6736950000000 1.0
C      1  0.3676770000000  0.7420080000000  0.5481210000000 1.0
C      1  0.3646880000000  0.7314290000000  0.3912300000000 1.0
C      1  0.3689270000000  0.6185430000000  0.2800990000000 1.0
C      1  0.3653030000000  0.4626330000000  0.2470330000000 1.0
C      1  0.3625770000000  0.3300630000000  0.3231600000000 1.0
END
