TITL C-1525613-7943-6003 0.28261696103008 3375 -9103.78113139296 0 0 60 (C1) n - 1
REM
REM in /home/nfs/bkarasulu/CARBON/AIRSS/Generating-Clusters/ReaxFF-fromJPCA2015/Units_Real/Try2-Higher-symm/Only-C60
REM
REM
REM
REM
REM
REM ./C.cell (863b2abdce7293c0672fb3ba77bf323a)
REM AIRSS Version 0.9.1 bugfix July 2018 build 013d7b7c2542+ Fri, 06 Jul 2018 19:26:36 +0100
REM compiler GCC version 9.2.1 20190827 (Red Hat 9.2.1-1)
REM options -cpp -mtune=generic -march=x86-64 -g -O0 -fpre-include=/usr/include/finclude/math-vector-fortran.h
REM seed -2115202099 893917347 -1026975207 1386135486 -1036082188 2139174490 737045375 -1869010210 -2107997415 890395905 -77559308 1520452749 -568856098 -1935011250 740895609 1843871062 231212191 -696131427 2038203085 -927588927 536507999 -1785936303 -1337792559 -1973094818 -1975572184 1064356099 325096969 -1983708506 1536821126 -1712887979 622056487 1632299857 52165282
REM
CELL 1.54180   15.00000   15.00000   15.00000   90.00000   90.00000   90.00000
LATT -1
SFAC C  
C      1  0.6184170000000  0.5297800000000  0.4108170000000 1.0
C      1  0.6130580000000  0.5295500000000  0.5851180000000 1.0
C      1  0.4574810000000  0.5187490000000  0.6290230000000 1.0
C      1  0.3576120000000  0.5181690000000  0.5030550000000 1.0
C      1  0.4522300000000  0.5135380000000  0.3582890000000 1.0
C      1  0.3811660000000  0.4778040000000  0.4161480000000 1.0
C      1  0.3882120000000  0.4789580000000  0.5822120000000 1.0
C      1  0.5426730000000  0.4827610000000  0.6264250000000 1.0
C      1  0.6514120000000  0.4998930000000  0.4997130000000 1.0
C      1  0.5454920000000  0.4841000000000  0.3614070000000 1.0
C      1  0.6609230000000  0.6022760000000  0.3610440000000 1.0
C      1  0.6573740000000  0.5936790000000  0.6421280000000 1.0
C      1  0.4366350000000  0.5961670000000  0.6850980000000 1.0
C      1  0.2938140000000  0.5900260000000  0.5117840000000 1.0
C      1  0.4190210000000  0.6001090000000  0.3119470000000 1.0
C      1  0.3180860000000  0.4070040000000  0.3921200000000 1.0
C      1  0.3463240000000  0.4058600000000  0.6165300000000 1.0
C      1  0.5601030000000  0.4092670000000  0.6771780000000 1.0
C      1  0.7092130000000  0.4224940000000  0.5105240000000 1.0
C      1  0.5824220000000  0.4002440000000  0.3189690000000 1.0
C      1  0.6249320000000  0.3419980000000  0.6474770000000 1.0
C      1  0.3988190000000  0.3367190000000  0.6625420000000 1.0
C      1  0.2958880000000  0.3395200000000  0.4601150000000 1.0
C      1  0.4370630000000  0.3269070000000  0.3109020000000 1.0
C      1  0.7151610000000  0.3567690000000  0.4331400000000 1.0
C      1  0.3737630000000  0.6650380000000  0.6523030000000 1.0
C      1  0.6011040000000  0.6635270000000  0.6821050000000 1.0
C      1  0.7019890000000  0.6734820000000  0.5043310000000 1.0
C      1  0.5346060000000  0.6576050000000  0.2701930000000 1.0
C      1  0.2916290000000  0.6543780000000  0.4333040000000 1.0
C      1  0.5050380000000  0.6650630000000  0.7021680000000 1.0
C      1  0.3154270000000  0.6638620000000  0.5729260000000 1.0
C      1  0.3493930000000  0.6284730000000  0.3652130000000 1.0
C      1  0.6095450000000  0.6290620000000  0.2882360000000 1.0
C      1  0.7132590000000  0.6648070000000  0.5958890000000 1.0
C      1  0.4927120000000  0.3385390000000  0.6875840000000 1.0
C      1  0.6854630000000  0.3480130000000  0.5707080000000 1.0
C      1  0.6550310000000  0.3792770000000  0.3672040000000 1.0
C      1  0.3459080000000  0.3331420000000  0.3282860000000 1.0
C      1  0.3093180000000  0.3375040000000  0.5572250000000 1.0
C      1  0.4279140000000  0.2437160000000  0.4462580000000 1.0
C      1  0.5164350000000  0.2621980000000  0.4107290000000 1.0
C      1  0.5792990000000  0.2559740000000  0.4848310000000 1.0
C      1  0.5274180000000  0.2417330000000  0.5648770000000 1.0
C      1  0.4355680000000  0.2363290000000  0.5418540000000 1.0
C      1  0.5798280000000  0.7277880000000  0.4536410000000 1.0
C      1  0.4907820000000  0.7247520000000  0.4150850000000 1.0
C      1  0.4285720000000  0.7474190000000  0.4865810000000 1.0
C      1  0.4796550000000  0.7623870000000  0.5686880000000 1.0
C      1  0.5735520000000  0.7533080000000  0.5477560000000 1.0
C      1  0.6388650000000  0.7296670000000  0.6187670000000 1.0
C      1  0.4467940000000  0.7312970000000  0.6566830000000 1.0
C      1  0.3340960000000  0.7219020000000  0.4961300000000 1.0
C      1  0.4665270000000  0.6910880000000  0.3241370000000 1.0
C      1  0.6659010000000  0.6835700000000  0.4218030000000 1.0
C      1  0.3687590000000  0.2726920000000  0.5968960000000 1.0
C      1  0.5545140000000  0.2762410000000  0.6477030000000 1.0
C      1  0.6707670000000  0.2891460000000  0.4944630000000 1.0
C      1  0.5252480000000  0.3135990000000  0.3240520000000 1.0
C      1  0.3417920000000  0.2710830000000  0.4076880000000 1.0
END
