TITL C-1525613-7943-4030 0.00582382266185473 3375 -8816.67902398476 0 0 60 (C2v) n - 1
REM
REM in /home/nfs/bkarasulu/CARBON/AIRSS/Generating-Clusters/ReaxFF-fromJPCA2015/Units_Real/Try2-Higher-symm/Only-C60
REM
REM
REM
REM
REM
REM ./C.cell (863b2abdce7293c0672fb3ba77bf323a)
REM AIRSS Version 0.9.1 bugfix July 2018 build 013d7b7c2542+ Fri, 06 Jul 2018 19:26:36 +0100
REM compiler GCC version 9.2.1 20190827 (Red Hat 9.2.1-1)
REM options -cpp -mtune=generic -march=x86-64 -g -O0 -fpre-include=/usr/include/finclude/math-vector-fortran.h
REM seed -74078273 1522002093 317232631 1186051347 -2123149410 -523447936 1824217577 1758633500 1194095009 -187757373 -2051232580 -103227279 447205720 -1978389124 -548247477 -2031691291 -493544869 -1775940320 -221459151 1322266967 -1016119106 248652829 437536152 856132375 1542185635 -2031301836 -391909303 -552479724 -1715482205 1932349659 -1516537296 338491310 216663034
REM
CELL 1.54180   15.00000   15.00000   15.00000   90.00000   90.00000   90.00000
LATT -1
SFAC C  
C      1  0.6025080000000  0.6131460000000  0.3048820000000 1.0
C      1  0.6097030000000  0.7134890000000  0.4075060000000 1.0
C      1  0.6118280000000  0.7320020000000  0.5503680000000 1.0
C      1  0.6118460000000  0.6589530000000  0.6763580000000 1.0
C      1  0.6097360000000  0.5257660000000  0.7312580000000 1.0
C      1  0.6025080000000  0.3868540000000  0.6951180000000 1.0
C      1  0.6097030000000  0.2865110000000  0.5924940000000 1.0
C      1  0.6118280000000  0.2679980000000  0.4496320000000 1.0
C      1  0.6118460000000  0.3410470000000  0.3236420000000 1.0
C      1  0.6097360000000  0.4742340000000  0.2687420000000 1.0
C      1  0.5428210000000  0.5448500000000  0.2717210000000 1.0
C      1  0.5427950000000  0.6758210000000  0.3476970000000 1.0
C      1  0.5524080000000  0.7463620000000  0.4766650000000 1.0
C      1  0.5515140000000  0.7142440000000  0.6242520000000 1.0
C      1  0.5524420000000  0.6021180000000  0.7254480000000 1.0
C      1  0.5428210000000  0.4551500000000  0.7282790000000 1.0
C      1  0.5427950000000  0.3241790000000  0.6523030000000 1.0
C      1  0.5524080000000  0.2536380000000  0.5233350000000 1.0
C      1  0.5515140000000  0.2857560000000  0.3757480000000 1.0
C      1  0.5524420000000  0.3978820000000  0.2745520000000 1.0
C      1  0.3225800000000  0.3076440000000  0.5745390000000 1.0
C      1  0.3299150000000  0.2775680000000  0.4470240000000 1.0
C      1  0.3299350000000  0.3435760000000  0.3331440000000 1.0
C      1  0.3226140000000  0.4691910000000  0.2959250000000 1.0
C      1  0.3233080000000  0.5942360000000  0.3374980000000 1.0
C      1  0.3225800000000  0.6923560000000  0.4254610000000 1.0
C      1  0.3299150000000  0.7224320000000  0.5529760000000 1.0
C      1  0.3299350000000  0.6564240000000  0.6668560000000 1.0
C      1  0.3226140000000  0.5308100000000  0.7040750000000 1.0
C      1  0.3233080000000  0.4057640000000  0.6625020000000 1.0
C      1  0.3730880000000  0.7311000000000  0.4812590000000 1.0
C      1  0.3826320000000  0.7087090000000  0.6210810000000 1.0
C      1  0.3731220000000  0.5984860000000  0.7099890000000 1.0
C      1  0.3740330000000  0.4607430000000  0.7045200000000 1.0
C      1  0.3740060000000  0.3419990000000  0.6356000000000 1.0
C      1  0.3730880000000  0.2689000000000  0.5187410000000 1.0
C      1  0.3826330000000  0.2912910000000  0.3789190000000 1.0
C      1  0.3731220000000  0.4015150000000  0.2900110000000 1.0
C      1  0.3740330000000  0.5392570000000  0.2954800000000 1.0
C      1  0.3740060000000  0.6580010000000  0.3644000000000 1.0
C      1  0.4673190000000  0.4793120000000  0.6716340000000 1.0
C      1  0.4673010000000  0.3613360000000  0.6031770000000 1.0
C      1  0.4687700000000  0.3106950000000  0.5165950000000 1.0
C      1  0.4705150000000  0.3329290000000  0.4030820000000 1.0
C      1  0.4687870000000  0.4203850000000  0.3273960000000 1.0
C      1  0.4673190000000  0.5206880000000  0.3283660000000 1.0
C      1  0.4673010000000  0.6386640000000  0.3968220000000 1.0
C      1  0.4687700000000  0.6893050000000  0.4834050000000 1.0
C      1  0.4705150000000  0.6670710000000  0.5969180000000 1.0
C      1  0.4687870000000  0.5796150000000  0.6726040000000 1.0
C      1  0.6696350000000  0.5768590000000  0.3674500000000 1.0
C      1  0.6735880000000  0.6439880000000  0.4379300000000 1.0
C      1  0.6738160000000  0.6560040000000  0.5343190000000 1.0
C      1  0.6738270000000  0.6072770000000  0.6183600000000 1.0
C      1  0.6736070000000  0.5176520000000  0.6558130000000 1.0
C      1  0.6696350000000  0.4231410000000  0.6325500000000 1.0
C      1  0.6735880000000  0.3560120000000  0.5620700000000 1.0
C      1  0.6738160000000  0.3439960000000  0.4656810000000 1.0
C      1  0.6738270000000  0.3927240000000  0.3816400000000 1.0
C      1  0.6736070000000  0.4823480000000  0.3441870000000 1.0
END
