TITL C-1525613-7943-3605 -0.00580977472948859 3375 -9052.99119872036 0 0 60 (D5h) n - 1
REM
REM in /home/nfs/bkarasulu/CARBON/AIRSS/Generating-Clusters/ReaxFF-fromJPCA2015/Units_Real/Try2-Higher-symm/Only-C60
REM
REM
REM
REM
REM
REM ./C.cell (863b2abdce7293c0672fb3ba77bf323a)
REM AIRSS Version 0.9.1 bugfix July 2018 build 013d7b7c2542+ Fri, 06 Jul 2018 19:26:36 +0100
REM compiler GCC version 9.2.1 20190827 (Red Hat 9.2.1-1)
REM options -cpp -mtune=generic -march=x86-64 -g -O0 -fpre-include=/usr/include/finclude/math-vector-fortran.h
REM seed 400530453 -1602553885 -134564373 -47321457 556158032 166090359 1599676584 -1856862974 -890327752 605084116 -172907689 -1443879751 253619888 227496725 1236668270 1167760630 1006622906 -1547825609 873011605 -1245758555 1905204354 1421560508 1976895336 -1336641453 -451331438 319437765 1044339854 -187829360 -1029225552 -1022374262 -912120552 -1467143302 599166143
REM
CELL 1.54180   15.00000   15.00000   15.00000   90.00000   90.00000   90.00000
LATT -1
SFAC C  
C      1  0.7501490000000  0.4638880000000  0.4608690000000 1.0
C      1  0.5366280000000  0.4638020000000  0.2493860000000 1.0
C      1  0.2748140000000  0.4639380000000  0.3864830000000 1.0
C      1  0.3212410000000  0.4638230000000  0.6807950000000 1.0
C      1  0.6158750000000  0.4637900000000  0.7241630000000 1.0
C      1  0.7503080000000  0.5362630000000  0.4608460000000 1.0
C      1  0.5366210000000  0.5361770000000  0.2494210000000 1.0
C      1  0.2745630000000  0.5363200000000  0.3863530000000 1.0
C      1  0.3211950000000  0.5362390000000  0.6808350000000 1.0
C      1  0.6158510000000  0.5361730000000  0.7241180000000 1.0
C      1  0.6170290000000  0.2704210000000  0.5585610000000 1.0
C      1  0.5913060000000  0.2708630000000  0.4077310000000 1.0
C      1  0.4402110000000  0.2704440000000  0.3835660000000 1.0
C      1  0.3730030000000  0.2699390000000  0.5206680000000 1.0
C      1  0.4806410000000  0.2699340000000  0.6271790000000 1.0
C      1  0.6170230000000  0.7295680000000  0.5585590000000 1.0
C      1  0.5913020000000  0.7291220000000  0.4077300000000 1.0
C      1  0.4402070000000  0.7295330000000  0.3835620000000 1.0
C      1  0.3730050000000  0.7300330000000  0.5206660000000 1.0
C      1  0.4806350000000  0.7300590000000  0.6271860000000 1.0
C      1  0.5227780000000  0.6857960000000  0.3611050000000 1.0
C      1  0.3742440000000  0.6860650000000  0.4384200000000 1.0
C      1  0.4016510000000  0.6867430000000  0.5993650000000 1.0
C      1  0.5628730000000  0.6861080000000  0.6250990000000 1.0
C      1  0.6386290000000  0.6858060000000  0.4757780000000 1.0
C      1  0.5227790000000  0.3141900000000  0.3611140000000 1.0
C      1  0.3742310000000  0.3138870000000  0.4384190000000 1.0
C      1  0.4016510000000  0.3132350000000  0.5993620000000 1.0
C      1  0.5628730000000  0.3138870000000  0.6250950000000 1.0
C      1  0.6386440000000  0.3141690000000  0.4757760000000 1.0
C      1  0.6513430000000  0.5880040000000  0.4747330000000 1.0
C      1  0.5237130000000  0.5879890000000  0.3484390000000 1.0
C      1  0.3632520000000  0.5881020000000  0.4323270000000 1.0
C      1  0.3912570000000  0.5879480000000  0.6098750000000 1.0
C      1  0.5690930000000  0.5881340000000  0.6360060000000 1.0
C      1  0.6513270000000  0.4119800000000  0.4747390000000 1.0
C      1  0.5237230000000  0.4119960000000  0.3484250000000 1.0
C      1  0.3632850000000  0.4118660000000  0.4323420000000 1.0
C      1  0.3912680000000  0.4120350000000  0.6098850000000 1.0
C      1  0.5690990000000  0.4118590000000  0.6360210000000 1.0
C      1  0.5735330000000  0.8129030000000  0.5362570000000 1.0
C      1  0.5587960000000  0.8119450000000  0.4405460000000 1.0
C      1  0.4629360000000  0.8128810000000  0.4268020000000 1.0
C      1  0.4187490000000  0.8127180000000  0.5129330000000 1.0
C      1  0.4878660000000  0.8127340000000  0.5813350000000 1.0
C      1  0.5735400000000  0.1870860000000  0.5362610000000 1.0
C      1  0.5588030000000  0.1880390000000  0.4405500000000 1.0
C      1  0.4629430000000  0.1870980000000  0.4268080000000 1.0
C      1  0.4187550000000  0.1872570000000  0.5129380000000 1.0
C      1  0.4878740000000  0.1872540000000  0.5813380000000 1.0
C      1  0.3663970000000  0.4559160000000  0.5229000000000 1.0
C      1  0.4785320000000  0.4559200000000  0.6337750000000 1.0
C      1  0.6180590000000  0.4562730000000  0.5594860000000 1.0
C      1  0.5961410000000  0.4558790000000  0.4028770000000 1.0
C      1  0.4393340000000  0.4562770000000  0.3825910000000 1.0
C      1  0.3663760000000  0.5440730000000  0.5228820000000 1.0
C      1  0.4785200000000  0.5440730000000  0.6337660000000 1.0
C      1  0.6180710000000  0.5437200000000  0.5594710000000 1.0
C      1  0.5961500000000  0.5441130000000  0.4028850000000 1.0
C      1  0.4393050000000  0.5437110000000  0.3825950000000 1.0
END
