TITL C-1525613-7943-517 0.217059326495669 3375 -8743.18334467226 0 0 60 (S10) n - 1
REM
REM in /home/nfs/bkarasulu/CARBON/AIRSS/Generating-Clusters/ReaxFF-fromJPCA2015/Units_Real/Try2-Higher-symm/Only-C60
REM
REM
REM
REM
REM
REM ./C.cell (863b2abdce7293c0672fb3ba77bf323a)
REM AIRSS Version 0.9.1 bugfix July 2018 build 013d7b7c2542+ Fri, 06 Jul 2018 19:26:36 +0100
REM compiler GCC version 9.2.1 20190827 (Red Hat 9.2.1-1)
REM options -cpp -mtune=generic -march=x86-64 -g -O0 -fpre-include=/usr/include/finclude/math-vector-fortran.h
REM seed 554601238 1004243358 535713694 1032489063 -258367447 -84700424 1135205082 -1608508752 -2031504881 1676950834 -1981145132 -1736772090 -1235764954 -741408084 -199521638 -970684469 -471541956 1837790396 64963565 -540071354 1328891242 2089942516 75493317 -748855828 876045239 446815429 2029639331 509595545 -1617405695 34203082 954311248 -2104530451 1530041636
REM
CELL 1.54180   15.00000   15.00000   15.00000   90.00000   90.00000   90.00000
LATT -1
SFAC C  
C      1  0.3247990000000  0.4917080000000  0.6857830000000 1.0
C      1  0.3624170000000  0.3901160000000  0.3140790000000 1.0
C      1  0.4529830000000  0.3304910000000  0.6858600000000 1.0
C      1  0.5619270000000  0.3355950000000  0.3136850000000 1.0
C      1  0.6465010000000  0.4039510000000  0.6856790000000 1.0
C      1  0.6751990000000  0.5082950000000  0.3142190000000 1.0
C      1  0.6375440000000  0.6099040000000  0.6859540000000 1.0
C      1  0.5470210000000  0.6695140000000  0.3141430000000 1.0
C      1  0.4380750000000  0.6644080000000  0.6863130000000 1.0
C      1  0.3535170000000  0.5960440000000  0.3143280000000 1.0
C      1  0.6641460000000  0.5968210000000  0.3420840000000 1.0
C      1  0.5757290000000  0.6744190000000  0.6578060000000 1.0
C      1  0.4589900000000  0.6852710000000  0.3424440000000 1.0
C      1  0.3578090000000  0.6258700000000  0.6578210000000 1.0
C      1  0.3106250000000  0.5178920000000  0.3420910000000 1.0
C      1  0.3358560000000  0.4031820000000  0.6579170000000 1.0
C      1  0.4242700000000  0.3255840000000  0.3421920000000 1.0
C      1  0.5410090000000  0.3147270000000  0.6575500000000 1.0
C      1  0.6421910000000  0.3741290000000  0.3421790000000 1.0
C      1  0.6893680000000  0.4820690000000  0.6579310000000 1.0
C      1  0.4339970000000  0.4486900000000  0.2720750000000 1.0
C      1  0.4765290000000  0.4198030000000  0.7279790000000 1.0
C      1  0.5279040000000  0.4214240000000  0.2723590000000 1.0
C      1  0.5687640000000  0.4532590000000  0.7274040000000 1.0
C      1  0.5832910000000  0.5027890000000  0.2727170000000 1.0
C      1  0.5660070000000  0.5513120000000  0.7279290000000 1.0
C      1  0.5234710000000  0.5801940000000  0.2720220000000 1.0
C      1  0.4720910000000  0.5785770000000  0.7276390000000 1.0
C      1  0.4312240000000  0.5467470000000  0.2726020000000 1.0
C      1  0.4167090000000  0.4972140000000  0.7272840000000 1.0
C      1  0.4060020000000  0.3626440000000  0.5248940000000 1.0
C      1  0.5049350000000  0.3337420000000  0.4759150000000 1.0
C      1  0.6014110000000  0.3681260000000  0.5237480000000 1.0
C      1  0.6591870000000  0.4524740000000  0.4758300000000 1.0
C      1  0.6569640000000  0.5553800000000  0.5246290000000 1.0
C      1  0.5940110000000  0.6373570000000  0.4750970000000 1.0
C      1  0.4950580000000  0.6662530000000  0.5240950000000 1.0
C      1  0.3985830000000  0.6318760000000  0.4762620000000 1.0
C      1  0.3408180000000  0.5475370000000  0.5241700000000 1.0
C      1  0.3430610000000  0.4446290000000  0.4752770000000 1.0
C      1  0.5773830000000  0.4779850000000  0.4273040000000 1.0
C      1  0.5755630000000  0.5272610000000  0.5705790000000 1.0
C      1  0.5452640000000  0.5661510000000  0.4295970000000 1.0
C      1  0.4983000000000  0.5805960000000  0.5721890000000 1.0
C      1  0.4507690000000  0.5636480000000  0.4272300000000 1.0
C      1  0.4226230000000  0.5220250000000  0.5726950000000 1.0
C      1  0.4245320000000  0.4727710000000  0.4295300000000 1.0
C      1  0.4547550000000  0.4338620000000  0.5703990000000 1.0
C      1  0.5016510000000  0.4194200000000  0.4277900000000 1.0
C      1  0.5492030000000  0.4363070000000  0.5727560000000 1.0
C      1  0.3768490000000  0.6691170000000  0.3845110000000 1.0
C      1  0.3010690000000  0.5644310000000  0.6156380000000 1.0
C      1  0.3020590000000  0.4353310000000  0.3839240000000 1.0
C      1  0.3775130000000  0.3314510000000  0.6161190000000 1.0
C      1  0.5002630000000  0.2908950000000  0.3843390000000 1.0
C      1  0.6231490000000  0.3308630000000  0.6154850000000 1.0
C      1  0.6989390000000  0.4355690000000  0.3843580000000 1.0
C      1  0.6979140000000  0.5646730000000  0.6160210000000 1.0
C      1  0.6224720000000  0.6685260000000  0.3838840000000 1.0
C      1  0.4997350000000  0.7091050000000  0.6156670000000 1.0
END
