TITL C-1525613-7943-1018 0.508069843821362 3375 -8212.03741236071 0 0 60 (C5) n - 1
REM
REM in /home/nfs/bkarasulu/CARBON/AIRSS/Generating-Clusters/ReaxFF-fromJPCA2015/Units_Real/Try2-Higher-symm/Only-C60
REM
REM
REM
REM
REM
REM ./C.cell (863b2abdce7293c0672fb3ba77bf323a)
REM AIRSS Version 0.9.1 bugfix July 2018 build 013d7b7c2542+ Fri, 06 Jul 2018 19:26:36 +0100
REM compiler GCC version 9.2.1 20190827 (Red Hat 9.2.1-1)
REM options -cpp -mtune=generic -march=x86-64 -g -O0 -fpre-include=/usr/include/finclude/math-vector-fortran.h
REM seed -177608851 -131192960 732924476 1071750684 -1078298665 997078134 -50281722 293577061 -1703284321 -1677281245 497106277 -777333527 -1365323923 -550346943 347041838 -786108193 -2059331438 -989197436 -741641449 -1294571392 -956999740 -581952338 -64197883 2105920489 -719347444 -518395602 1874616704 1462670496 -1925574700 -350692804 -905946416 1048787605 -374169990
REM
CELL 1.54180   15.00000   15.00000   15.00000   90.00000   90.00000   90.00000
LATT -1
SFAC C  
C      1  0.6674260000000  0.4990790000000  0.4113730000000 1.0
C      1  0.5512240000000  0.3404970000000  0.4113630000000 1.0
C      1  0.3639820000000  0.4023500000000  0.4115110000000 1.0
C      1  0.3649070000000  0.5990970000000  0.4114740000000 1.0
C      1  0.5518920000000  0.6591170000000  0.4113050000000 1.0
C      1  0.3325740000000  0.4990790000000  0.4113730000000 1.0
C      1  0.4487760000000  0.3404970000000  0.4113630000000 1.0
C      1  0.6360180000000  0.4023500000000  0.4115110000000 1.0
C      1  0.6350930000000  0.5990970000000  0.4114740000000 1.0
C      1  0.4481080000000  0.6591170000000  0.4113050000000 1.0
C      1  0.3938980000000  0.7287470000000  0.4614740000000 1.0
C      1  0.6841650000000  0.6711270000000  0.4616270000000 1.0
C      1  0.7203850000000  0.3773580000000  0.4615990000000 1.0
C      1  0.4516510000000  0.2532030000000  0.4614910000000 1.0
C      1  0.2494680000000  0.4696620000000  0.4615430000000 1.0
C      1  0.6061020000000  0.7287470000000  0.4614740000000 1.0
C      1  0.3158350000000  0.6711270000000  0.4616270000000 1.0
C      1  0.2796150000000  0.3773580000000  0.4615990000000 1.0
C      1  0.5483490000000  0.2532030000000  0.4614910000000 1.0
C      1  0.7505320000000  0.4696620000000  0.4615430000000 1.0
C      1  0.3751390000000  0.5908170000000  0.3085270000000 1.0
C      1  0.5478020000000  0.6467850000000  0.3084770000000 1.0
C      1  0.6544050000000  0.4999590000000  0.3085390000000 1.0
C      1  0.5476180000000  0.3531710000000  0.3083580000000 1.0
C      1  0.3750790000000  0.4092830000000  0.3086280000000 1.0
C      1  0.6248610000000  0.5908170000000  0.3085270000000 1.0
C      1  0.4521980000000  0.6467850000000  0.3084770000000 1.0
C      1  0.3455950000000  0.4999590000000  0.3085390000000 1.0
C      1  0.4523820000000  0.3531710000000  0.3083580000000 1.0
C      1  0.6249210000000  0.4092830000000  0.3086280000000 1.0
C      1  0.3537670000000  0.3763810000000  0.5973350000000 1.0
C      1  0.3414590000000  0.6042980000000  0.5987190000000 1.0
C      1  0.5485170000000  0.6829770000000  0.5976880000000 1.0
C      1  0.6910890000000  0.5143700000000  0.5972490000000 1.0
C      1  0.5672370000000  0.3220540000000  0.5981550000000 1.0
C      1  0.6462330000000  0.3763810000000  0.5973350000000 1.0
C      1  0.6585410000000  0.6042980000000  0.5987190000000 1.0
C      1  0.4514830000000  0.6829770000000  0.5976880000000 1.0
C      1  0.3089110000000  0.5143700000000  0.5972490000000 1.0
C      1  0.4327630000000  0.3220540000000  0.5981550000000 1.0
C      1  0.4508210000000  0.7594170000000  0.5332330000000 1.0
C      1  0.7316920000000  0.6273440000000  0.5338780000000 1.0
C      1  0.6933400000000  0.3185890000000  0.5328410000000 1.0
C      1  0.3872700000000  0.2609750000000  0.5341760000000 1.0
C      1  0.2370630000000  0.5332310000000  0.5327500000000 1.0
C      1  0.5491790000000  0.7594170000000  0.5332340000000 1.0
C      1  0.2683080000000  0.6273440000000  0.5338780000000 1.0
C      1  0.3066600000000  0.3185900000000  0.5328410000000 1.0
C      1  0.6127300000000  0.2609750000000  0.5341760000000 1.0
C      1  0.7629370000000  0.5332310000000  0.5327500000000 1.0
C      1  0.4512940000000  0.3525010000000  0.6889180000000 1.0
C      1  0.3443060000000  0.5000640000000  0.6860820000000 1.0
C      1  0.4523910000000  0.6479740000000  0.6873550000000 1.0
C      1  0.6259070000000  0.5911750000000  0.6885470000000 1.0
C      1  0.6259900000000  0.4083980000000  0.6857830000000 1.0
C      1  0.5487060000000  0.3525010000000  0.6889190000000 1.0
C      1  0.6556940000000  0.5000640000000  0.6860820000000 1.0
C      1  0.5476090000000  0.6479740000000  0.6873550000000 1.0
C      1  0.3740930000000  0.5911750000000  0.6885480000000 1.0
C      1  0.3740100000000  0.4083980000000  0.6857830000000 1.0
END
