TITL C-1525613-7943-7738 0.000169927679663641 3375 -9520.81209382895 0 0 60 (C1) n - 1
REM
REM in /home/nfs/bkarasulu/CARBON/AIRSS/Generating-Clusters/ReaxFF-fromJPCA2015/Units_Real/Try2-Higher-symm/Only-C60
REM
REM
REM
REM
REM
REM ./C.cell (863b2abdce7293c0672fb3ba77bf323a)
REM AIRSS Version 0.9.1 bugfix July 2018 build 013d7b7c2542+ Fri, 06 Jul 2018 19:26:36 +0100
REM compiler GCC version 9.2.1 20190827 (Red Hat 9.2.1-1)
REM options -cpp -mtune=generic -march=x86-64 -g -O0 -fpre-include=/usr/include/finclude/math-vector-fortran.h
REM seed 2020140521 482299371 1136032789 155084806 1419760400 -811749104 558918629 -2084777495 1500883175 1470052268 1874783186 174302017 1018840524 -369313125 1445838120 247111466 1293257034 -1191912634 -1068546645 1047981167 1184099037 1368319434 75098614 1913387405 2013179971 1227790847 1951428356 -1321006254 1251275441 -769860022 -2091721998 1581555859 -1972231732
REM
CELL 1.54180   15.00000   15.00000   15.00000   90.00000   90.00000   90.00000
LATT -1
SFAC C  
C      1  0.6275330000000  0.4066710000000  0.3090990000000 1.0
C      1  0.4505660000000  0.3501790000000  0.3092240000000 1.0
C      1  0.3416950000000  0.5008910000000  0.3096890000000 1.0
C      1  0.4515850000000  0.6507570000000  0.3099840000000 1.0
C      1  0.6278050000000  0.5924230000000  0.3097860000000 1.0
C      1  0.3726690000000  0.4070730000000  0.3097230000000 1.0
C      1  0.5494400000000  0.3499580000000  0.3090770000000 1.0
C      1  0.6578850000000  0.5007700000000  0.3092720000000 1.0
C      1  0.5481240000000  0.6508380000000  0.3097650000000 1.0
C      1  0.3716130000000  0.5926790000000  0.3099450000000 1.0
C      1  0.4514140000000  0.3486380000000  0.6926250000000 1.0
C      1  0.3425530000000  0.4994130000000  0.6891350000000 1.0
C      1  0.4504570000000  0.6501470000000  0.6888360000000 1.0
C      1  0.6279860000000  0.5936850000000  0.6922660000000 1.0
C      1  0.6287780000000  0.4073070000000  0.6922180000000 1.0
C      1  0.5483100000000  0.3488750000000  0.6921760000000 1.0
C      1  0.6589570000000  0.4993840000000  0.6927060000000 1.0
C      1  0.5491240000000  0.6494470000000  0.6891790000000 1.0
C      1  0.3723920000000  0.5934600000000  0.6888120000000 1.0
C      1  0.3712670000000  0.4071930000000  0.6922010000000 1.0
C      1  0.5464290000000  0.7184820000000  0.6203690000000 1.0
C      1  0.7273450000000  0.5225970000000  0.6244300000000 1.0
C      1  0.5914540000000  0.2907980000000  0.6241090000000 1.0
C      1  0.3296930000000  0.3491580000000  0.6237950000000 1.0
C      1  0.3063700000000  0.6115480000000  0.6208220000000 1.0
C      1  0.4536810000000  0.7185490000000  0.6208680000000 1.0
C      1  0.2777640000000  0.5233220000000  0.6202940000000 1.0
C      1  0.4082340000000  0.2907700000000  0.6243330000000 1.0
C      1  0.6706910000000  0.3483500000000  0.6241380000000 1.0
C      1  0.6960530000000  0.6153260000000  0.6238960000000 1.0
C      1  0.5461890000000  0.2820560000000  0.3782320000000 1.0
C      1  0.3067170000000  0.3888710000000  0.3785970000000 1.0
C      1  0.3333990000000  0.6503660000000  0.3780170000000 1.0
C      1  0.5909490000000  0.7048160000000  0.3779180000000 1.0
C      1  0.7216410000000  0.4770530000000  0.3782260000000 1.0
C      1  0.4533980000000  0.2821930000000  0.3781540000000 1.0
C      1  0.6930910000000  0.3887630000000  0.3782750000000 1.0
C      1  0.6654580000000  0.6495080000000  0.3786950000000 1.0
C      1  0.4085040000000  0.7049170000000  0.3780450000000 1.0
C      1  0.2771110000000  0.4768150000000  0.3778230000000 1.0
C      1  0.7349760000000  0.4744630000000  0.5398350000000 1.0
C      1  0.5478970000000  0.2687170000000  0.5395030000000 1.0
C      1  0.2958890000000  0.3846150000000  0.5395040000000 1.0
C      1  0.3260820000000  0.6575700000000  0.5404600000000 1.0
C      1  0.5952870000000  0.7135660000000  0.5402320000000 1.0
C      1  0.2673880000000  0.4753560000000  0.5401380000000 1.0
C      1  0.4516840000000  0.2686600000000  0.5397480000000 1.0
C      1  0.7051850000000  0.3829780000000  0.5395560000000 1.0
C      1  0.6727960000000  0.6584440000000  0.5396060000000 1.0
C      1  0.4038410000000  0.7140540000000  0.5404850000000 1.0
C      1  0.3268330000000  0.3443850000000  0.4587010000000 1.0
C      1  0.2965800000000  0.6172270000000  0.4586300000000 1.0
C      1  0.5475510000000  0.7297010000000  0.4589540000000 1.0
C      1  0.7319560000000  0.5262400000000  0.4586100000000 1.0
C      1  0.5957810000000  0.2872110000000  0.4581950000000 1.0
C      1  0.6728290000000  0.3431790000000  0.4582210000000 1.0
C      1  0.7015360000000  0.6166130000000  0.4588020000000 1.0
C      1  0.4513620000000  0.7296660000000  0.4586790000000 1.0
C      1  0.2668210000000  0.5257570000000  0.4588690000000 1.0
C      1  0.4034000000000  0.2875500000000  0.4585170000000 1.0
END
