TITL C-1525613-7943-1302 0.103159189574194 3375 -8678.53874939035 0 0 60 (Ci) n - 1
REM
REM in /home/nfs/bkarasulu/CARBON/AIRSS/Generating-Clusters/ReaxFF-fromJPCA2015/Units_Real/Try2-Higher-symm/Only-C60
REM
REM
REM
REM
REM
REM ./C.cell (863b2abdce7293c0672fb3ba77bf323a)
REM AIRSS Version 0.9.1 bugfix July 2018 build 013d7b7c2542+ Fri, 06 Jul 2018 19:26:36 +0100
REM compiler GCC version 9.2.1 20190827 (Red Hat 9.2.1-1)
REM options -cpp -mtune=generic -march=x86-64 -g -O0 -fpre-include=/usr/include/finclude/math-vector-fortran.h
REM seed 687079744 -771722159 1150044605 -986402640 -125720862 2052406958 937389213 -99752339 -572599325 1512502769 -1230801415 -874859235 2018933124 -898153553 -1459473904 506900348 -524972165 -164643628 -1808141243 335371684 -598793665 -2051626236 -97569448 -1649993325 -1832905150 -414534153 -280402990 -76807016 646827367 350866064 -896048417 -1400339377 -150141421
REM
CELL 1.54180   15.00000   15.00000   15.00000   90.00000   90.00000   90.00000
LATT -1
SFAC C  
C      1  0.2635620000000  0.3710420000000  0.5273160000000 1.0
C      1  0.3268380000000  0.6200170000000  0.6543830000000 1.0
C      1  0.4551080000000  0.3804290000000  0.7320720000000 1.0
C      1  0.5990910000000  0.6211190000000  0.7154130000000 1.0
C      1  0.7121460000000  0.3817200000000  0.6133880000000 1.0
C      1  0.7364620000000  0.6290130000000  0.4727520000000 1.0
C      1  0.6732240000000  0.3800310000000  0.3456510000000 1.0
C      1  0.5449010000000  0.6196180000000  0.2679100000000 1.0
C      1  0.4009850000000  0.3790070000000  0.2845960000000 1.0
C      1  0.2878340000000  0.6182570000000  0.3866530000000 1.0
C      1  0.5745240000000  0.7085850000000  0.4589220000000 1.0
C      1  0.5258640000000  0.2878020000000  0.4191520000000 1.0
C      1  0.4908810000000  0.7126350000000  0.4153200000000 1.0
C      1  0.4351360000000  0.2915380000000  0.4452620000000 1.0
C      1  0.4455540000000  0.7315880000000  0.4944300000000 1.0
C      1  0.4254550000000  0.2914060000000  0.5410480000000 1.0
C      1  0.4740840000000  0.7119940000000  0.5808410000000 1.0
C      1  0.5091140000000  0.2873420000000  0.5846800000000 1.0
C      1  0.5648180000000  0.7084710000000  0.5547130000000 1.0
C      1  0.5544600000000  0.2683820000000  0.5055870000000 1.0
C      1  0.5150670000000  0.4298500000000  0.5802270000000 1.0
C      1  0.5587990000000  0.5639640000000  0.5570210000000 1.0
C      1  0.5807450000000  0.4196370000000  0.5110490000000 1.0
C      1  0.5718490000000  0.5638630000000  0.4620650000000 1.0
C      1  0.5363150000000  0.4301770000000  0.4267080000000 1.0
C      1  0.4850420000000  0.5701570000000  0.4197810000000 1.0
C      1  0.4413040000000  0.4360220000000  0.4429140000000 1.0
C      1  0.4192080000000  0.5803000000000  0.4887920000000 1.0
C      1  0.4281680000000  0.4363580000000  0.5378660000000 1.0
C      1  0.4635980000000  0.5697300000000  0.5732480000000 1.0
C      1  0.6891680000000  0.5516390000000  0.6060460000000 1.0
C      1  0.7339330000000  0.4608660000000  0.4731930000000 1.0
C      1  0.6596280000000  0.5505850000000  0.3541160000000 1.0
C      1  0.5435610000000  0.4472920000000  0.2892900000000 1.0
C      1  0.4102320000000  0.5506970000000  0.3048730000000 1.0
C      1  0.3108420000000  0.4483920000000  0.3939620000000 1.0
C      1  0.2660840000000  0.5391780000000  0.5268020000000 1.0
C      1  0.3402240000000  0.4494030000000  0.6458740000000 1.0
C      1  0.4565360000000  0.5524760000000  0.7107610000000 1.0
C      1  0.5897640000000  0.4493050000000  0.6951480000000 1.0
C      1  0.7438270000000  0.5456930000000  0.5241890000000 1.0
C      1  0.7067540000000  0.4665980000000  0.3791820000000 1.0
C      1  0.5926750000000  0.5339510000000  0.2845120000000 1.0
C      1  0.4490050000000  0.4643110000000  0.2708600000000 1.0
C      1  0.3233540000000  0.5328800000000  0.3433030000000 1.0
C      1  0.2561850000000  0.4543240000000  0.4758380000000 1.0
C      1  0.2932020000000  0.5334530000000  0.6208170000000 1.0
C      1  0.4071480000000  0.4660020000000  0.7155570000000 1.0
C      1  0.5511530000000  0.5357550000000  0.7291790000000 1.0
C      1  0.6766220000000  0.4671230000000  0.6567020000000 1.0
C      1  0.3529400000000  0.3731640000000  0.5779680000000 1.0
C      1  0.4273080000000  0.6331880000000  0.6496840000000 1.0
C      1  0.5288880000000  0.3675020000000  0.6637130000000 1.0
C      1  0.6206030000000  0.6270070000000  0.6152520000000 1.0
C      1  0.6793470000000  0.3956750000000  0.5209620000000 1.0
C      1  0.6470320000000  0.6268020000000  0.4219840000000 1.0
C      1  0.5726300000000  0.3667870000000  0.3504490000000 1.0
C      1  0.4711760000000  0.6324810000000  0.3362600000000 1.0
C      1  0.3794000000000  0.3730150000000  0.3847140000000 1.0
C      1  0.3206470000000  0.6044040000000  0.4790530000000 1.0
END
