TITL C-1525613-7943-7122 0.018837593894844 3375 -8820.9811287436 0 0 60 (C1) n - 1
REM
REM in /home/nfs/bkarasulu/CARBON/AIRSS/Generating-Clusters/ReaxFF-fromJPCA2015/Units_Real/Try2-Higher-symm/Only-C60
REM
REM
REM
REM
REM
REM ./C.cell (863b2abdce7293c0672fb3ba77bf323a)
REM AIRSS Version 0.9.1 bugfix July 2018 build 013d7b7c2542+ Fri, 06 Jul 2018 19:26:36 +0100
REM compiler GCC version 9.2.1 20190827 (Red Hat 9.2.1-1)
REM options -cpp -mtune=generic -march=x86-64 -g -O0 -fpre-include=/usr/include/finclude/math-vector-fortran.h
REM seed 1577756905 -1340525823 -1660240140 -1710537297 841974957 -793785837 751453598 1197817349 1802328800 1665444076 -2055416848 753953328 -874192193 -1747783670 1789923561 460339972 -1970199995 -1308735287 -129570751 1400853836 900242806 976931210 -122849035 171132413 -827755823 1177474281 -961137278 369424569 -1382145845 1290052665 898001231 -837715175 -1261407466
REM
CELL 1.54180   15.00000   15.00000   15.00000   90.00000   90.00000   90.00000
LATT -1
SFAC C  
C      1  0.4658790000000  0.7247640000000  0.5426380000000 1.0
C      1  0.3457460000000  0.6605270000000  0.4657720000000 1.0
C      1  0.3147760000000  0.5295290000000  0.5531910000000 1.0
C      1  0.3420710000000  0.4192640000000  0.4472340000000 1.0
C      1  0.4167510000000  0.3246870000000  0.5464160000000 1.0
C      1  0.5431750000000  0.2925410000000  0.4471140000000 1.0
C      1  0.6582870000000  0.3471420000000  0.5397880000000 1.0
C      1  0.7005970000000  0.4776810000000  0.4540910000000 1.0
C      1  0.6803400000000  0.6001970000000  0.5525120000000 1.0
C      1  0.5870280000000  0.6786550000000  0.4463970000000 1.0
C      1  0.4994380000000  0.6988520000000  0.3910910000000 1.0
C      1  0.4061820000000  0.6782050000000  0.6075020000000 1.0
C      1  0.3263430000000  0.5899330000000  0.4005620000000 1.0
C      1  0.3010840000000  0.4282490000000  0.6139160000000 1.0
C      1  0.3875790000000  0.3380010000000  0.3857560000000 1.0
C      1  0.5067360000000  0.2988000000000  0.6070690000000 1.0
C      1  0.6170960000000  0.3325950000000  0.3888650000000 1.0
C      1  0.6716310000000  0.4195220000000  0.6049990000000 1.0
C      1  0.6951430000000  0.5606590000000  0.3962460000000 1.0
C      1  0.6124880000000  0.6590590000000  0.6041220000000 1.0
C      1  0.5609180000000  0.6488260000000  0.6862120000000 1.0
C      1  0.4724280000000  0.6456630000000  0.3153800000000 1.0
C      1  0.4025600000000  0.5906320000000  0.7150370000000 1.0
C      1  0.3824430000000  0.5032540000000  0.2907920000000 1.0
C      1  0.3495160000000  0.4224430000000  0.7005780000000 1.0
C      1  0.4184430000000  0.3436490000000  0.2986770000000 1.0
C      1  0.5281860000000  0.3497050000000  0.6870440000000 1.0
C      1  0.5982270000000  0.3793420000000  0.3034050000000 1.0
C      1  0.6215900000000  0.4902570000000  0.7137430000000 1.0
C      1  0.6450150000000  0.5624560000000  0.3097450000000 1.0
C      1  0.4690830000000  0.5664110000000  0.5506540000000 1.0
C      1  0.4567410000000  0.5580530000000  0.4543850000000 1.0
C      1  0.4102870000000  0.5039030000000  0.5861680000000 1.0
C      1  0.4335670000000  0.4674910000000  0.4305990000000 1.0
C      1  0.4542420000000  0.4205910000000  0.5766570000000 1.0
C      1  0.5213000000000  0.4249890000000  0.4414810000000 1.0
C      1  0.5381590000000  0.4399250000000  0.5376770000000 1.0
C      1  0.5808770000000  0.4871110000000  0.4045830000000 1.0
C      1  0.5618210000000  0.5351400000000  0.5487840000000 1.0
C      1  0.5544100000000  0.5667350000000  0.4471560000000 1.0
C      1  0.3823020000000  0.5907480000000  0.3193770000000 1.0
C      1  0.3700770000000  0.5124750000000  0.7193410000000 1.0
C      1  0.3873270000000  0.4230870000000  0.2755410000000 1.0
C      1  0.4392980000000  0.3782600000000  0.7074680000000 1.0
C      1  0.5084680000000  0.3602140000000  0.2927110000000 1.0
C      1  0.6196480000000  0.4041730000000  0.6858870000000 1.0
C      1  0.6015530000000  0.4766340000000  0.3164060000000 1.0
C      1  0.6010870000000  0.5711780000000  0.7122630000000 1.0
C      1  0.5632330000000  0.6180210000000  0.2941890000000 1.0
C      1  0.4580530000000  0.6578720000000  0.6881360000000 1.0
C      1  0.4279410000000  0.7164680000000  0.4542610000000 1.0
C      1  0.3372630000000  0.6286330000000  0.5559460000000 1.0
C      1  0.3030950000000  0.5116550000000  0.4542930000000 1.0
C      1  0.3291130000000  0.3745070000000  0.5414830000000 1.0
C      1  0.4448450000000  0.3009030000000  0.4509260000000 1.0
C      1  0.5768890000000  0.2911350000000  0.5408170000000 1.0
C      1  0.6773230000000  0.3780700000000  0.4496730000000 1.0
C      1  0.6962570000000  0.5017430000000  0.5503450000000 1.0
C      1  0.6760700000000  0.6301750000000  0.4586740000000 1.0
C      1  0.5619690000000  0.7086140000000  0.5382230000000 1.0
END
