TITL C-1525613-7943-7043 -1.69639543475012e-05 3375 -8439.70711436178 0 0 60 (Cs) n - 1
REM
REM in /home/nfs/bkarasulu/CARBON/AIRSS/Generating-Clusters/ReaxFF-fromJPCA2015/Units_Real/Try2-Higher-symm/Only-C60
REM
REM
REM
REM
REM
REM ./C.cell (863b2abdce7293c0672fb3ba77bf323a)
REM AIRSS Version 0.9.1 bugfix July 2018 build 013d7b7c2542+ Fri, 06 Jul 2018 19:26:36 +0100
REM compiler GCC version 9.2.1 20190827 (Red Hat 9.2.1-1)
REM options -cpp -mtune=generic -march=x86-64 -g -O0 -fpre-include=/usr/include/finclude/math-vector-fortran.h
REM seed -182536869 -878471798 1550396749 -1917689266 -517434971 -1636386617 -931575662 -2058480942 442058261 -794254242 484280560 879501669 -1569316555 1655347788 1035597170 -2036958630 -1457309828 -1232758040 -87981044 -2124142486 -659530222 -613263519 -1481432218 718490339 -1762858493 328549048 -434810467 1726427515 548286321 -1997871284 6350625 577026256 -682445365
REM
CELL 1.54180   15.00000   15.00000   15.00000   90.00000   90.00000   90.00000
LATT -1
SFAC C  
C      1  0.5233000000000  0.6963610000000  0.4197240000000 1.0
C      1  0.5830570000000  0.6955180000000  0.4969600000000 1.0
C      1  0.5280210000000  0.6944640000000  0.5776650000000 1.0
C      1  0.4342270000000  0.6949980000000  0.5505050000000 1.0
C      1  0.4314310000000  0.6954560000000  0.4529100000000 1.0
C      1  0.5233000000000  0.3036390000000  0.4197240000000 1.0
C      1  0.5830570000000  0.3044820000000  0.4969600000000 1.0
C      1  0.5280210000000  0.3055360000000  0.5776650000000 1.0
C      1  0.4342270000000  0.3050020000000  0.5505050000000 1.0
C      1  0.4314310000000  0.3045440000000  0.4529100000000 1.0
C      1  0.5543350000000  0.4515950000000  0.5671760000000 1.0
C      1  0.4540530000000  0.4509250000000  0.5733580000000 1.0
C      1  0.4146490000000  0.4503180000000  0.4791710000000 1.0
C      1  0.4945290000000  0.4496840000000  0.4131380000000 1.0
C      1  0.5812430000000  0.4508480000000  0.4704820000000 1.0
C      1  0.5543350000000  0.5484050000000  0.5671760000000 1.0
C      1  0.4540530000000  0.5490750000000  0.5733580000000 1.0
C      1  0.4146490000000  0.5496820000000  0.4791710000000 1.0
C      1  0.4945290000000  0.5503160000000  0.4131380000000 1.0
C      1  0.5812430000000  0.5491520000000  0.4704820000000 1.0
C      1  0.2951850000000  0.3798730000000  0.5768110000000 1.0
C      1  0.3642590000000  0.3801970000000  0.3290860000000 1.0
C      1  0.6211430000000  0.3789030000000  0.3184010000000 1.0
C      1  0.7103570000000  0.3788350000000  0.5589270000000 1.0
C      1  0.5096180000000  0.3799250000000  0.7182200000000 1.0
C      1  0.2951850000000  0.6201270000000  0.5768110000000 1.0
C      1  0.3642590000000  0.6198030000000  0.3290860000000 1.0
C      1  0.6211430000000  0.6210970000000  0.3184010000000 1.0
C      1  0.7103570000000  0.6211650000000  0.5589270000000 1.0
C      1  0.5096180000000  0.6200750000000  0.7182200000000 1.0
C      1  0.4022200000000  0.5513050000000  0.2847090000000 1.0
C      1  0.6735300000000  0.5511290000000  0.3399620000000 1.0
C      1  0.7069750000000  0.5509920000000  0.6152430000000 1.0
C      1  0.4535940000000  0.5510490000000  0.7325850000000 1.0
C      1  0.2644250000000  0.5511740000000  0.5277390000000 1.0
C      1  0.4022200000000  0.4486950000000  0.2847090000000 1.0
C      1  0.6735300000000  0.4488710000000  0.3399620000000 1.0
C      1  0.7069750000000  0.4490080000000  0.6152430000000 1.0
C      1  0.4535940000000  0.4489520000000  0.7325850000000 1.0
C      1  0.2644250000000  0.4488260000000  0.5277390000000 1.0
C      1  0.3160480000000  0.5880280000000  0.4500970000000 1.0
C      1  0.4914850000000  0.5888970000000  0.3095760000000 1.0
C      1  0.6772870000000  0.5870920000000  0.4335590000000 1.0
C      1  0.6182020000000  0.5858470000000  0.6472550000000 1.0
C      1  0.3962940000000  0.5870560000000  0.6583500000000 1.0
C      1  0.3160480000000  0.4119720000000  0.4500970000000 1.0
C      1  0.4914850000000  0.4111030000000  0.3095760000000 1.0
C      1  0.6772870000000  0.4129080000000  0.4335590000000 1.0
C      1  0.6182020000000  0.4141530000000  0.6472550000000 1.0
C      1  0.3962940000000  0.4129440000000  0.6583500000000 1.0
C      1  0.3583860000000  0.3414770000000  0.4064030000000 1.0
C      1  0.5455310000000  0.3401050000000  0.3358080000000 1.0
C      1  0.6695770000000  0.3413050000000  0.4923210000000 1.0
C      1  0.5596050000000  0.3427730000000  0.6581310000000 1.0
C      1  0.3674350000000  0.3418140000000  0.6057280000000 1.0
C      1  0.3583860000000  0.6585230000000  0.4064030000000 1.0
C      1  0.5455310000000  0.6598950000000  0.3358080000000 1.0
C      1  0.6695770000000  0.6586950000000  0.4923210000000 1.0
C      1  0.5596050000000  0.6572270000000  0.6581310000000 1.0
C      1  0.3674350000000  0.6581860000000  0.6057280000000 1.0
END
