TITL C-1525613-7943-4872 -6.98614365253526e-05 3375 -9891.22396581414 0 0 60 (Ih) n - 1
REM
REM in /home/nfs/bkarasulu/CARBON/AIRSS/Generating-Clusters/ReaxFF-fromJPCA2015/Units_Real/Try2-Higher-symm/Only-C60
REM
REM
REM
REM
REM
REM ./C.cell (863b2abdce7293c0672fb3ba77bf323a)
REM AIRSS Version 0.9.1 bugfix July 2018 build 013d7b7c2542+ Fri, 06 Jul 2018 19:26:36 +0100
REM compiler GCC version 9.2.1 20190827 (Red Hat 9.2.1-1)
REM options -cpp -mtune=generic -march=x86-64 -g -O0 -fpre-include=/usr/include/finclude/math-vector-fortran.h
REM seed 39912567 -1077574635 -216554619 1542213886 1916777486 816423745 1226435741 -1671717348 -987930556 1787237031 1542667739 -1400195629 -1389694695 -857850447 -464672961 1649835956 -2017904642 -1515357169 -2096979719 1380542562 1228303961 2136834141 -1001185950 -87091126 1484504991 -637200495 -1173332276 -739755860 1210420799 1581548536 1956686025 898203513 -1385271908
REM
CELL 1.54180   15.00000   15.00000   15.00000   90.00000   90.00000   90.00000
LATT -1
SFAC C  
C      1  0.3683650000000  0.4042980000000  0.3276860000000 1.0
C      1  0.5502060000000  0.3452230000000  0.3276570000000 1.0
C      1  0.6625820000000  0.4999090000000  0.3275310000000 1.0
C      1  0.5501930000000  0.6545860000000  0.3274820000000 1.0
C      1  0.3683560000000  0.5954950000000  0.3275780000000 1.0
C      1  0.6316440000000  0.4045050000000  0.6724220000000 1.0
C      1  0.4498070000000  0.3454140000000  0.6725180000000 1.0
C      1  0.3374180000000  0.5000910000000  0.6724690000000 1.0
C      1  0.4497940000000  0.6547770000000  0.6723430000000 1.0
C      1  0.6316350000000  0.5957020000000  0.6723140000000 1.0
C      1  0.2714560000000  0.5479020000000  0.5406360000000 1.0
C      1  0.3838500000000  0.2974470000000  0.5407390000000 1.0
C      1  0.6567780000000  0.3269450000000  0.5406280000000 1.0
C      1  0.7130640000000  0.5956310000000  0.5404560000000 1.0
C      1  0.4749220000000  0.7321900000000  0.5404610000000 1.0
C      1  0.7285400000000  0.5478770000000  0.4593100000000 1.0
C      1  0.6161680000000  0.2974110000000  0.4594910000000 1.0
C      1  0.3432370000000  0.3268850000000  0.4595680000000 1.0
C      1  0.2869280000000  0.5955660000000  0.4594350000000 1.0
C      1  0.5250580000000  0.7321460000000  0.4592750000000 1.0
C      1  0.3024660000000  0.4522130000000  0.3780370000000 1.0
C      1  0.4843120000000  0.2973590000000  0.3780620000000 1.0
C      1  0.6877800000000  0.4224520000000  0.3779210000000 1.0
C      1  0.6316840000000  0.6546180000000  0.3778080000000 1.0
C      1  0.3935470000000  0.6730110000000  0.3778800000000 1.0
C      1  0.6975380000000  0.4523690000000  0.6220180000000 1.0
C      1  0.5157060000000  0.2974990000000  0.6221680000000 1.0
C      1  0.3122270000000  0.4225740000000  0.6221670000000 1.0
C      1  0.3683020000000  0.6547450000000  0.6220160000000 1.0
C      1  0.6064370000000  0.6731590000000  0.6219240000000 1.0
C      1  0.4340110000000  0.4519810000000  0.2774710000000 1.0
C      1  0.5251040000000  0.4223880000000  0.2774560000000 1.0
C      1  0.5813980000000  0.4998770000000  0.2773930000000 1.0
C      1  0.5250970000000  0.5773610000000  0.2773680000000 1.0
C      1  0.4340070000000  0.5477600000000  0.2774170000000 1.0
C      1  0.5659930000000  0.4522400000000  0.7225830000000 1.0
C      1  0.4749030000000  0.4226390000000  0.7226320000000 1.0
C      1  0.4186020000000  0.5001230000000  0.7226070000000 1.0
C      1  0.4748960000000  0.5776120000000  0.7225440000000 1.0
C      1  0.5659890000000  0.5480190000000  0.7225290000000 1.0
C      1  0.3024620000000  0.5476310000000  0.3779830000000 1.0
C      1  0.3935630000000  0.3268410000000  0.3780760000000 1.0
C      1  0.6316980000000  0.3452550000000  0.3779840000000 1.0
C      1  0.6877730000000  0.5774260000000  0.3778330000000 1.0
C      1  0.4842940000000  0.7025010000000  0.3778320000000 1.0
C      1  0.6975340000000  0.5477870000000  0.6219630000000 1.0
C      1  0.6064530000000  0.3269890000000  0.6221200000000 1.0
C      1  0.3683160000000  0.3453820000000  0.6221920000000 1.0
C      1  0.3122200000000  0.5775480000000  0.6220790000000 1.0
C      1  0.5156880000000  0.7026410000000  0.6219380000000 1.0
C      1  0.7285440000000  0.4520980000000  0.4593640000000 1.0
C      1  0.6161500000000  0.7025530000000  0.4592610000000 1.0
C      1  0.3432220000000  0.6730550000000  0.4593720000000 1.0
C      1  0.2869360000000  0.4043690000000  0.4595440000000 1.0
C      1  0.5250780000000  0.2678100000000  0.4595390000000 1.0
C      1  0.2714600000000  0.4521230000000  0.5406900000000 1.0
C      1  0.3838320000000  0.7025890000000  0.5405090000000 1.0
C      1  0.6567630000000  0.6731150000000  0.5404320000000 1.0
C      1  0.7130720000000  0.4044340000000  0.5405650000000 1.0
C      1  0.4749420000000  0.2678540000000  0.5407250000000 1.0
END
