TITL C-1525613-7943-4578 -0.00184968840279388 3375 -8963.75971113527 0 0 60 (Cs) n - 1
REM
REM in /home/nfs/bkarasulu/CARBON/AIRSS/Generating-Clusters/ReaxFF-fromJPCA2015/Units_Real/Try2-Higher-symm/Only-C60
REM
REM
REM
REM
REM
REM ./C.cell (863b2abdce7293c0672fb3ba77bf323a)
REM AIRSS Version 0.9.1 bugfix July 2018 build 013d7b7c2542+ Fri, 06 Jul 2018 19:26:36 +0100
REM compiler GCC version 9.2.1 20190827 (Red Hat 9.2.1-1)
REM options -cpp -mtune=generic -march=x86-64 -g -O0 -fpre-include=/usr/include/finclude/math-vector-fortran.h
REM seed 1379130483 1522443774 753767169 -1713061899 -1778460829 -1267949039 -1124024376 627111965 74843139 1396625906 456366606 1933638559 -1646511261 -1450849852 -1437927047 1952261221 1237351044 -409131781 832613808 1612384752 -2019341239 -224841214 1755688442 -296915820 -957945005 -723466782 -933797299 -1164934399 -630382663 197784137 1097086270 -1099992196 1386905188
REM
CELL 1.54180   15.00000   15.00000   15.00000   90.00000   90.00000   90.00000
LATT -1
SFAC C  
C      1  0.5731580000000  0.3265510000000  0.3067220000000 1.0
C      1  0.3555370000000  0.3782400000000  0.3073020000000 1.0
C      1  0.3385510000000  0.5988810000000  0.3039460000000 1.0
C      1  0.5421840000000  0.6836630000000  0.3071270000000 1.0
C      1  0.6891970000000  0.5149790000000  0.3047900000000 1.0
C      1  0.5700850000000  0.3248440000000  0.6933150000000 1.0
C      1  0.3553170000000  0.3752830000000  0.6955990000000 1.0
C      1  0.3388350000000  0.5990780000000  0.6941620000000 1.0
C      1  0.5461040000000  0.6832540000000  0.6930020000000 1.0
C      1  0.6892380000000  0.5151020000000  0.6953160000000 1.0
C      1  0.5425060000000  0.6867120000000  0.4004850000000 1.0
C      1  0.6907980000000  0.5145840000000  0.3996360000000 1.0
C      1  0.5740700000000  0.3247190000000  0.4000920000000 1.0
C      1  0.3536490000000  0.3768530000000  0.4006690000000 1.0
C      1  0.3390710000000  0.5993800000000  0.3995570000000 1.0
C      1  0.5472170000000  0.6859590000000  0.5997210000000 1.0
C      1  0.6907110000000  0.5163130000000  0.6004970000000 1.0
C      1  0.5702720000000  0.3224060000000  0.5997750000000 1.0
C      1  0.3543860000000  0.3728610000000  0.6008770000000 1.0
C      1  0.3372620000000  0.6007200000000  0.6002780000000 1.0
C      1  0.2956090000000  0.5324900000000  0.5478550000000 1.0
C      1  0.4690730000000  0.7087450000000  0.5482040000000 1.0
C      1  0.6851800000000  0.5964010000000  0.5488780000000 1.0
C      1  0.6463770000000  0.3514930000000  0.5480280000000 1.0
C      1  0.4057990000000  0.3115680000000  0.5490020000000 1.0
C      1  0.2976710000000  0.5309200000000  0.4515280000000 1.0
C      1  0.4672200000000  0.7064680000000  0.4514090000000 1.0
C      1  0.6868010000000  0.5957690000000  0.4520240000000 1.0
C      1  0.6465050000000  0.3543520000000  0.4511600000000 1.0
C      1  0.4039990000000  0.3124040000000  0.4518710000000 1.0
C      1  0.3528300000000  0.5349660000000  0.7596960000000 1.0
C      1  0.4888520000000  0.6515620000000  0.7596720000000 1.0
C      1  0.6407080000000  0.5577750000000  0.7615740000000 1.0
C      1  0.5978610000000  0.3841910000000  0.7596500000000 1.0
C      1  0.4197620000000  0.3697660000000  0.7620900000000 1.0
C      1  0.3521760000000  0.5351290000000  0.2380090000000 1.0
C      1  0.4870460000000  0.6514200000000  0.2392950000000 1.0
C      1  0.6402830000000  0.5586590000000  0.2390450000000 1.0
C      1  0.5988970000000  0.3854970000000  0.2398710000000 1.0
C      1  0.4200440000000  0.3700230000000  0.2403300000000 1.0
C      1  0.5792430000000  0.6299570000000  0.2403550000000 1.0
C      1  0.6474950000000  0.4651570000000  0.2387610000000 1.0
C      1  0.5118680000000  0.3485590000000  0.2399930000000 1.0
C      1  0.3589170000000  0.4421250000000  0.2399850000000 1.0
C      1  0.4010040000000  0.6149460000000  0.2372510000000 1.0
C      1  0.5807400000000  0.6292240000000  0.7602100000000 1.0
C      1  0.6471610000000  0.4641670000000  0.7607050000000 1.0
C      1  0.5105630000000  0.3477560000000  0.7608480000000 1.0
C      1  0.3594810000000  0.4416810000000  0.7604730000000 1.0
C      1  0.4019870000000  0.6153710000000  0.7603560000000 1.0
C      1  0.6965530000000  0.4347790000000  0.4512650000000 1.0
C      1  0.5003230000000  0.2899300000000  0.4516230000000 1.0
C      1  0.3031680000000  0.4363310000000  0.4513700000000 1.0
C      1  0.3792320000000  0.6700940000000  0.4510820000000 1.0
C      1  0.6226340000000  0.6708780000000  0.4519230000000 1.0
C      1  0.6983510000000  0.4355510000000  0.5479940000000 1.0
C      1  0.4983550000000  0.2906330000000  0.5484520000000 1.0
C      1  0.3009090000000  0.4338720000000  0.5482830000000 1.0
C      1  0.3777780000000  0.6706460000000  0.5482130000000 1.0
C      1  0.6233960000000  0.6683610000000  0.5488010000000 1.0
END
