TITL C-1525613-7943-2021 -0.124726555401492 3375 -8995.67737024185 0 0 60 (Ci) n - 1
REM
REM in /home/nfs/bkarasulu/CARBON/AIRSS/Generating-Clusters/ReaxFF-fromJPCA2015/Units_Real/Try2-Higher-symm/Only-C60
REM
REM
REM
REM
REM
REM ./C.cell (863b2abdce7293c0672fb3ba77bf323a)
REM AIRSS Version 0.9.1 bugfix July 2018 build 013d7b7c2542+ Fri, 06 Jul 2018 19:26:36 +0100
REM compiler GCC version 9.2.1 20190827 (Red Hat 9.2.1-1)
REM options -cpp -mtune=generic -march=x86-64 -g -O0 -fpre-include=/usr/include/finclude/math-vector-fortran.h
REM seed 1556959545 -1349408789 -1120065412 -1215369019 850148036 -1700474145 588491989 105078487 253959115 1202954038 -1299263806 -1053893428 -539952886 122067885 392148262 732185680 753945266 -871066949 1149794130 -1699807559 -669640807 -1403059607 -82923636 -1670996601 217125832 1094802238 -1634685423 1103261916 -1915185198 -1050238909 670637712 -275027776 2035588982
REM
CELL 1.54180   15.00000   15.00000   15.00000   90.00000   90.00000   90.00000
LATT -1
SFAC C  
C      1  0.3341760000000  0.6414110000000  0.4584190000000 1.0
C      1  0.3037920000000  0.5161580000000  0.5470750000000 1.0
C      1  0.3351830000000  0.3942460000000  0.4528250000000 1.0
C      1  0.4246910000000  0.3009100000000  0.5407980000000 1.0
C      1  0.5503420000000  0.3099080000000  0.4520600000000 1.0
C      1  0.6658350000000  0.3585820000000  0.5415600000000 1.0
C      1  0.6961320000000  0.4838580000000  0.4529350000000 1.0
C      1  0.6649180000000  0.6058750000000  0.5471670000000 1.0
C      1  0.5752940000000  0.6990520000000  0.4592240000000 1.0
C      1  0.4497270000000  0.6899950000000  0.5479570000000 1.0
C      1  0.6386770000000  0.6438100000000  0.3954840000000 1.0
C      1  0.5338290000000  0.7027840000000  0.6145220000000 1.0
C      1  0.4071910000000  0.6777050000000  0.3964250000000 1.0
C      1  0.3180210000000  0.6009100000000  0.6150360000000 1.0
C      1  0.3013580000000  0.4801720000000  0.3908020000000 1.0
C      1  0.3612560000000  0.3561020000000  0.6045460000000 1.0
C      1  0.4661810000000  0.2972020000000  0.3854260000000 1.0
C      1  0.5928210000000  0.3222980000000  0.6035640000000 1.0
C      1  0.6820060000000  0.3990950000000  0.3849610000000 1.0
C      1  0.6986730000000  0.5198830000000  0.6091920000000 1.0
C      1  0.4598260000000  0.5773400000000  0.2464110000000 1.0
C      1  0.4264960000000  0.5417010000000  0.7491520000000 1.0
C      1  0.4143860000000  0.4886930000000  0.2433120000000 1.0
C      1  0.4409780000000  0.4413060000000  0.7516310000000 1.0
C      1  0.4830010000000  0.4146940000000  0.2465990000000 1.0
C      1  0.5401730000000  0.4226670000000  0.7535680000000 1.0
C      1  0.5734980000000  0.4583240000000  0.2508860000000 1.0
C      1  0.5856340000000  0.5113040000000  0.7566780000000 1.0
C      1  0.5590460000000  0.5587300000000  0.2483320000000 1.0
C      1  0.5170100000000  0.5853320000000  0.7533560000000 1.0
C      1  0.3480960000000  0.4863960000000  0.3100060000000 1.0
C      1  0.3928550000000  0.3877200000000  0.6901050000000 1.0
C      1  0.4721900000000  0.3501680000000  0.3114490000000 1.0
C      1  0.5732120000000  0.3652460000000  0.6858380000000 1.0
C      1  0.6319100000000  0.4252020000000  0.3140790000000 1.0
C      1  0.6518650000000  0.5136750000000  0.6899620000000 1.0
C      1  0.6070750000000  0.6121940000000  0.3099700000000 1.0
C      1  0.5278220000000  0.6497730000000  0.6884500000000 1.0
C      1  0.4267560000000  0.6348050000000  0.3140970000000 1.0
C      1  0.3681010000000  0.5747880000000  0.6859380000000 1.0
C      1  0.5377810000000  0.5528630000000  0.4037910000000 1.0
C      1  0.4774540000000  0.5807850000000  0.5488270000000 1.0
C      1  0.4502990000000  0.5276720000000  0.3917310000000 1.0
C      1  0.4128610000000  0.5135800000000  0.5574190000000 1.0
C      1  0.4331250000000  0.4452780000000  0.4283510000000 1.0
C      1  0.4620940000000  0.4470780000000  0.5962970000000 1.0
C      1  0.5226330000000  0.4190800000000  0.4511970000000 1.0
C      1  0.5495530000000  0.4724390000000  0.6082230000000 1.0
C      1  0.5871700000000  0.4864700000000  0.4426430000000 1.0
C      1  0.5668890000000  0.5547800000000  0.5717390000000 1.0
C      1  0.2933350000000  0.5543760000000  0.4537230000000 1.0
C      1  0.3109820000000  0.4162890000000  0.5446210000000 1.0
C      1  0.3932860000000  0.3096370000000  0.4507360000000 1.0
C      1  0.5197430000000  0.2893340000000  0.5447580000000 1.0
C      1  0.6485870000000  0.3344840000000  0.4498560000000 1.0
C      1  0.7065950000000  0.4456290000000  0.5462870000000 1.0
C      1  0.6890560000000  0.5837520000000  0.4554030000000 1.0
C      1  0.6067670000000  0.6904150000000  0.5492620000000 1.0
C      1  0.4802640000000  0.7106030000000  0.4552380000000 1.0
C      1  0.3514920000000  0.6654380000000  0.5501000000000 1.0
END
