TITL C-1525613-7943-5156 0.167446047238148 3375 -8425.38613914106 0 0 60 (S10) n - 1
REM
REM in /home/nfs/bkarasulu/CARBON/AIRSS/Generating-Clusters/ReaxFF-fromJPCA2015/Units_Real/Try2-Higher-symm/Only-C60
REM
REM
REM
REM
REM
REM ./C.cell (863b2abdce7293c0672fb3ba77bf323a)
REM AIRSS Version 0.9.1 bugfix July 2018 build 013d7b7c2542+ Fri, 06 Jul 2018 19:26:36 +0100
REM compiler GCC version 9.2.1 20190827 (Red Hat 9.2.1-1)
REM options -cpp -mtune=generic -march=x86-64 -g -O0 -fpre-include=/usr/include/finclude/math-vector-fortran.h
REM seed -1515494880 2080323627 162494190 -1653566566 2011470899 -1251995366 -269258393 990060303 801903649 -1777808128 881677222 614244009 566128376 480675550 -1672335192 -1571580061 1546774867 -1961125907 -131118470 1064369072 911062835 2041126151 469506396 1916510079 -1613543742 104649761 1943087614 -1845947336 -1087559532 -281821704 -2090992782 1520746089 -1850669434
REM
CELL 1.54180   15.00000   15.00000   15.00000   90.00000   90.00000   90.00000
LATT -1
SFAC C  
C      1  0.3218270000000  0.5418320000000  0.3615890000000 1.0
C      1  0.4372010000000  0.4581850000000  0.2832790000000 1.0
C      1  0.5765210000000  0.5418710000000  0.2877770000000 1.0
C      1  0.6866820000000  0.4581380000000  0.3733130000000 1.0
C      1  0.7254760000000  0.5418370000000  0.5072350000000 1.0
C      1  0.6781730000000  0.4581680000000  0.6384110000000 1.0
C      1  0.5627990000000  0.5418150000000  0.7167210000000 1.0
C      1  0.4234790000000  0.4581290000000  0.7122230000000 1.0
C      1  0.3133180000000  0.5418620000000  0.6266870000000 1.0
C      1  0.2745240000000  0.4581630000000  0.4927650000000 1.0
C      1  0.6251060000000  0.5389900000000  0.6444000000000 1.0
C      1  0.5163650000000  0.4610330000000  0.6903640000000 1.0
C      1  0.4013230000000  0.5389980000000  0.6636200000000 1.0
C      1  0.3240170000000  0.4610460000000  0.5744170000000 1.0
C      1  0.3139190000000  0.5389710000000  0.4567460000000 1.0
C      1  0.3748940000000  0.4610100000000  0.3556000000000 1.0
C      1  0.4836350000000  0.5389670000000  0.3096360000000 1.0
C      1  0.5986770000000  0.4610020000000  0.3363800000000 1.0
C      1  0.6759830000000  0.5389540000000  0.4255830000000 1.0
C      1  0.6860810000000  0.4610290000000  0.5432540000000 1.0
C      1  0.4696080000000  0.3616560000000  0.2836100000000 1.0
C      1  0.6025800000000  0.6383250000000  0.3070840000000 1.0
C      1  0.6963900000000  0.3616800000000  0.4042350000000 1.0
C      1  0.7151590000000  0.6383320000000  0.5379500000000 1.0
C      1  0.6517590000000  0.3616570000000  0.6571740000000 1.0
C      1  0.5303920000000  0.6383440000000  0.7163900000000 1.0
C      1  0.3974200000000  0.3616750000000  0.6929160000000 1.0
C      1  0.3036100000000  0.6383200000000  0.5957650000000 1.0
C      1  0.2848410000000  0.3616680000000  0.4620500000000 1.0
C      1  0.3482410000000  0.6383430000000  0.3428260000000 1.0
C      1  0.4301960000000  0.3319360000000  0.3706730000000 1.0
C      1  0.5195330000000  0.6680600000000  0.3543370000000 1.0
C      1  0.6014480000000  0.3319570000000  0.3936390000000 1.0
C      1  0.6445790000000  0.6680760000000  0.4736020000000 1.0
C      1  0.6324780000000  0.3319370000000  0.5636060000000 1.0
C      1  0.5698040000000  0.6680640000000  0.6293270000000 1.0
C      1  0.4804670000000  0.3319400000000  0.6456630000000 1.0
C      1  0.3985520000000  0.6680430000000  0.6063610000000 1.0
C      1  0.3554210000000  0.3319240000000  0.5263980000000 1.0
C      1  0.3675220000000  0.6680630000000  0.4363940000000 1.0
C      1  0.6970850000000  0.3373710000000  0.4944840000000 1.0
C      1  0.6626700000000  0.6625970000000  0.6113550000000 1.0
C      1  0.5661160000000  0.3373790000000  0.6857080000000 1.0
C      1  0.4443370000000  0.6626240000000  0.6891300000000 1.0
C      1  0.3437880000000  0.3373620000000  0.6202970000000 1.0
C      1  0.3029150000000  0.6626290000000  0.5055160000000 1.0
C      1  0.3373300000000  0.3374030000000  0.3886450000000 1.0
C      1  0.4338840000000  0.6626210000000  0.3142920000000 1.0
C      1  0.5556630000000  0.3373760000000  0.3108700000000 1.0
C      1  0.6562120000000  0.6626380000000  0.3797030000000 1.0
C      1  0.5498560000000  0.4162510000000  0.4286390000000 1.0
C      1  0.5822810000000  0.5837610000000  0.4715430000000 1.0
C      1  0.5832800000000  0.4162520000000  0.5253870000000 1.0
C      1  0.5524870000000  0.5837430000000  0.5694800000000 1.0
C      1  0.5016260000000  0.4162540000000  0.5870560000000 1.0
C      1  0.4501440000000  0.5837490000000  0.5713610000000 1.0
C      1  0.4177190000000  0.4162390000000  0.5284570000000 1.0
C      1  0.4167200000000  0.5837480000000  0.4746130000000 1.0
C      1  0.4475130000000  0.4162570000000  0.4305200000000 1.0
C      1  0.4983740000000  0.5837460000000  0.4129440000000 1.0
END
