TITL C-1525613-7943-5952 -0.0637163117722332 3375 -9035.29647782789 0 0 60 (C2) n - 1
REM
REM in /home/nfs/bkarasulu/CARBON/AIRSS/Generating-Clusters/ReaxFF-fromJPCA2015/Units_Real/Try2-Higher-symm/Only-C60
REM
REM
REM
REM
REM
REM ./C.cell (863b2abdce7293c0672fb3ba77bf323a)
REM AIRSS Version 0.9.1 bugfix July 2018 build 013d7b7c2542+ Fri, 06 Jul 2018 19:26:36 +0100
REM compiler GCC version 9.2.1 20190827 (Red Hat 9.2.1-1)
REM options -cpp -mtune=generic -march=x86-64 -g -O0 -fpre-include=/usr/include/finclude/math-vector-fortran.h
REM seed 1048077880 1063142225 -77834561 1690000502 -1015489020 648349135 1793542371 -1048966879 532235152 1722214105 280996425 -521087324 -1890815011 -1151735364 2074887953 -1076709303 1991644578 909737649 -281013335 -480525639 600389532 2053869497 1597961265 -30123289 336918921 -234290470 2051657210 843680252 1714174444 -1496583688 920842272 -1171814949 1255406068
REM
CELL 1.54180   15.00000   15.00000   15.00000   90.00000   90.00000   90.00000
LATT -1
SFAC C  
C      1  0.2666790000000  0.4189960000000  0.5260900000000 1.0
C      1  0.2731730000000  0.4528570000000  0.4326740000000 1.0
C      1  0.2760960000000  0.5492760000000  0.4351950000000 1.0
C      1  0.2726380000000  0.5789230000000  0.5296370000000 1.0
C      1  0.2689590000000  0.4995500000000  0.5849730000000 1.0
C      1  0.7334500000000  0.5809880000000  0.5261230000000 1.0
C      1  0.7268690000000  0.5470320000000  0.4327010000000 1.0
C      1  0.7238800000000  0.4506160000000  0.4351810000000 1.0
C      1  0.7273390000000  0.4208860000000  0.5295520000000 1.0
C      1  0.7311470000000  0.5002750000000  0.5848820000000 1.0
C      1  0.6139970000000  0.4401370000000  0.6981930000000 1.0
C      1  0.6170720000000  0.2917530000000  0.5092380000000 1.0
C      1  0.6215140000000  0.4487140000000  0.3013870000000 1.0
C      1  0.6096470000000  0.6653900000000  0.3732110000000 1.0
C      1  0.6110860000000  0.6698970000000  0.6231190000000 1.0
C      1  0.3859080000000  0.5600520000000  0.6983850000000 1.0
C      1  0.3827600000000  0.7083050000000  0.5092900000000 1.0
C      1  0.3784880000000  0.5512990000000  0.3014800000000 1.0
C      1  0.3904000000000  0.3344970000000  0.3730610000000 1.0
C      1  0.3888530000000  0.3299930000000  0.6229730000000 1.0
C      1  0.4461240000000  0.4597110000000  0.5723490000000 1.0
C      1  0.4207080000000  0.4289640000000  0.4844140000000 1.0
C      1  0.4514860000000  0.4956280000000  0.4225330000000 1.0
C      1  0.4323870000000  0.5774270000000  0.4684700000000 1.0
C      1  0.4531900000000  0.5582710000000  0.5623810000000 1.0
C      1  0.5539810000000  0.5404170000000  0.5721870000000 1.0
C      1  0.5795470000000  0.5710470000000  0.4848250000000 1.0
C      1  0.5488480000000  0.5046010000000  0.4227720000000 1.0
C      1  0.5672320000000  0.4226060000000  0.4686620000000 1.0
C      1  0.5466740000000  0.4417920000000  0.5625950000000 1.0
C      1  0.5486120000000  0.5059260000000  0.7250550000000 1.0
C      1  0.5452070000000  0.2917150000000  0.5748550000000 1.0
C      1  0.5444790000000  0.3968920000000  0.3102110000000 1.0
C      1  0.5493710000000  0.6190190000000  0.3060370000000 1.0
C      1  0.5509380000000  0.7078760000000  0.5555810000000 1.0
C      1  0.4514960000000  0.4943350000000  0.7254040000000 1.0
C      1  0.4547680000000  0.7082330000000  0.5747060000000 1.0
C      1  0.4554600000000  0.6031480000000  0.3103730000000 1.0
C      1  0.4505890000000  0.3809500000000  0.3058190000000 1.0
C      1  0.4491230000000  0.2921230000000  0.5556570000000 1.0
C      1  0.5807150000000  0.6648150000000  0.4669070000000 1.0
C      1  0.5980810000000  0.5720320000000  0.6613590000000 1.0
C      1  0.5974060000000  0.3679780000000  0.6259650000000 1.0
C      1  0.6036540000000  0.3443660000000  0.4253380000000 1.0
C      1  0.6229210000000  0.5503090000000  0.2971240000000 1.0
C      1  0.4195550000000  0.3351760000000  0.4666990000000 1.0
C      1  0.4017010000000  0.4278610000000  0.6620090000000 1.0
C      1  0.4027260000000  0.6319730000000  0.6256600000000 1.0
C      1  0.3960740000000  0.6558300000000  0.4252690000000 1.0
C      1  0.3770410000000  0.4497010000000  0.2971040000000 1.0
C      1  0.6793770000000  0.5961930000000  0.3608440000000 1.0
C      1  0.6784200000000  0.6499870000000  0.5626240000000 1.0
C      1  0.6765080000000  0.5061710000000  0.6662030000000 1.0
C      1  0.6758210000000  0.3450720000000  0.5651800000000 1.0
C      1  0.6685670000000  0.3978000000000  0.3723070000000 1.0
C      1  0.3206410000000  0.4037050000000  0.3607480000000 1.0
C      1  0.3217750000000  0.3499770000000  0.5624040000000 1.0
C      1  0.3233720000000  0.4939270000000  0.6665530000000 1.0
C      1  0.3241670000000  0.6548430000000  0.5651540000000 1.0
C      1  0.3313010000000  0.6021690000000  0.3723200000000 1.0
END
