TITL C-1525613-7943-5451 0.124369471634234 3375 -8511.7266630492 0 0 60 (Ci) n - 1
REM
REM in /home/nfs/bkarasulu/CARBON/AIRSS/Generating-Clusters/ReaxFF-fromJPCA2015/Units_Real/Try2-Higher-symm/Only-C60
REM
REM
REM
REM
REM
REM ./C.cell (863b2abdce7293c0672fb3ba77bf323a)
REM AIRSS Version 0.9.1 bugfix July 2018 build 013d7b7c2542+ Fri, 06 Jul 2018 19:26:36 +0100
REM compiler GCC version 9.2.1 20190827 (Red Hat 9.2.1-1)
REM options -cpp -mtune=generic -march=x86-64 -g -O0 -fpre-include=/usr/include/finclude/math-vector-fortran.h
REM seed 593155582 1490780906 -166655253 -1394858927 -1666951768 -1884984609 614823406 1456803572 -1693006304 -914456991 -1459077715 -452842585 558160320 -1988147820 -680172806 -1455347178 -1905462382 -493489281 -1432445883 1936787364 29923143 1392019948 -716739347 -1517939630 1139544537 1619200795 1411553725 -2079993438 960092603 -165423188 -1922673788 49468900 271695461
REM
CELL 1.54180   15.00000   15.00000   15.00000   90.00000   90.00000   90.00000
LATT -1
SFAC C  
C      1  0.2908170000000  0.3821120000000  0.5233670000000 1.0
C      1  0.7083020000000  0.3973110000000  0.4526160000000 1.0
C      1  0.2918260000000  0.4462270000000  0.4011070000000 1.0
C      1  0.7088110000000  0.5160440000000  0.3816010000000 1.0
C      1  0.2904330000000  0.5843800000000  0.4105670000000 1.0
C      1  0.7087970000000  0.6163330000000  0.4770880000000 1.0
C      1  0.2914700000000  0.6025260000000  0.5468710000000 1.0
C      1  0.7086220000000  0.5547210000000  0.6006940000000 1.0
C      1  0.2913030000000  0.4835860000000  0.6174490000000 1.0
C      1  0.7096930000000  0.4167220000000  0.5888700000000 1.0
C      1  0.5482220000000  0.7354260000000  0.5993010000000 1.0
C      1  0.4520020000000  0.6326340000000  0.7183360000000 1.0
C      1  0.5473720000000  0.4789850000000  0.7551900000000 1.0
C      1  0.4530770000000  0.3323400000000  0.6941710000000 1.0
C      1  0.5479900000000  0.2497510000000  0.5585760000000 1.0
C      1  0.4517350000000  0.2647010000000  0.4009800000000 1.0
C      1  0.5477300000000  0.3671360000000  0.2816710000000 1.0
C      1  0.4524730000000  0.5210760000000  0.2445950000000 1.0
C      1  0.5469810000000  0.6673800000000  0.3060070000000 1.0
C      1  0.4523490000000  0.7502690000000  0.4414750000000 1.0
C      1  0.3947310000000  0.3579920000000  0.6153070000000 1.0
C      1  0.6058790000000  0.3178970000000  0.5097080000000 1.0
C      1  0.3931760000000  0.3476660000000  0.4007080000000 1.0
C      1  0.6062290000000  0.4343520000000  0.3303780000000 1.0
C      1  0.3940490000000  0.5470610000000  0.3232240000000 1.0
C      1  0.6053960000000  0.6416390000000  0.3847270000000 1.0
C      1  0.3943660000000  0.6822300000000  0.4904570000000 1.0
C      1  0.6068170000000  0.6525440000000  0.5993750000000 1.0
C      1  0.3936970000000  0.5654520000000  0.6691290000000 1.0
C      1  0.6059550000000  0.4533670000000  0.6765090000000 1.0
C      1  0.3085550000000  0.6429880000000  0.4734780000000 1.0
C      1  0.6918160000000  0.6297350000000  0.5624650000000 1.0
C      1  0.3085680000000  0.5674220000000  0.6256930000000 1.0
C      1  0.6917110000000  0.4801380000000  0.6437080000000 1.0
C      1  0.3086650000000  0.3985350000000  0.6054140000000 1.0
C      1  0.6913630000000  0.3574420000000  0.5264110000000 1.0
C      1  0.3080630000000  0.3705190000000  0.4378160000000 1.0
C      1  0.6913720000000  0.4322670000000  0.3736570000000 1.0
C      1  0.3085080000000  0.5201060000000  0.3566330000000 1.0
C      1  0.6913330000000  0.6008550000000  0.3948430000000 1.0
C      1  0.4721620000000  0.4004850000000  0.5730930000000 1.0
C      1  0.5282790000000  0.3766750000000  0.5005680000000 1.0
C      1  0.4717980000000  0.3991730000000  0.4280130000000 1.0
C      1  0.5280210000000  0.4608780000000  0.3829890000000 1.0
C      1  0.4716800000000  0.5373540000000  0.3821330000000 1.0
C      1  0.5276280000000  0.5995560000000  0.4267340000000 1.0
C      1  0.4720660000000  0.6236560000000  0.4995280000000 1.0
C      1  0.5281160000000  0.6008650000000  0.5721870000000 1.0
C      1  0.4719040000000  0.5389570000000  0.6165620000000 1.0
C      1  0.5283540000000  0.4626340000000  0.6174930000000 1.0
C      1  0.5153980000000  0.5959330000000  0.2443420000000 1.0
C      1  0.4839470000000  0.7281780000000  0.3498380000000 1.0
C      1  0.5159340000000  0.7717310000000  0.5123680000000 1.0
C      1  0.4846450000000  0.7136690000000  0.6703460000000 1.0
C      1  0.5149760000000  0.5729420000000  0.7631190000000 1.0
C      1  0.4843850000000  0.4041740000000  0.7556620000000 1.0
C      1  0.5161490000000  0.2719020000000  0.6500530000000 1.0
C      1  0.4843010000000  0.2281480000000  0.4877210000000 1.0
C      1  0.5153490000000  0.2861800000000  0.3299240000000 1.0
C      1  0.4846540000000  0.4270400000000  0.2371550000000 1.0
END
