TITL C-1525613-7943-2785 0.000105732012499529 3375 -9581.06122632785 0 0 60 (D5h) n - 1
REM
REM in /home/nfs/bkarasulu/CARBON/AIRSS/Generating-Clusters/ReaxFF-fromJPCA2015/Units_Real/Try2-Higher-symm/Only-C60
REM
REM
REM
REM
REM
REM ./C.cell (863b2abdce7293c0672fb3ba77bf323a)
REM AIRSS Version 0.9.1 bugfix July 2018 build 013d7b7c2542+ Fri, 06 Jul 2018 19:26:36 +0100
REM compiler GCC version 9.2.1 20190827 (Red Hat 9.2.1-1)
REM options -cpp -mtune=generic -march=x86-64 -g -O0 -fpre-include=/usr/include/finclude/math-vector-fortran.h
REM seed 525019052 1922835373 1317233148 -1973658353 -1743389150 -1391128137 523037383 2122882695 1934752481 -1291535955 967825343 357672911 -106191720 -1857633258 -1207596643 -57819342 -679463759 495081303 -1282064077 -1581324573 -747286011 1428044352 -255394104 -2132199764 1381890854 -1763748377 1685627286 870195703 -1474245928 494722149 -673897051 166893067 424290839
REM
CELL 1.54180   15.00000   15.00000   15.00000   90.00000   90.00000   90.00000
LATT -1
SFAC C  
C      1  0.4866090000000  0.3628480000000  0.6766550000000 1.0
C      1  0.3280060000000  0.3633640000000  0.5411510000000 1.0
C      1  0.4081680000000  0.3640320000000  0.3496150000000 1.0
C      1  0.6135800000000  0.3634400000000  0.3661260000000 1.0
C      1  0.6632590000000  0.3628240000000  0.5673060000000 1.0
C      1  0.4850410000000  0.6367760000000  0.6767980000000 1.0
C      1  0.3279370000000  0.6361560000000  0.5413140000000 1.0
C      1  0.4083830000000  0.6367780000000  0.3484220000000 1.0
C      1  0.6149340000000  0.6364270000000  0.3667010000000 1.0
C      1  0.6626650000000  0.6364580000000  0.5685270000000 1.0
C      1  0.3389920000000  0.4535310000000  0.6859220000000 1.0
C      1  0.2762740000000  0.4534040000000  0.4021060000000 1.0
C      1  0.5210850000000  0.4535970000000  0.2593790000000 1.0
C      1  0.7375400000000  0.4536810000000  0.4452000000000 1.0
C      1  0.6262950000000  0.4538960000000  0.7102450000000 1.0
C      1  0.3410890000000  0.5484030000000  0.6837350000000 1.0
C      1  0.2761420000000  0.5474750000000  0.4017650000000 1.0
C      1  0.5210290000000  0.5469830000000  0.2591480000000 1.0
C      1  0.7355830000000  0.5480450000000  0.4445940000000 1.0
C      1  0.6258690000000  0.5489710000000  0.7080690000000 1.0
C      1  0.7396330000000  0.4075340000000  0.5269680000000 1.0
C      1  0.5484620000000  0.4072340000000  0.7373690000000 1.0
C      1  0.2886100000000  0.4068010000000  0.6190360000000 1.0
C      1  0.3217290000000  0.4065670000000  0.3363700000000 1.0
C      1  0.5982370000000  0.4073620000000  0.2816270000000 1.0
C      1  0.7384110000000  0.5932690000000  0.5258000000000 1.0
C      1  0.5492300000000  0.5937550000000  0.7357000000000 1.0
C      1  0.2920180000000  0.5919710000000  0.6175900000000 1.0
C      1  0.3220950000000  0.5942820000000  0.3353700000000 1.0
C      1  0.5987130000000  0.5930440000000  0.2810070000000 1.0
C      1  0.5737860000000  0.6517510000000  0.5314310000000 1.0
C      1  0.4926310000000  0.6518410000000  0.5807190000000 1.0
C      1  0.4204860000000  0.6515800000000  0.5188150000000 1.0
C      1  0.4572480000000  0.6512690000000  0.4310740000000 1.0
C      1  0.5519420000000  0.6514120000000  0.4390580000000 1.0
C      1  0.5747820000000  0.3492720000000  0.5314700000000 1.0
C      1  0.4938800000000  0.3491810000000  0.5816910000000 1.0
C      1  0.4212110000000  0.3492730000000  0.5198580000000 1.0
C      1  0.4575780000000  0.3498330000000  0.4318910000000 1.0
C      1  0.5520910000000  0.3496160000000  0.4391910000000 1.0
C      1  0.7019830000000  0.5928640000000  0.3706360000000 1.0
C      1  0.6857740000000  0.5930830000000  0.6522580000000 1.0
C      1  0.4126470000000  0.5930840000000  0.7242330000000 1.0
C      1  0.2593010000000  0.5938430000000  0.4857180000000 1.0
C      1  0.4404810000000  0.5931250000000  0.2669850000000 1.0
C      1  0.7026160000000  0.4049800000000  0.3693120000000 1.0
C      1  0.6881470000000  0.4053820000000  0.6531040000000 1.0
C      1  0.4123330000000  0.4054180000000  0.7267540000000 1.0
C      1  0.2590090000000  0.4069350000000  0.4852520000000 1.0
C      1  0.4399030000000  0.4068520000000  0.2677460000000 1.0
C      1  0.2274630000000  0.5460450000000  0.5651650000000 1.0
C      1  0.3542500000000  0.5491330000000  0.2564390000000 1.0
C      1  0.6845930000000  0.5482050000000  0.2861530000000 1.0
C      1  0.7601270000000  0.5467070000000  0.6088690000000 1.0
C      1  0.4768140000000  0.5464420000000  0.7814540000000 1.0
C      1  0.2273070000000  0.4519400000000  0.5644750000000 1.0
C      1  0.3538860000000  0.4510120000000  0.2569840000000 1.0
C      1  0.6836580000000  0.4504460000000  0.2848200000000 1.0
C      1  0.7604690000000  0.4502890000000  0.6074750000000 1.0
C      1  0.4779880000000  0.4502800000000  0.7813560000000 1.0
END
