TITL C-1525613-7943-6738 -0.060088012578678 3375 -8602.33630483153 0 0 60 (C2) n - 1
REM
REM in /home/nfs/bkarasulu/CARBON/AIRSS/Generating-Clusters/ReaxFF-fromJPCA2015/Units_Real/Try2-Higher-symm/Only-C60
REM
REM
REM
REM
REM
REM ./C.cell (863b2abdce7293c0672fb3ba77bf323a)
REM AIRSS Version 0.9.1 bugfix July 2018 build 013d7b7c2542+ Fri, 06 Jul 2018 19:26:36 +0100
REM compiler GCC version 9.2.1 20190827 (Red Hat 9.2.1-1)
REM options -cpp -mtune=generic -march=x86-64 -g -O0 -fpre-include=/usr/include/finclude/math-vector-fortran.h
REM seed -1546445780 897415546 343912778 1107140246 1485075111 2082345859 -1959212239 787536166 -1812069837 942451672 -1806601551 288059425 1942050624 218785974 1295278471 1251290824 1798114612 -724911773 -1854313336 -1216518988 1216472138 822493014 2027896393 -13413091 781912377 1431942268 -1294815614 -1923885136 -1713536009 -452971239 -1200046030 -727963846 -1174293851
REM
CELL 1.54180   15.00000   15.00000   15.00000   90.00000   90.00000   90.00000
LATT -1
SFAC C  
C      1  0.2300670000000  0.5234330000000  0.4757830000000 1.0
C      1  0.2681570000000  0.5209890000000  0.6403570000000 1.0
C      1  0.3949160000000  0.5237730000000  0.7480500000000 1.0
C      1  0.5602290000000  0.5219930000000  0.7646120000000 1.0
C      1  0.7022790000000  0.5181620000000  0.6760200000000 1.0
C      1  0.7699620000000  0.5232730000000  0.5241710000000 1.0
C      1  0.7318510000000  0.5209410000000  0.3597150000000 1.0
C      1  0.6050210000000  0.5236820000000  0.2520120000000 1.0
C      1  0.4396880000000  0.5218370000000  0.2352380000000 1.0
C      1  0.2975220000000  0.5180990000000  0.3240590000000 1.0
C      1  0.5289740000000  0.3745680000000  0.6726190000000 1.0
C      1  0.6302960000000  0.3596560000000  0.6217130000000 1.0
C      1  0.6741530000000  0.3631830000000  0.5366830000000 1.0
C      1  0.6478170000000  0.3734700000000  0.4102160000000 1.0
C      1  0.5763440000000  0.3615680000000  0.3344980000000 1.0
C      1  0.4710490000000  0.3747020000000  0.3273070000000 1.0
C      1  0.3698110000000  0.3597620000000  0.3782860000000 1.0
C      1  0.3258680000000  0.3631490000000  0.4633190000000 1.0
C      1  0.3522920000000  0.3736180000000  0.5898260000000 1.0
C      1  0.4235980000000  0.3615810000000  0.6656000000000 1.0
C      1  0.6616860000000  0.5691890000000  0.3129590000000 1.0
C      1  0.5212830000000  0.5755700000000  0.2567790000000 1.0
C      1  0.3733760000000  0.5703870000000  0.2902210000000 1.0
C      1  0.2716100000000  0.5746920000000  0.4019720000000 1.0
C      1  0.2646180000000  0.5740540000000  0.5531910000000 1.0
C      1  0.3382340000000  0.5691370000000  0.6872970000000 1.0
C      1  0.4785090000000  0.5755800000000  0.7431820000000 1.0
C      1  0.6265670000000  0.5704410000000  0.7096560000000 1.0
C      1  0.7282650000000  0.5746030000000  0.5979560000000 1.0
C      1  0.7352650000000  0.5739970000000  0.4467970000000 1.0
C      1  0.3150750000000  0.4262290000000  0.3452710000000 1.0
C      1  0.2512210000000  0.4223340000000  0.4732430000000 1.0
C      1  0.2755970000000  0.4232300000000  0.6317660000000 1.0
C      1  0.3986890000000  0.4220590000000  0.7348360000000 1.0
C      1  0.5550780000000  0.4241370000000  0.7562060000000 1.0
C      1  0.6848230000000  0.4262100000000  0.6547570000000 1.0
C      1  0.7488960000000  0.4223020000000  0.5267470000000 1.0
C      1  0.7244360000000  0.4231810000000  0.3682080000000 1.0
C      1  0.6012640000000  0.4221360000000  0.2651120000000 1.0
C      1  0.4448640000000  0.4239160000000  0.2435460000000 1.0
C      1  0.6606110000000  0.6289550000000  0.4687710000000 1.0
C      1  0.5971050000000  0.6110980000000  0.3835770000000 1.0
C      1  0.5075070000000  0.6330330000000  0.3331270000000 1.0
C      1  0.4145400000000  0.6296670000000  0.3564350000000 1.0
C      1  0.3478780000000  0.6332170000000  0.4348110000000 1.0
C      1  0.3392920000000  0.6289990000000  0.5314440000000 1.0
C      1  0.4029200000000  0.6109850000000  0.6163900000000 1.0
C      1  0.4923960000000  0.6328450000000  0.6670810000000 1.0
C      1  0.5854260000000  0.6297040000000  0.6437380000000 1.0
C      1  0.6519510000000  0.6333430000000  0.5653610000000 1.0
C      1  0.4261630000000  0.4886690000000  0.4176450000000 1.0
C      1  0.3639500000000  0.5027230000000  0.4665960000000 1.0
C      1  0.3856460000000  0.4574950000000  0.5478050000000 1.0
C      1  0.4345670000000  0.5189920000000  0.5956590000000 1.0
C      1  0.5105260000000  0.4741120000000  0.6317870000000 1.0
C      1  0.5739450000000  0.4884650000000  0.5822300000000 1.0
C      1  0.6360550000000  0.5026940000000  0.5334560000000 1.0
C      1  0.6146320000000  0.4574140000000  0.4519770000000 1.0
C      1  0.5660560000000  0.5188380000000  0.4037350000000 1.0
C      1  0.4895840000000  0.4739290000000  0.3685880000000 1.0
END
