TITL C-1525613-7943-7695 -0.0201255284907748 3375 -9421.90394864176 0 0 60 (C1) n - 1
REM
REM in /home/nfs/bkarasulu/CARBON/AIRSS/Generating-Clusters/ReaxFF-fromJPCA2015/Units_Real/Try2-Higher-symm/Only-C60
REM
REM
REM
REM
REM
REM ./C.cell (863b2abdce7293c0672fb3ba77bf323a)
REM AIRSS Version 0.9.1 bugfix July 2018 build 013d7b7c2542+ Fri, 06 Jul 2018 19:26:36 +0100
REM compiler GCC version 9.2.1 20190827 (Red Hat 9.2.1-1)
REM options -cpp -mtune=generic -march=x86-64 -g -O0 -fpre-include=/usr/include/finclude/math-vector-fortran.h
REM seed 329156690 1418992152 777635924 1207171089 -336052151 -583275334 -1934920452 -678207489 147358667 -2139697098 2036189129 -500382905 519905224 895332879 -880132512 -785611162 293756049 587414540 -510418577 1377768033 1683089142 -716913631 -1365602098 -1110723482 413705809 547261513 -574042585 -1276387953 1958645236 -1947664179 -820354889 -2032683134 330062016
REM
CELL 1.54180   15.00000   15.00000   15.00000   90.00000   90.00000   90.00000
LATT -1
SFAC C  
C      1  0.4127120000000  0.6289460000000  0.3520450000000 1.0
C      1  0.3525100000000  0.5532190000000  0.3517390000000 1.0
C      1  0.3466350000000  0.4565650000000  0.3499280000000 1.0
C      1  0.3997290000000  0.3759120000000  0.3475790000000 1.0
C      1  0.4918960000000  0.3459450000000  0.3459140000000 1.0
C      1  0.5826880000000  0.3721720000000  0.3276890000000 1.0
C      1  0.6417890000000  0.4472100000000  0.3295410000000 1.0
C      1  0.6464930000000  0.5412280000000  0.3467880000000 1.0
C      1  0.5960210000000  0.6238150000000  0.3481080000000 1.0
C      1  0.5053140000000  0.6570440000000  0.3499100000000 1.0
C      1  0.4298890000000  0.7522440000000  0.5490940000000 1.0
C      1  0.2941190000000  0.6623170000000  0.5491580000000 1.0
C      1  0.2386350000000  0.5092570000000  0.5493470000000 1.0
C      1  0.2832850000000  0.3525020000000  0.5489570000000 1.0
C      1  0.4159770000000  0.2575800000000  0.5489230000000 1.0
C      1  0.5816880000000  0.2638550000000  0.5471650000000 1.0
C      1  0.7129460000000  0.3528240000000  0.5915480000000 1.0
C      1  0.7556820000000  0.4756210000000  0.5537550000000 1.0
C      1  0.7156160000000  0.6377280000000  0.5483520000000 1.0
C      1  0.5925630000000  0.7448410000000  0.5482570000000 1.0
C      1  0.3708710000000  0.6949140000000  0.5934270000000 1.0
C      1  0.2809540000000  0.5799740000000  0.5932860000000 1.0
C      1  0.2746810000000  0.4353980000000  0.5934090000000 1.0
C      1  0.3574580000000  0.3145180000000  0.5936330000000 1.0
C      1  0.4978470000000  0.2728190000000  0.5900920000000 1.0
C      1  0.6358030000000  0.3127950000000  0.6071530000000 1.0
C      1  0.7328800000000  0.4207210000000  0.6255920000000 1.0
C      1  0.7191530000000  0.5549000000000  0.5898670000000 1.0
C      1  0.6465190000000  0.6813470000000  0.5929610000000 1.0
C      1  0.5102440000000  0.7348870000000  0.5935010000000 1.0
C      1  0.2929620000000  0.6622470000000  0.4504290000000 1.0
C      1  0.2363280000000  0.5090210000000  0.4510720000000 1.0
C      1  0.2820310000000  0.3519810000000  0.4504100000000 1.0
C      1  0.4153480000000  0.2565930000000  0.4516100000000 1.0
C      1  0.5851950000000  0.2633440000000  0.4484390000000 1.0
C      1  0.6895720000000  0.3470380000000  0.4314980000000 1.0
C      1  0.7459140000000  0.4690460000000  0.4535500000000 1.0
C      1  0.7163270000000  0.6375100000000  0.4511770000000 1.0
C      1  0.5922490000000  0.7447880000000  0.4497070000000 1.0
C      1  0.4291180000000  0.7528540000000  0.4507510000000 1.0
C      1  0.3490570000000  0.4571270000000  0.6489700000000 1.0
C      1  0.4019010000000  0.3763440000000  0.6510680000000 1.0
C      1  0.4938380000000  0.3459700000000  0.6517710000000 1.0
C      1  0.5850140000000  0.3731780000000  0.6619270000000 1.0
C      1  0.6493600000000  0.4457650000000  0.6707390000000 1.0
C      1  0.6473610000000  0.5412660000000  0.6499260000000 1.0
C      1  0.5970330000000  0.6238040000000  0.6507790000000 1.0
C      1  0.5065200000000  0.6577910000000  0.6494520000000 1.0
C      1  0.4139020000000  0.6300090000000  0.6481950000000 1.0
C      1  0.3544330000000  0.5537000000000  0.6477720000000 1.0
C      1  0.3557820000000  0.3142990000000  0.4051080000000 1.0
C      1  0.4988250000000  0.2736030000000  0.4084010000000 1.0
C      1  0.6311090000000  0.3097550000000  0.3852830000000 1.0
C      1  0.7130330000000  0.4138190000000  0.3883990000000 1.0
C      1  0.7182460000000  0.5509560000000  0.4102730000000 1.0
C      1  0.6459120000000  0.6812920000000  0.4048510000000 1.0
C      1  0.5098210000000  0.7347010000000  0.4048570000000 1.0
C      1  0.3696160000000  0.6943390000000  0.4058370000000 1.0
C      1  0.2790840000000  0.5803530000000  0.4057000000000 1.0
C      1  0.2725110000000  0.4344090000000  0.4053280000000 1.0
END
