TITL C-1525613-7943-5959 -2.75845928926281e-05 3375 -8934.561913897 0 0 60 (C5) n - 1
REM
REM in /home/nfs/bkarasulu/CARBON/AIRSS/Generating-Clusters/ReaxFF-fromJPCA2015/Units_Real/Try2-Higher-symm/Only-C60
REM
REM
REM
REM
REM
REM ./C.cell (863b2abdce7293c0672fb3ba77bf323a)
REM AIRSS Version 0.9.1 bugfix July 2018 build 013d7b7c2542+ Fri, 06 Jul 2018 19:26:36 +0100
REM compiler GCC version 9.2.1 20190827 (Red Hat 9.2.1-1)
REM options -cpp -mtune=generic -march=x86-64 -g -O0 -fpre-include=/usr/include/finclude/math-vector-fortran.h
REM seed -1999948975 -411314698 -1754454433 -401756630 -2142478978 -825956505 1241031779 -1000368386 -1625229409 160295502 1542875655 388484496 1340073232 51779961 1464213085 783158850 -772640854 1208620248 -78386904 -1734563797 659474310 -809826026 1684249956 -1320757738 410765513 -595613886 1088092464 1394829852 577782627 -1673966617 562622373 -436589234 1944656342
REM
CELL 1.54180   15.00000   15.00000   15.00000   90.00000   90.00000   90.00000
LATT -1
SFAC C  
C      1  0.5750470000000  0.5258970000000  0.4265750000000 1.0
C      1  0.5478210000000  0.4366290000000  0.4265750000000 1.0
C      1  0.4545080000000  0.4349370000000  0.4265750000000 1.0
C      1  0.4240640000000  0.5231600000000  0.4265750000000 1.0
C      1  0.4985610000000  0.5793770000000  0.4265750000000 1.0
C      1  0.5750470000000  0.5258970000000  0.5734250000000 1.0
C      1  0.5478210000000  0.4366290000000  0.5734250000000 1.0
C      1  0.4545080000000  0.4349370000000  0.5734250000000 1.0
C      1  0.4240640000000  0.5231600000000  0.5734250000000 1.0
C      1  0.4985610000000  0.5793770000000  0.5734250000000 1.0
C      1  0.3296660000000  0.5554510000000  0.5548260000000 1.0
C      1  0.5001010000000  0.6791320000000  0.5548260000000 1.0
C      1  0.6703960000000  0.5552590000000  0.5548260000000 1.0
C      1  0.6052090000000  0.3550200000000  0.5548260000000 1.0
C      1  0.3946270000000  0.3551390000000  0.5548260000000 1.0
C      1  0.3296660000000  0.5554510000000  0.4451740000000 1.0
C      1  0.5001010000000  0.6791320000000  0.4451740000000 1.0
C      1  0.6703960000000  0.5552590000000  0.4451740000000 1.0
C      1  0.6052090000000  0.3550200000000  0.4451740000000 1.0
C      1  0.3946270000000  0.3551390000000  0.4451740000000 1.0
C      1  0.3153550000000  0.4005220000000  0.6088910000000 1.0
C      1  0.3483320000000  0.6448670000000  0.6088910000000 1.0
C      1  0.5909090000000  0.6890110000000  0.6088910000000 1.0
C      1  0.7078530000000  0.4719480000000  0.6088910000000 1.0
C      1  0.5375510000000  0.2936520000000  0.6088910000000 1.0
C      1  0.3153550000000  0.4005220000000  0.3911090000000 1.0
C      1  0.3483320000000  0.6448670000000  0.3911090000000 1.0
C      1  0.5909090000000  0.6890110000000  0.3911090000000 1.0
C      1  0.7078530000000  0.4719480000000  0.3911090000000 1.0
C      1  0.5375510000000  0.2936520000000  0.3911090000000 1.0
C      1  0.2790850000000  0.4684200000000  0.5482110000000 1.0
C      1  0.4017000000000  0.7003440000000  0.5482110000000 1.0
C      1  0.6601620000000  0.6553990000000  0.5482110000000 1.0
C      1  0.6972860000000  0.3956980000000  0.5482110000000 1.0
C      1  0.4617680000000  0.2801390000000  0.5482110000000 1.0
C      1  0.2790850000000  0.4684200000000  0.4517890000000 1.0
C      1  0.4017000000000  0.7003440000000  0.4517890000000 1.0
C      1  0.6601620000000  0.6553990000000  0.4517890000000 1.0
C      1  0.6972860000000  0.3956980000000  0.4517890000000 1.0
C      1  0.4617680000000  0.2801390000000  0.4517890000000 1.0
C      1  0.4227480000000  0.4619870000000  0.2555630000000 1.0
C      1  0.4399750000000  0.5617240000000  0.2555630000000 1.0
C      1  0.5401550000000  0.5761610000000  0.2555630000000 1.0
C      1  0.5848420000000  0.4853460000000  0.2555630000000 1.0
C      1  0.5122800000000  0.4147820000000  0.2555630000000 1.0
C      1  0.4227480000000  0.4619870000000  0.7444370000000 1.0
C      1  0.4399750000000  0.5617240000000  0.7444370000000 1.0
C      1  0.5401550000000  0.5761610000000  0.7444370000000 1.0
C      1  0.5848420000000  0.4853460000000  0.7444370000000 1.0
C      1  0.5122800000000  0.4147820000000  0.7444370000000 1.0
C      1  0.6541820000000  0.4748830000000  0.6839990000000 1.0
C      1  0.5237570000000  0.3456030000000  0.6839990000000 1.0
C      1  0.3605010000000  0.4296940000000  0.6839990000000 1.0
C      1  0.3900280000000  0.6109460000000  0.6839990000000 1.0
C      1  0.5715320000000  0.6388740000000  0.6839990000000 1.0
C      1  0.6541820000000  0.4748830000000  0.3160010000000 1.0
C      1  0.5237570000000  0.3456030000000  0.3160010000000 1.0
C      1  0.3605010000000  0.4296940000000  0.3160010000000 1.0
C      1  0.3900280000000  0.6109460000000  0.3160010000000 1.0
C      1  0.5715320000000  0.6388740000000  0.3160010000000 1.0
END
