TITL C-1525613-7943-450 0.0328461235122986 3375 -9362.48018498842 0 0 60 (C1) n - 1
REM
REM in /home/nfs/bkarasulu/CARBON/AIRSS/Generating-Clusters/ReaxFF-fromJPCA2015/Units_Real/Try2-Higher-symm/Only-C60
REM
REM
REM
REM
REM
REM ./C.cell (863b2abdce7293c0672fb3ba77bf323a)
REM AIRSS Version 0.9.1 bugfix July 2018 build 013d7b7c2542+ Fri, 06 Jul 2018 19:26:36 +0100
REM compiler GCC version 9.2.1 20190827 (Red Hat 9.2.1-1)
REM options -cpp -mtune=generic -march=x86-64 -g -O0 -fpre-include=/usr/include/finclude/math-vector-fortran.h
REM seed -1989704569 882453154 781151003 -1300437515 1057235215 -698336733 -747377067 -604611481 2042733256 1919603206 -925245735 -2299675 326353906 393429312 -1645502192 -1360884207 1604873768 137496431 901194518 -2050074739 2089126777 1341791693 -993296556 1216800865 -904581484 -467552596 182779120 1062672480 2055264004 1325368104 -268104963 -1626073850 817932913
REM
CELL 1.54180   15.00000   15.00000   15.00000   90.00000   90.00000   90.00000
LATT -1
SFAC C  
C      1  0.5297120000000  0.3131820000000  0.3186920000000 1.0
C      1  0.5293020000000  0.2665040000000  0.6226490000000 1.0
C      1  0.5295830000000  0.5442080000000  0.7593540000000 1.0
C      1  0.5300080000000  0.7590150000000  0.5373340000000 1.0
C      1  0.5316310000000  0.6149210000000  0.2661700000000 1.0
C      1  0.4701730000000  0.3123040000000  0.6819790000000 1.0
C      1  0.4695930000000  0.2699150000000  0.3784420000000 1.0
C      1  0.4720640000000  0.5447950000000  0.2404450000000 1.0
C      1  0.4705370000000  0.7611590000000  0.4624380000000 1.0
C      1  0.4704170000000  0.6149500000000  0.7342260000000 1.0
C      1  0.4798610000000  0.2447730000000  0.5434930000000 1.0
C      1  0.4800490000000  0.4621660000000  0.7551570000000 1.0
C      1  0.4801500000000  0.7312170000000  0.6130540000000 1.0
C      1  0.4815980000000  0.6796190000000  0.3158780000000 1.0
C      1  0.4810050000000  0.3807630000000  0.2717370000000 1.0
C      1  0.5187380000000  0.2458350000000  0.4569130000000 1.0
C      1  0.5211180000000  0.4624540000000  0.2436940000000 1.0
C      1  0.5203480000000  0.7317790000000  0.3856520000000 1.0
C      1  0.5201870000000  0.6783000000000  0.6818940000000 1.0
C      1  0.5190590000000  0.3803340000000  0.7272530000000 1.0
C      1  0.6710210000000  0.3594010000000  0.5736620000000 1.0
C      1  0.6708030000000  0.5277670000000  0.6544240000000 1.0
C      1  0.6641670000000  0.6561150000000  0.5233840000000 1.0
C      1  0.6628560000000  0.5683060000000  0.3614130000000 1.0
C      1  0.6633420000000  0.3869110000000  0.3900560000000 1.0
C      1  0.3340850000000  0.3601940000000  0.4264810000000 1.0
C      1  0.3295170000000  0.5273640000000  0.3433180000000 1.0
C      1  0.3280100000000  0.6580270000000  0.4776030000000 1.0
C      1  0.3345240000000  0.5700960000000  0.6419460000000 1.0
C      1  0.3349360000000  0.3867130000000  0.6106360000000 1.0
C      1  0.3384200000000  0.4723930000000  0.6546110000000 1.0
C      1  0.3371200000000  0.6386810000000  0.5741310000000 1.0
C      1  0.3389780000000  0.6127810000000  0.3926970000000 1.0
C      1  0.3387960000000  0.4327640000000  0.3595670000000 1.0
C      1  0.3393290000000  0.3449720000000  0.5216200000000 1.0
C      1  0.6627680000000  0.4720290000000  0.3468930000000 1.0
C      1  0.6607130000000  0.6360570000000  0.4288930000000 1.0
C      1  0.6568470000000  0.6122770000000  0.6062290000000 1.0
C      1  0.6610980000000  0.4329610000000  0.6390400000000 1.0
C      1  0.6622090000000  0.3447160000000  0.4787180000000 1.0
C      1  0.6200240000000  0.5665060000000  0.7299470000000 1.0
C      1  0.6171610000000  0.7368040000000  0.5096030000000 1.0
C      1  0.6170540000000  0.5804910000000  0.2789990000000 1.0
C      1  0.6153170000000  0.3129690000000  0.3555390000000 1.0
C      1  0.6205420000000  0.2992550000000  0.6344480000000 1.0
C      1  0.3805740000000  0.5661840000000  0.2674410000000 1.0
C      1  0.3787260000000  0.7425810000000  0.4905230000000 1.0
C      1  0.3846380000000  0.5797420000000  0.7233350000000 1.0
C      1  0.3845250000000  0.3121280000000  0.6451200000000 1.0
C      1  0.3839260000000  0.3049810000000  0.3662720000000 1.0
C      1  0.3882410000000  0.3717040000000  0.3003040000000 1.0
C      1  0.3882650000000  0.2702540000000  0.5615580000000 1.0
C      1  0.3882770000000  0.4874470000000  0.7373570000000 1.0
C      1  0.3862010000000  0.7236910000000  0.5861530000000 1.0
C      1  0.3876230000000  0.6511420000000  0.3151830000000 1.0
C      1  0.6128130000000  0.3714480000000  0.6998290000000 1.0
C      1  0.6122510000000  0.2690900000000  0.4395100000000 1.0
C      1  0.6146940000000  0.4863600000000  0.2620140000000 1.0
C      1  0.6139740000000  0.7215760000000  0.4147080000000 1.0
C      1  0.6105010000000  0.6469280000000  0.6803820000000 1.0
END
