TITL C-1525613-7943-4403 0.36476532361096 3375 -8076.50438210584 0 0 60 (C5) n - 1
REM
REM in /home/nfs/bkarasulu/CARBON/AIRSS/Generating-Clusters/ReaxFF-fromJPCA2015/Units_Real/Try2-Higher-symm/Only-C60
REM
REM
REM
REM
REM
REM ./C.cell (863b2abdce7293c0672fb3ba77bf323a)
REM AIRSS Version 0.9.1 bugfix July 2018 build 013d7b7c2542+ Fri, 06 Jul 2018 19:26:36 +0100
REM compiler GCC version 9.2.1 20190827 (Red Hat 9.2.1-1)
REM options -cpp -mtune=generic -march=x86-64 -g -O0 -fpre-include=/usr/include/finclude/math-vector-fortran.h
REM seed 1447914391 1283764565 1534273553 -62462346 549662264 190657522 -1687000149 -1175558031 -1012485955 738438974 -261558512 -1765115673 1888129072 -1525543397 -2094413040 2006274227 102356097 1652576398 -1183495334 1291644412 1376962622 359894875 -173612557 645000147 1182064770 -1169385818 -1141180423 1336963099 -1189694782 1781914706 1697161149 -1458991834 746827331
REM
CELL 1.54180   15.00000   15.00000   15.00000   90.00000   90.00000   90.00000
LATT -1
SFAC C  
C      1  0.4001560000000  0.2767720000000  0.4567450000000 1.0
C      1  0.2568330000000  0.5259710000000  0.4567630000000 1.0
C      1  0.4495740000000  0.7392740000000  0.4567300000000 1.0
C      1  0.7119830000000  0.6219070000000  0.4567270000000 1.0
C      1  0.6814460000000  0.3360600000000  0.4567410000000 1.0
C      1  0.5998420000000  0.2768030000000  0.4567450000000 1.0
C      1  0.7431270000000  0.5259890000000  0.4567620000000 1.0
C      1  0.5504190000000  0.7392570000000  0.4567280000000 1.0
C      1  0.2880380000000  0.6218760000000  0.4567260000000 1.0
C      1  0.3185780000000  0.3360720000000  0.4567400000000 1.0
C      1  0.6511290000000  0.5005880000000  0.4568050000000 1.0
C      1  0.5472770000000  0.3564500000000  0.4568000000000 1.0
C      1  0.3780910000000  0.4106710000000  0.4568010000000 1.0
C      1  0.3773880000000  0.5883570000000  0.4567910000000 1.0
C      1  0.5461260000000  0.6439230000000  0.4567860000000 1.0
C      1  0.3488640000000  0.5006170000000  0.4568060000000 1.0
C      1  0.4527010000000  0.3564570000000  0.4568000000000 1.0
C      1  0.6219050000000  0.4106600000000  0.4568000000000 1.0
C      1  0.6226450000000  0.5883320000000  0.4567900000000 1.0
C      1  0.4538760000000  0.6439180000000  0.4567880000000 1.0
C      1  0.3602720000000  0.7658060000000  0.4573400000000 1.0
C      1  0.7096000000000  0.7150200000000  0.4573430000000 1.0
C      1  0.7692740000000  0.3671070000000  0.4573330000000 1.0
C      1  0.4568090000000  0.2028310000000  0.4573330000000 1.0
C      1  0.2040190000000  0.4492540000000  0.4573360000000 1.0
C      1  0.6397230000000  0.7658060000000  0.4573400000000 1.0
C      1  0.2904020000000  0.7150220000000  0.4573430000000 1.0
C      1  0.2307290000000  0.3671040000000  0.4573330000000 1.0
C      1  0.5431920000000  0.2028340000000  0.4573330000000 1.0
C      1  0.7959820000000  0.4492510000000  0.4573360000000 1.0
C      1  0.4511540000000  0.6489170000000  0.6237480000000 1.0
C      1  0.6264960000000  0.5924970000000  0.6237280000000 1.0
C      1  0.6269960000000  0.4082420000000  0.6238470000000 1.0
C      1  0.4518510000000  0.3508860000000  0.6238450000000 1.0
C      1  0.3432180000000  0.4995950000000  0.6237100000000 1.0
C      1  0.5479050000000  0.6492810000000  0.6236620000000 1.0
C      1  0.3728920000000  0.5917490000000  0.6237310000000 1.0
C      1  0.3735840000000  0.4073120000000  0.6236790000000 1.0
C      1  0.5490850000000  0.3511430000000  0.6238040000000 1.0
C      1  0.6567740000000  0.5005590000000  0.6237400000000 1.0
C      1  0.3909240000000  0.5792520000000  0.2840190000000 1.0
C      1  0.5416730000000  0.6282290000000  0.2840180000000 1.0
C      1  0.6348510000000  0.4999940000000  0.2840210000000 1.0
C      1  0.5416570000000  0.3717550000000  0.2840200000000 1.0
C      1  0.3909280000000  0.4207650000000  0.2840210000000 1.0
C      1  0.6090760000000  0.5792520000000  0.2840190000000 1.0
C      1  0.4583270000000  0.6282290000000  0.2840180000000 1.0
C      1  0.3651490000000  0.4999940000000  0.2840210000000 1.0
C      1  0.4583430000000  0.3717550000000  0.2840200000000 1.0
C      1  0.6090720000000  0.4207650000000  0.2840210000000 1.0
C      1  0.3717290000000  0.4072060000000  0.7212840000000 1.0
C      1  0.3721470000000  0.5934270000000  0.7213240000000 1.0
C      1  0.5491720000000  0.6505320000000  0.7212610000000 1.0
C      1  0.6582830000000  0.4995530000000  0.7211860000000 1.0
C      1  0.5483900000000  0.3492070000000  0.7212020000000 1.0
C      1  0.6278850000000  0.4065150000000  0.7214130000000 1.0
C      1  0.6286140000000  0.5924940000000  0.7215560000000 1.0
C      1  0.4516520000000  0.6507960000000  0.7214880000000 1.0
C      1  0.3416380000000  0.5005540000000  0.7214400000000 1.0
C      1  0.4505340000000  0.3495540000000  0.7214120000000 1.0
END
