TITL C-1525613-7943-1212 0.187983183842513 3375 -8215.57078871685 0 0 60 (D5) n - 1
REM
REM in /home/nfs/bkarasulu/CARBON/AIRSS/Generating-Clusters/ReaxFF-fromJPCA2015/Units_Real/Try2-Higher-symm/Only-C60
REM
REM
REM
REM
REM
REM ./C.cell (863b2abdce7293c0672fb3ba77bf323a)
REM AIRSS Version 0.9.1 bugfix July 2018 build 013d7b7c2542+ Fri, 06 Jul 2018 19:26:36 +0100
REM compiler GCC version 9.2.1 20190827 (Red Hat 9.2.1-1)
REM options -cpp -mtune=generic -march=x86-64 -g -O0 -fpre-include=/usr/include/finclude/math-vector-fortran.h
REM seed 2044745872 1379938239 -926524276 -507735109 -1514795539 245349964 -837316197 1147934501 1876838695 1065589600 -1492438217 289823756 -1983419022 1583790735 663720050 1851799627 -1867245703 1582074532 951639155 1547157647 -702135520 -140330571 280224172 980294643 222174705 -1457371840 580852116 1943187484 -125054476 1541495818 1151336057 -1572730357 331809641
REM
CELL 1.54180   15.00000   15.00000   15.00000   90.00000   90.00000   90.00000
LATT -1
SFAC C  
C      1  0.6450590000000  0.6207230000000  0.3445010000000 1.0
C      1  0.6451220000000  0.6854020000000  0.5665440000000 1.0
C      1  0.6449210000000  0.4934320000000  0.6964500000000 1.0
C      1  0.6451830000000  0.3107500000000  0.5551770000000 1.0
C      1  0.6450420000000  0.3894170000000  0.3371600000000 1.0
C      1  0.3549410000000  0.3792770000000  0.3445010000000 1.0
C      1  0.3548780000000  0.3145980000000  0.5665440000000 1.0
C      1  0.3550780000000  0.5065670000000  0.6964500000000 1.0
C      1  0.3548170000000  0.6892500000000  0.5551770000000 1.0
C      1  0.3549580000000  0.6105830000000  0.3371590000000 1.0
C      1  0.5219340000000  0.7402410000000  0.4532840000000 1.0
C      1  0.5224510000000  0.6188310000000  0.7147030000000 1.0
C      1  0.5217700000000  0.3335550000000  0.6785750000000 1.0
C      1  0.5222750000000  0.2781830000000  0.3964680000000 1.0
C      1  0.5220700000000  0.5299720000000  0.2566830000000 1.0
C      1  0.4780660000000  0.2597590000000  0.4532840000000 1.0
C      1  0.4775490000000  0.3811700000000  0.7147030000000 1.0
C      1  0.4782300000000  0.6664460000000  0.6785750000000 1.0
C      1  0.4777250000000  0.7218170000000  0.3964680000000 1.0
C      1  0.4779300000000  0.4700280000000  0.2566830000000 1.0
C      1  0.7063860000000  0.4614160000000  0.3524060000000 1.0
C      1  0.7062570000000  0.6286540000000  0.4175610000000 1.0
C      1  0.7058770000000  0.6181780000000  0.5965700000000 1.0
C      1  0.7063530000000  0.4441720000000  0.6421880000000 1.0
C      1  0.7060570000000  0.3474340000000  0.4914500000000 1.0
C      1  0.2936140000000  0.5385840000000  0.3524060000000 1.0
C      1  0.2937430000000  0.3713460000000  0.4175610000000 1.0
C      1  0.2941230000000  0.3818220000000  0.5965700000000 1.0
C      1  0.2936470000000  0.5558280000000  0.6421880000000 1.0
C      1  0.2939430000000  0.6525660000000  0.4914500000000 1.0
C      1  0.5531990000000  0.3366850000000  0.5810480000000 1.0
C      1  0.5530430000000  0.3725310000000  0.3696060000000 1.0
C      1  0.5531260000000  0.5846810000000  0.3385300000000 1.0
C      1  0.5529840000000  0.6799060000000  0.5305120000000 1.0
C      1  0.5527420000000  0.5266650000000  0.6805150000000 1.0
C      1  0.4468010000000  0.6633150000000  0.5810480000000 1.0
C      1  0.4469570000000  0.6274690000000  0.3696060000000 1.0
C      1  0.4468740000000  0.4153190000000  0.3385300000000 1.0
C      1  0.4470160000000  0.3200930000000  0.5305120000000 1.0
C      1  0.4472570000000  0.4733350000000  0.6805150000000 1.0
C      1  0.2874620000000  0.6290910000000  0.5820130000000 1.0
C      1  0.2876440000000  0.4619710000000  0.6474200000000 1.0
C      1  0.2874400000000  0.3474800000000  0.5094390000000 1.0
C      1  0.2874730000000  0.4437900000000  0.3582370000000 1.0
C      1  0.2874770000000  0.6176000000000  0.4031150000000 1.0
C      1  0.7125380000000  0.3709090000000  0.5820130000000 1.0
C      1  0.7123560000000  0.5380290000000  0.6474200000000 1.0
C      1  0.7125600000000  0.6525210000000  0.5094390000000 1.0
C      1  0.7125270000000  0.5562100000000  0.3582370000000 1.0
C      1  0.7125230000000  0.3824000000000  0.4031150000000 1.0
C      1  0.4309680000000  0.4842290000000  0.5791250000000 1.0
C      1  0.4314340000000  0.4198900000000  0.5095850000000 1.0
C      1  0.4317060000000  0.4659680000000  0.4269300000000 1.0
C      1  0.4317640000000  0.5586120000000  0.4451940000000 1.0
C      1  0.4316390000000  0.5700680000000  0.5390120000000 1.0
C      1  0.5690320000000  0.5157710000000  0.5791260000000 1.0
C      1  0.5685660000000  0.5801100000000  0.5095850000000 1.0
C      1  0.5682940000000  0.5340320000000  0.4269300000000 1.0
C      1  0.5682360000000  0.4413880000000  0.4451940000000 1.0
C      1  0.5683610000000  0.4299320000000  0.5390120000000 1.0
END
