TITL C-1525613-7943-7652 0.0141423451510024 3375 -9517.74695002693 0 0 60 (Ci) n - 1
REM
REM in /home/nfs/bkarasulu/CARBON/AIRSS/Generating-Clusters/ReaxFF-fromJPCA2015/Units_Real/Try2-Higher-symm/Only-C60
REM
REM
REM
REM
REM
REM ./C.cell (863b2abdce7293c0672fb3ba77bf323a)
REM AIRSS Version 0.9.1 bugfix July 2018 build 013d7b7c2542+ Fri, 06 Jul 2018 19:26:36 +0100
REM compiler GCC version 9.2.1 20190827 (Red Hat 9.2.1-1)
REM options -cpp -mtune=generic -march=x86-64 -g -O0 -fpre-include=/usr/include/finclude/math-vector-fortran.h
REM seed 1638937579 1745979982 918089361 -30198489 -2131723803 -1698392725 -1245322503 1052697281 -35262331 -1996582560 -698882690 -33373442 1930732867 2038676335 910037253 1663190607 -159855076 1364331625 1570520829 1192977942 -1658113141 -982734987 -1720585005 -2045011553 -412973438 -1543943014 813530738 -2024404033 681630997 683115800 2021766561 -2125322434 -1115284199
REM
CELL 1.54180   15.00000   15.00000   15.00000   90.00000   90.00000   90.00000
LATT -1
SFAC C  
C      1  0.4596080000000  0.5249230000000  0.7328150000000 1.0
C      1  0.4591460000000  0.2855800000000  0.5961170000000 1.0
C      1  0.4591490000000  0.3425850000000  0.3267170000000 1.0
C      1  0.4602240000000  0.6154540000000  0.2957170000000 1.0
C      1  0.4600760000000  0.7315980000000  0.5481820000000 1.0
C      1  0.4593830000000  0.5248320000000  0.2668740000000 1.0
C      1  0.4590270000000  0.2861210000000  0.4044440000000 1.0
C      1  0.4592450000000  0.3425660000000  0.6733050000000 1.0
C      1  0.4602760000000  0.6157020000000  0.7043260000000 1.0
C      1  0.4600180000000  0.7315870000000  0.4519200000000 1.0
C      1  0.3756120000000  0.7096690000000  0.5919700000000 1.0
C      1  0.3796370000000  0.4767350000000  0.7219250000000 1.0
C      1  0.3780580000000  0.2794340000000  0.5466850000000 1.0
C      1  0.3792690000000  0.3887130000000  0.3065370000000 1.0
C      1  0.3760970000000  0.6508750000000  0.3298790000000 1.0
C      1  0.3755130000000  0.7094160000000  0.4083660000000 1.0
C      1  0.3793130000000  0.4767130000000  0.2769680000000 1.0
C      1  0.3786140000000  0.2803280000000  0.4537470000000 1.0
C      1  0.3794230000000  0.3887490000000  0.6926550000000 1.0
C      1  0.3760520000000  0.6513340000000  0.6705760000000 1.0
C      1  0.3110150000000  0.5007380000000  0.6570590000000 1.0
C      1  0.3101740000000  0.3492260000000  0.5493230000000 1.0
C      1  0.3122200000000  0.4067570000000  0.3728620000000 1.0
C      1  0.3081950000000  0.5925270000000  0.3718480000000 1.0
C      1  0.3075310000000  0.6516600000000  0.5486550000000 1.0
C      1  0.3106810000000  0.5005300000000  0.3423380000000 1.0
C      1  0.3114930000000  0.3499660000000  0.4503940000000 1.0
C      1  0.3118980000000  0.4069950000000  0.6264820000000 1.0
C      1  0.3078480000000  0.5932030000000  0.6288270000000 1.0
C      1  0.3076710000000  0.6512960000000  0.4518450000000 1.0
C      1  0.6214500000000  0.7174690000000  0.5463700000000 1.0
C      1  0.6217970000000  0.5231590000000  0.7226290000000 1.0
C      1  0.6215330000000  0.2956680000000  0.5909310000000 1.0
C      1  0.6215910000000  0.3498610000000  0.3338740000000 1.0
C      1  0.6211010000000  0.6111850000000  0.3069910000000 1.0
C      1  0.6214700000000  0.7175930000000  0.4535930000000 1.0
C      1  0.6216880000000  0.5232570000000  0.2775180000000 1.0
C      1  0.6216960000000  0.2955190000000  0.4090690000000 1.0
C      1  0.6217630000000  0.3497510000000  0.6663030000000 1.0
C      1  0.6211260000000  0.6110360000000  0.6929200000000 1.0
C      1  0.5410590000000  0.2711110000000  0.5482340000000 1.0
C      1  0.5408990000000  0.3829620000000  0.2971860000000 1.0
C      1  0.5409510000000  0.6555480000000  0.3271370000000 1.0
C      1  0.5412870000000  0.7121850000000  0.5961830000000 1.0
C      1  0.5407000000000  0.4744330000000  0.7330570000000 1.0
C      1  0.5410090000000  0.2710390000000  0.4524400000000 1.0
C      1  0.5408020000000  0.3828910000000  0.7030600000000 1.0
C      1  0.5410600000000  0.6556000000000  0.6727920000000 1.0
C      1  0.5411730000000  0.7122540000000  0.4037380000000 1.0
C      1  0.5406040000000  0.4744220000000  0.2670520000000 1.0
C      1  0.6907510000000  0.6498090000000  0.5494450000000 1.0
C      1  0.6901880000000  0.4990550000000  0.6582470000000 1.0
C      1  0.6899420000000  0.3494520000000  0.5481030000000 1.0
C      1  0.6901430000000  0.4073710000000  0.3715490000000 1.0
C      1  0.6903300000000  0.5930390000000  0.3725950000000 1.0
C      1  0.6908080000000  0.6499040000000  0.4505050000000 1.0
C      1  0.6900150000000  0.4991460000000  0.3418000000000 1.0
C      1  0.6902060000000  0.3493560000000  0.4517130000000 1.0
C      1  0.6901850000000  0.4072390000000  0.6283270000000 1.0
C      1  0.6902080000000  0.5928750000000  0.6272830000000 1.0
END
