TITL C-1525613-7943-4449 1.59759217183886e-05 3375 -9639.63177924281 0 0 60 (D5h) n - 1
REM
REM in /home/nfs/bkarasulu/CARBON/AIRSS/Generating-Clusters/ReaxFF-fromJPCA2015/Units_Real/Try2-Higher-symm/Only-C60
REM
REM
REM
REM
REM
REM ./C.cell (863b2abdce7293c0672fb3ba77bf323a)
REM AIRSS Version 0.9.1 bugfix July 2018 build 013d7b7c2542+ Fri, 06 Jul 2018 19:26:36 +0100
REM compiler GCC version 9.2.1 20190827 (Red Hat 9.2.1-1)
REM options -cpp -mtune=generic -march=x86-64 -g -O0 -fpre-include=/usr/include/finclude/math-vector-fortran.h
REM seed 972221436 -361725072 -463842512 -1049095685 -690417082 1573394277 -8535122 1923148781 -408865460 1160071400 -1811519318 1790044240 -11864801 864242001 1694922277 -1486277192 -1374749341 -918498930 1474387141 -1133079237 -1380199654 -1395843333 -1983836988 1819083188 -655072594 622798702 339908023 -769322677 1351178577 -1732898906 986650203 -965608343 -1575239833
REM
CELL 1.54180   15.00000   15.00000   15.00000   90.00000   90.00000   90.00000
LATT -1
SFAC C  
C      1  0.4505350000000  0.7585160000000  0.4506480000000 1.0
C      1  0.4505660000000  0.5329530000000  0.2388720000000 1.0
C      1  0.4505410000000  0.2618510000000  0.3879600000000 1.0
C      1  0.4504870000000  0.3198590000000  0.6918470000000 1.0
C      1  0.4504850000000  0.6268010000000  0.7306010000000 1.0
C      1  0.5494670000000  0.7585150000000  0.5493530000000 1.0
C      1  0.5494340000000  0.5329530000000  0.7611310000000 1.0
C      1  0.5494560000000  0.2618500000000  0.6120410000000 1.0
C      1  0.5495110000000  0.3198620000000  0.3081540000000 1.0
C      1  0.5495170000000  0.6268020000000  0.2694010000000 1.0
C      1  0.3411720000000  0.5497370000000  0.3468870000000 1.0
C      1  0.3411780000000  0.3697950000000  0.4053720000000 1.0
C      1  0.3411490000000  0.3697960000000  0.5945640000000 1.0
C      1  0.3411340000000  0.5497340000000  0.6530500000000 1.0
C      1  0.3411490000000  0.6609650000000  0.4999740000000 1.0
C      1  0.6588240000000  0.5497350000000  0.6531100000000 1.0
C      1  0.6588160000000  0.3697960000000  0.5946260000000 1.0
C      1  0.6588510000000  0.3697940000000  0.4054360000000 1.0
C      1  0.6588730000000  0.5497350000000  0.3469460000000 1.0
C      1  0.6588540000000  0.6609640000000  0.5000270000000 1.0
C      1  0.4505040000000  0.2618520000000  0.6120180000000 1.0
C      1  0.4504780000000  0.5329540000000  0.7611110000000 1.0
C      1  0.4505110000000  0.7585190000000  0.5493300000000 1.0
C      1  0.4505600000000  0.6268020000000  0.2693810000000 1.0
C      1  0.4505590000000  0.3198640000000  0.3081340000000 1.0
C      1  0.5494950000000  0.2618520000000  0.3879830000000 1.0
C      1  0.5495230000000  0.5329530000000  0.2388920000000 1.0
C      1  0.5494910000000  0.7585180000000  0.4506710000000 1.0
C      1  0.5494400000000  0.6268010000000  0.7306210000000 1.0
C      1  0.5494390000000  0.3198600000000  0.6918680000000 1.0
C      1  0.6144430000000  0.6920730000000  0.4200670000000 1.0
C      1  0.6144590000000  0.4833120000000  0.2926410000000 1.0
C      1  0.6144260000000  0.2976210000000  0.4518140000000 1.0
C      1  0.6143770000000  0.3916190000000  0.6775860000000 1.0
C      1  0.6143930000000  0.6353840000000  0.6579740000000 1.0
C      1  0.3855600000000  0.6920740000000  0.5799350000000 1.0
C      1  0.3855440000000  0.4833120000000  0.7073580000000 1.0
C      1  0.3855740000000  0.2976240000000  0.5481850000000 1.0
C      1  0.3856180000000  0.3916210000000  0.3224130000000 1.0
C      1  0.3856060000000  0.6353860000000  0.3420260000000 1.0
C      1  0.3855870000000  0.2976220000000  0.4517670000000 1.0
C      1  0.3855550000000  0.3916190000000  0.6775420000000 1.0
C      1  0.3855590000000  0.6353850000000  0.6579300000000 1.0
C      1  0.3855970000000  0.6920630000000  0.4200290000000 1.0
C      1  0.3856110000000  0.4833150000000  0.2926000000000 1.0
C      1  0.6144100000000  0.2976210000000  0.5482320000000 1.0
C      1  0.6144440000000  0.3916200000000  0.3224600000000 1.0
C      1  0.6144450000000  0.6353850000000  0.3420700000000 1.0
C      1  0.6144040000000  0.6920620000000  0.5799710000000 1.0
C      1  0.6143860000000  0.4833130000000  0.7073980000000 1.0
C      1  0.2907110000000  0.5801630000000  0.4999640000000 1.0
C      1  0.2907200000000  0.5247680000000  0.4237210000000 1.0
C      1  0.2907230000000  0.4351500000000  0.4528480000000 1.0
C      1  0.2907120000000  0.4351490000000  0.5470730000000 1.0
C      1  0.2907050000000  0.5247640000000  0.5762020000000 1.0
C      1  0.7092920000000  0.5801620000000  0.5000370000000 1.0
C      1  0.7092770000000  0.5247670000000  0.5762770000000 1.0
C      1  0.7092720000000  0.4351490000000  0.5471500000000 1.0
C      1  0.7092880000000  0.4351460000000  0.4529260000000 1.0
C      1  0.7093020000000  0.5247620000000  0.4237970000000 1.0
END
