TITL C-1525613-7943-7383 0.000517207331741458 3375 -9501.01397983522 0 0 60 (C2) n - 1
REM
REM in /home/nfs/bkarasulu/CARBON/AIRSS/Generating-Clusters/ReaxFF-fromJPCA2015/Units_Real/Try2-Higher-symm/Only-C60
REM
REM
REM
REM
REM
REM ./C.cell (863b2abdce7293c0672fb3ba77bf323a)
REM AIRSS Version 0.9.1 bugfix July 2018 build 013d7b7c2542+ Fri, 06 Jul 2018 19:26:36 +0100
REM compiler GCC version 9.2.1 20190827 (Red Hat 9.2.1-1)
REM options -cpp -mtune=generic -march=x86-64 -g -O0 -fpre-include=/usr/include/finclude/math-vector-fortran.h
REM seed -141974328 338281247 1432626177 -2141420401 809009152 1532951219 889865573 548433154 1994241018 873926132 -256141861 -751590072 -174502531 -634138834 -161529878 1451451676 91255320 -1406273299 -860165378 523071845 24068809 -1167623099 -775705556 667345189 -1021405402 489770743 619242933 1281512778 -1054732015 688695085 -381687019 1912591658 -328711335
REM
CELL 1.54180   15.00000   15.00000   15.00000   90.00000   90.00000   90.00000
LATT -1
SFAC C  
C      1  0.4109500000000  0.5379620000000  0.7411910000000 1.0
C      1  0.3279280000000  0.5437150000000  0.6929420000000 1.0
C      1  0.2452990000000  0.5566270000000  0.4847510000000 1.0
C      1  0.2966190000000  0.5221960000000  0.3273750000000 1.0
C      1  0.3730830000000  0.5264270000000  0.2695070000000 1.0
C      1  0.5894500000000  0.5375120000000  0.2598790000000 1.0
C      1  0.6721040000000  0.5427180000000  0.3090350000000 1.0
C      1  0.7564660000000  0.5592390000000  0.5155930000000 1.0
C      1  0.7031890000000  0.5216130000000  0.6712850000000 1.0
C      1  0.6270780000000  0.5260220000000  0.7296810000000 1.0
C      1  0.7098800000000  0.5836110000000  0.5971510000000 1.0
C      1  0.5694910000000  0.5991120000000  0.7195560000000 1.0
C      1  0.4764460000000  0.6050590000000  0.7263290000000 1.0
C      1  0.3126540000000  0.6213050000000  0.6359430000000 1.0
C      1  0.2691260000000  0.6275140000000  0.5474260000000 1.0
C      1  0.2906400000000  0.5824780000000  0.4028470000000 1.0
C      1  0.4308460000000  0.5992240000000  0.2801620000000 1.0
C      1  0.5239550000000  0.6048700000000  0.2739250000000 1.0
C      1  0.6875730000000  0.6213820000000  0.3646970000000 1.0
C      1  0.7317200000000  0.6296850000000  0.4526710000000 1.0
C      1  0.6522160000000  0.3768710000000  0.6917580000000 1.0
C      1  0.5131680000000  0.4044390000000  0.7322750000000 1.0
C      1  0.3696310000000  0.3937600000000  0.7007720000000 1.0
C      1  0.2853930000000  0.4195550000000  0.5801920000000 1.0
C      1  0.2686810000000  0.3992720000000  0.4347970000000 1.0
C      1  0.3475720000000  0.3771000000000  0.3068910000000 1.0
C      1  0.4868640000000  0.4045130000000  0.2676050000000 1.0
C      1  0.6302760000000  0.3933430000000  0.3001820000000 1.0
C      1  0.7153340000000  0.4187910000000  0.4228110000000 1.0
C      1  0.7313410000000  0.3994510000000  0.5616200000000 1.0
C      1  0.6108050000000  0.6740350000000  0.3975840000000 1.0
C      1  0.6546530000000  0.6817500000000  0.4863970000000 1.0
C      1  0.6400950000000  0.6481560000000  0.5768640000000 1.0
C      1  0.5707800000000  0.6589940000000  0.6432780000000 1.0
C      1  0.4723620000000  0.6654420000000  0.6505690000000 1.0
C      1  0.3891740000000  0.6740460000000  0.6026600000000 1.0
C      1  0.3455650000000  0.6804540000000  0.5136180000000 1.0
C      1  0.3602090000000  0.6472940000000  0.4230500000000 1.0
C      1  0.4292840000000  0.6590130000000  0.3564820000000 1.0
C      1  0.5277440000000  0.6654190000000  0.3495520000000 1.0
C      1  0.4009280000000  0.4364990000000  0.2525370000000 1.0
C      1  0.5681740000000  0.4447410000000  0.2477820000000 1.0
C      1  0.6996940000000  0.4523950000000  0.3324280000000 1.0
C      1  0.7620150000000  0.4636780000000  0.4952790000000 1.0
C      1  0.7250960000000  0.4282990000000  0.6545200000000 1.0
C      1  0.5992500000000  0.4361860000000  0.7466230000000 1.0
C      1  0.4321300000000  0.4450250000000  0.7528470000000 1.0
C      1  0.2997640000000  0.4532640000000  0.6699340000000 1.0
C      1  0.2408090000000  0.4608690000000  0.5045620000000 1.0
C      1  0.2738860000000  0.4286410000000  0.3427760000000 1.0
C      1  0.5981020000000  0.3333760000000  0.6231840000000 1.0
C      1  0.5075520000000  0.3497160000000  0.6541050000000 1.0
C      1  0.4137620000000  0.3427120000000  0.6304320000000 1.0
C      1  0.3568770000000  0.3584270000000  0.5532710000000 1.0
C      1  0.3481160000000  0.3466070000000  0.4575850000000 1.0
C      1  0.4006190000000  0.3341260000000  0.3765670000000 1.0
C      1  0.4913380000000  0.3497770000000  0.3458740000000 1.0
C      1  0.5850430000000  0.3420000000000  0.3696840000000 1.0
C      1  0.6412950000000  0.3575040000000  0.4471910000000 1.0
C      1  0.6499040000000  0.3461880000000  0.5419150000000 1.0
END
