TITL C-1525613-7943-3123 -0.0111572385351446 3375 -8796.70397548919 0 0 60 (C2) n - 1
REM
REM in /home/nfs/bkarasulu/CARBON/AIRSS/Generating-Clusters/ReaxFF-fromJPCA2015/Units_Real/Try2-Higher-symm/Only-C60
REM
REM
REM
REM
REM
REM ./C.cell (863b2abdce7293c0672fb3ba77bf323a)
REM AIRSS Version 0.9.1 bugfix July 2018 build 013d7b7c2542+ Fri, 06 Jul 2018 19:26:36 +0100
REM compiler GCC version 9.2.1 20190827 (Red Hat 9.2.1-1)
REM options -cpp -mtune=generic -march=x86-64 -g -O0 -fpre-include=/usr/include/finclude/math-vector-fortran.h
REM seed 94208460 1693668723 -487872700 -1461481074 -1770330357 376958846 1849811288 -470121668 440666430 1190347686 196660390 -2128357566 -1340999674 1585688427 -2141869547 -1980467009 -1174458097 -1918486561 -2142006839 1099774369 1990137535 -474662952 -1372703201 1372316018 -796703512 -2005277682 346397271 677643984 834791181 -420223093 140204024 1611309662 -1399493764
REM
CELL 1.54180   15.00000   15.00000   15.00000   90.00000   90.00000   90.00000
LATT -1
SFAC C  
C      1  0.4857440000000  0.6706700000000  0.7158360000000 1.0
C      1  0.6156910000000  0.6762950000000  0.6809460000000 1.0
C      1  0.6993080000000  0.6636850000000  0.5793100000000 1.0
C      1  0.7089080000000  0.6794350000000  0.4478970000000 1.0
C      1  0.6429940000000  0.6800360000000  0.3312910000000 1.0
C      1  0.5143420000000  0.6712320000000  0.2841210000000 1.0
C      1  0.3844260000000  0.6763230000000  0.3189920000000 1.0
C      1  0.3008510000000  0.6635260000000  0.4206930000000 1.0
C      1  0.2910630000000  0.6792280000000  0.5520810000000 1.0
C      1  0.3570360000000  0.6795160000000  0.6686900000000 1.0
C      1  0.4605840000000  0.3104880000000  0.3541700000000 1.0
C      1  0.3777650000000  0.3079770000000  0.4026890000000 1.0
C      1  0.3379610000000  0.3055270000000  0.4929530000000 1.0
C      1  0.3608260000000  0.3095390000000  0.5884900000000 1.0
C      1  0.4405540000000  0.2915960000000  0.6502560000000 1.0
C      1  0.5391840000000  0.3102040000000  0.6462970000000 1.0
C      1  0.6216330000000  0.3088320000000  0.5973420000000 1.0
C      1  0.6617920000000  0.3053800000000  0.5072980000000 1.0
C      1  0.6387780000000  0.3096110000000  0.4118550000000 1.0
C      1  0.5590460000000  0.2912970000000  0.3501050000000 1.0
C      1  0.7344910000000  0.3646490000000  0.5375040000000 1.0
C      1  0.6882800000000  0.3826260000000  0.3684250000000 1.0
C      1  0.5662760000000  0.3565300000000  0.2795920000000 1.0
C      1  0.4732730000000  0.3740520000000  0.2758840000000 1.0
C      1  0.3022550000000  0.3644490000000  0.3718020000000 1.0
C      1  0.2652820000000  0.3646220000000  0.4624490000000 1.0
C      1  0.3111720000000  0.3825790000000  0.6317780000000 1.0
C      1  0.4337970000000  0.3566200000000  0.7209740000000 1.0
C      1  0.5268890000000  0.3739270000000  0.7244200000000 1.0
C      1  0.6976320000000  0.3647660000000  0.6281510000000 1.0
C      1  0.6645520000000  0.4736850000000  0.3369890000000 1.0
C      1  0.5863290000000  0.4891320000000  0.2740930000000 1.0
C      1  0.4927220000000  0.4724520000000  0.2808830000000 1.0
C      1  0.2981180000000  0.4628600000000  0.3719150000000 1.0
C      1  0.2639380000000  0.4631600000000  0.4595560000000 1.0
C      1  0.3355590000000  0.4736950000000  0.6625200000000 1.0
C      1  0.4140270000000  0.4889710000000  0.7253170000000 1.0
C      1  0.5077920000000  0.4722950000000  0.7186800000000 1.0
C      1  0.7023620000000  0.4631120000000  0.6279930000000 1.0
C      1  0.7359860000000  0.4631950000000  0.5401350000000 1.0
C      1  0.6065150000000  0.5716340000000  0.2562670000000 1.0
C      1  0.4215350000000  0.5368190000000  0.2818950000000 1.0
C      1  0.3388010000000  0.5337790000000  0.3249980000000 1.0
C      1  0.2628070000000  0.5354620000000  0.5197990000000 1.0
C      1  0.2905720000000  0.5413170000000  0.6082820000000 1.0
C      1  0.3935320000000  0.5711950000000  0.7437920000000 1.0
C      1  0.5789930000000  0.5367060000000  0.7180400000000 1.0
C      1  0.6618820000000  0.5339620000000  0.6751070000000 1.0
C      1  0.7367680000000  0.5354760000000  0.4799930000000 1.0
C      1  0.7090530000000  0.5414330000000  0.3915060000000 1.0
C      1  0.2602540000000  0.6293300000000  0.4889610000000 1.0
C      1  0.2923370000000  0.6382710000000  0.6270490000000 1.0
C      1  0.4032710000000  0.6528080000000  0.7398040000000 1.0
C      1  0.5624180000000  0.6326830000000  0.7315500000000 1.0
C      1  0.6833060000000  0.6288410000000  0.6567010000000 1.0
C      1  0.7395620000000  0.6293470000000  0.5109280000000 1.0
C      1  0.7074760000000  0.6385320000000  0.3729130000000 1.0
C      1  0.5967650000000  0.6532320000000  0.2601990000000 1.0
C      1  0.4378480000000  0.6328490000000  0.2684430000000 1.0
C      1  0.3170900000000  0.6285470000000  0.3434010000000 1.0
END
