TITL C-1525613-7943-4195 0.00485323290038238 3375 -8712.97567141138 0 0 60 (C5) n - 1
REM
REM in /home/nfs/bkarasulu/CARBON/AIRSS/Generating-Clusters/ReaxFF-fromJPCA2015/Units_Real/Try2-Higher-symm/Only-C60
REM
REM
REM
REM
REM
REM ./C.cell (863b2abdce7293c0672fb3ba77bf323a)
REM AIRSS Version 0.9.1 bugfix July 2018 build 013d7b7c2542+ Fri, 06 Jul 2018 19:26:36 +0100
REM compiler GCC version 9.2.1 20190827 (Red Hat 9.2.1-1)
REM options -cpp -mtune=generic -march=x86-64 -g -O0 -fpre-include=/usr/include/finclude/math-vector-fortran.h
REM seed 983903144 966188812 1667385789 741813122 1725458262 -941985085 -575258277 -375381003 141885624 1475262949 -1144294357 -800496464 -423808036 -2009226327 1150587048 -1748136093 670889905 685073430 1565793629 582839493 -1015303050 -783361452 925135140 278241386 1209852334 -927796670 813291524 -265244098 383593340 -867086128 1871246253 -1804955670 814383400
REM
CELL 1.54180   15.00000   15.00000   15.00000   90.00000   90.00000   90.00000
LATT -1
SFAC C  
C      1  0.7350500000000  0.5247360000000  0.6544780000000 1.0
C      1  0.5961910000000  0.2837130000000  0.6541890000000 1.0
C      1  0.3242820000000  0.3418180000000  0.6540050000000 1.0
C      1  0.2950670000000  0.6184900000000  0.6552340000000 1.0
C      1  0.5492470000000  0.7314280000000  0.6548140000000 1.0
C      1  0.2649810000000  0.5247140000000  0.6543530000000 1.0
C      1  0.4037790000000  0.2836740000000  0.6542840000000 1.0
C      1  0.6756830000000  0.3418650000000  0.6539050000000 1.0
C      1  0.7049600000000  0.6185120000000  0.6553590000000 1.0
C      1  0.4507600000000  0.7314290000000  0.6548020000000 1.0
C      1  0.6273070000000  0.5911160000000  0.4352840000000 1.0
C      1  0.6258730000000  0.4092400000000  0.4319920000000 1.0
C      1  0.4514030000000  0.3548970000000  0.4358690000000 1.0
C      1  0.3438990000000  0.4975520000000  0.4329810000000 1.0
C      1  0.4505680000000  0.6492610000000  0.4353130000000 1.0
C      1  0.3727150000000  0.5911230000000  0.4353050000000 1.0
C      1  0.3741370000000  0.4092320000000  0.4320030000000 1.0
C      1  0.5485890000000  0.3549000000000  0.4358780000000 1.0
C      1  0.6561090000000  0.4975560000000  0.4329640000000 1.0
C      1  0.5494470000000  0.6492580000000  0.4353140000000 1.0
C      1  0.6281800000000  0.5932710000000  0.2674520000000 1.0
C      1  0.6279790000000  0.4063850000000  0.2676190000000 1.0
C      1  0.4509830000000  0.3485620000000  0.2689340000000 1.0
C      1  0.3413580000000  0.4988450000000  0.2663100000000 1.0
C      1  0.4502850000000  0.6509240000000  0.2672820000000 1.0
C      1  0.3718030000000  0.5932720000000  0.2674790000000 1.0
C      1  0.3720270000000  0.4063730000000  0.2676350000000 1.0
C      1  0.5489960000000  0.3485490000000  0.2689380000000 1.0
C      1  0.6586380000000  0.4988440000000  0.2663020000000 1.0
C      1  0.5497080000000  0.6509260000000  0.2672840000000 1.0
C      1  0.6249970000000  0.7563030000000  0.5937750000000 1.0
C      1  0.7816320000000  0.4607890000000  0.5926430000000 1.0
C      1  0.5494650000000  0.2196700000000  0.5925880000000 1.0
C      1  0.2489750000000  0.3665940000000  0.5923990000000 1.0
C      1  0.2949710000000  0.6980950000000  0.5940880000000 1.0
C      1  0.3750310000000  0.7563110000000  0.5937400000000 1.0
C      1  0.2183850000000  0.4607280000000  0.5925670000000 1.0
C      1  0.4504820000000  0.2196540000000  0.5926430000000 1.0
C      1  0.7510240000000  0.3666620000000  0.5923440000000 1.0
C      1  0.7050630000000  0.6980950000000  0.5941860000000 1.0
C      1  0.4509180000000  0.7050790000000  0.3518370000000 1.0
C      1  0.6801410000000  0.6080660000000  0.3520250000000 1.0
C      1  0.6591220000000  0.3639130000000  0.3526600000000 1.0
C      1  0.4201630000000  0.3069760000000  0.3539900000000 1.0
C      1  0.2905770000000  0.5147400000000  0.3508850000000 1.0
C      1  0.5490880000000  0.7050800000000  0.3518250000000 1.0
C      1  0.3198650000000  0.6080720000000  0.3520350000000 1.0
C      1  0.3408600000000  0.3639280000000  0.3526700000000 1.0
C      1  0.5798500000000  0.3069760000000  0.3539760000000 1.0
C      1  0.7094170000000  0.5147360000000  0.3508670000000 1.0
C      1  0.3769280000000  0.4105920000000  0.6979360000000 1.0
C      1  0.3769360000000  0.5896800000000  0.6988580000000 1.0
C      1  0.5472160000000  0.6446600000000  0.6983750000000 1.0
C      1  0.6519180000000  0.4997540000000  0.6979890000000 1.0
C      1  0.5468290000000  0.3548430000000  0.6982000000000 1.0
C      1  0.6230460000000  0.4106190000000  0.6978770000000 1.0
C      1  0.6230700000000  0.5896910000000  0.6989380000000 1.0
C      1  0.4527800000000  0.6446620000000  0.6983650000000 1.0
C      1  0.3480940000000  0.4997400000000  0.6979050000000 1.0
C      1  0.4531500000000  0.3548250000000  0.6982510000000 1.0
END
