TITL C-1525613-7943-3415 0.765730288231711 3375 -8240.66131577446 0 0 60 (C1) n - 1
REM
REM in /home/nfs/bkarasulu/CARBON/AIRSS/Generating-Clusters/ReaxFF-fromJPCA2015/Units_Real/Try2-Higher-symm/Only-C60
REM
REM
REM
REM
REM
REM ./C.cell (863b2abdce7293c0672fb3ba77bf323a)
REM AIRSS Version 0.9.1 bugfix July 2018 build 013d7b7c2542+ Fri, 06 Jul 2018 19:26:36 +0100
REM compiler GCC version 9.2.1 20190827 (Red Hat 9.2.1-1)
REM options -cpp -mtune=generic -march=x86-64 -g -O0 -fpre-include=/usr/include/finclude/math-vector-fortran.h
REM seed 2010248071 -491515704 1935276323 1313721479 1405112897 -1072503410 -1942790781 1805516316 169852454 -1735632887 -1612120428 397935198 -1259047003 -1379216319 152625893 1976802173 -779416613 -1381310041 1599791113 -408641233 513238142 1116781480 -1551991800 996219128 1381844286 708304803 451986111 -173888192 855457402 -464345287 -1464079424 -2070198597 -1357763714
REM
CELL 1.54180   15.00000   15.00000   15.00000   90.00000   90.00000   90.00000
LATT -1
SFAC C  
C      1  0.6575820000000  0.4988560000000  0.6467850000000 1.0
C      1  0.5487650000000  0.3494530000000  0.6531610000000 1.0
C      1  0.3745850000000  0.4090570000000  0.6448090000000 1.0
C      1  0.3715310000000  0.5923960000000  0.6504980000000 1.0
C      1  0.5485710000000  0.6461520000000  0.6470410000000 1.0
C      1  0.3422170000000  0.4987030000000  0.6461150000000 1.0
C      1  0.4511950000000  0.3495880000000  0.6532210000000 1.0
C      1  0.6254170000000  0.4090410000000  0.6447760000000 1.0
C      1  0.6286090000000  0.5932140000000  0.6493350000000 1.0
C      1  0.4503960000000  0.6473700000000  0.6486690000000 1.0
C      1  0.7329450000000  0.7482360000000  0.5358640000000 1.0
C      1  0.7864880000000  0.3650940000000  0.5256080000000 1.0
C      1  0.4586870000000  0.1784050000000  0.5344240000000 1.0
C      1  0.1688070000000  0.4347650000000  0.5373270000000 1.0
C      1  0.3436170000000  0.7783990000000  0.5249660000000 1.0
C      1  0.2670260000000  0.7478120000000  0.5356520000000 1.0
C      1  0.2134700000000  0.3653430000000  0.5254520000000 1.0
C      1  0.5411070000000  0.1784940000000  0.5343410000000 1.0
C      1  0.8312190000000  0.4343830000000  0.5374330000000 1.0
C      1  0.6566710000000  0.7784490000000  0.5251790000000 1.0
C      1  0.3392780000000  0.5007880000000  0.3582600000000 1.0
C      1  0.4515740000000  0.6504510000000  0.3564450000000 1.0
C      1  0.6303100000000  0.5929270000000  0.3588060000000 1.0
C      1  0.6288870000000  0.4060370000000  0.3535350000000 1.0
C      1  0.4497740000000  0.3496840000000  0.3545420000000 1.0
C      1  0.6607480000000  0.5007730000000  0.3580810000000 1.0
C      1  0.5482430000000  0.6504410000000  0.3564090000000 1.0
C      1  0.3696320000000  0.5929860000000  0.3588540000000 1.0
C      1  0.3709870000000  0.4059220000000  0.3534120000000 1.0
C      1  0.5501960000000  0.3496630000000  0.3543970000000 1.0
C      1  0.7697820000000  0.4987490000000  0.4998980000000 1.0
C      1  0.5887390000000  0.2522090000000  0.4988040000000 1.0
C      1  0.3000650000000  0.3353170000000  0.4993790000000 1.0
C      1  0.2802350000000  0.6599950000000  0.4993720000000 1.0
C      1  0.5689250000000  0.7515870000000  0.5007280000000 1.0
C      1  0.2306030000000  0.4990650000000  0.5002430000000 1.0
C      1  0.4112260000000  0.2522880000000  0.4989110000000 1.0
C      1  0.6999120000000  0.3352870000000  0.4994130000000 1.0
C      1  0.7192840000000  0.6595400000000  0.4999300000000 1.0
C      1  0.4308470000000  0.7500590000000  0.5010630000000 1.0
C      1  0.6890000000000  0.5142060000000  0.5553030000000 1.0
C      1  0.5604900000000  0.3294500000000  0.5561930000000 1.0
C      1  0.3681330000000  0.3839110000000  0.5527090000000 1.0
C      1  0.3402590000000  0.6027750000000  0.5568790000000 1.0
C      1  0.5429720000000  0.6729070000000  0.5551300000000 1.0
C      1  0.3113400000000  0.5142060000000  0.5553440000000 1.0
C      1  0.4395100000000  0.3293830000000  0.5560800000000 1.0
C      1  0.6319680000000  0.3839320000000  0.5528130000000 1.0
C      1  0.6627230000000  0.6021020000000  0.5576320000000 1.0
C      1  0.4554330000000  0.6728130000000  0.5552680000000 1.0
C      1  0.2926280000000  0.3773730000000  0.4084870000000 1.0
C      1  0.3226430000000  0.6642060000000  0.4085120000000 1.0
C      1  0.5969250000000  0.7203990000000  0.4092170000000 1.0
C      1  0.7398250000000  0.4700480000000  0.4081960000000 1.0
C      1  0.5489620000000  0.2665630000000  0.4081730000000 1.0
C      1  0.7073430000000  0.3775020000000  0.4085740000000 1.0
C      1  0.6771320000000  0.6642750000000  0.4081370000000 1.0
C      1  0.4030830000000  0.7204010000000  0.4094520000000 1.0
C      1  0.2603380000000  0.4699680000000  0.4084640000000 1.0
C      1  0.4511370000000  0.2666020000000  0.4083000000000 1.0
END
