TITL C-1525613-7943-2752 0.321918485853189 3375 -8214.99042206963 0 0 60 (C1) n - 1
REM
REM in /home/nfs/bkarasulu/CARBON/AIRSS/Generating-Clusters/ReaxFF-fromJPCA2015/Units_Real/Try2-Higher-symm/Only-C60
REM
REM
REM
REM
REM
REM ./C.cell (863b2abdce7293c0672fb3ba77bf323a)
REM AIRSS Version 0.9.1 bugfix July 2018 build 013d7b7c2542+ Fri, 06 Jul 2018 19:26:36 +0100
REM compiler GCC version 9.2.1 20190827 (Red Hat 9.2.1-1)
REM options -cpp -mtune=generic -march=x86-64 -g -O0 -fpre-include=/usr/include/finclude/math-vector-fortran.h
REM seed -1468031920 466543013 -2041671151 -406614624 -176379221 -1431931214 566645174 661579853 123600071 -1206599375 1545311057 -1575511443 -320129283 -1668347022 1929553483 -1727733145 -453726116 -206096594 -498253571 1924833263 -1054615923 1261511223 -2143685265 -1530810000 268277622 -2143677025 491517111 1847556124 -1756507819 458521980 1730632179 718541117 1417627745
REM
CELL 1.54180   15.00000   15.00000   15.00000   90.00000   90.00000   90.00000
LATT -1
SFAC C  
C      1  0.4251700000000  0.5794660000000  0.7224620000000 1.0
C      1  0.4266910000000  0.3125360000000  0.6013190000000 1.0
C      1  0.4100440000000  0.3160720000000  0.3584170000000 1.0
C      1  0.4322960000000  0.5819760000000  0.2827600000000 1.0
C      1  0.4231630000000  0.7131150000000  0.5096790000000 1.0
C      1  0.5756650000000  0.4191300000000  0.7231430000000 1.0
C      1  0.5707710000000  0.6909850000000  0.5985490000000 1.0
C      1  0.5895850000000  0.6826420000000  0.3591620000000 1.0
C      1  0.5673640000000  0.4186760000000  0.2831190000000 1.0
C      1  0.5770720000000  0.2866490000000  0.5093620000000 1.0
C      1  0.4439990000000  0.5832260000000  0.4446840000000 1.0
C      1  0.4477230000000  0.6118590000000  0.5343800000000 1.0
C      1  0.4627680000000  0.4731280000000  0.6010760000000 1.0
C      1  0.4638530000000  0.3917240000000  0.5576720000000 1.0
C      1  0.4752460000000  0.4585800000000  0.4032120000000 1.0
C      1  0.5547820000000  0.4163990000000  0.4455360000000 1.0
C      1  0.5520470000000  0.3879360000000  0.5346750000000 1.0
C      1  0.5398030000000  0.5306500000000  0.6017450000000 1.0
C      1  0.5381300000000  0.6101830000000  0.5544100000000 1.0
C      1  0.5247830000000  0.5405500000000  0.4026510000000 1.0
C      1  0.3225650000000  0.4107620000000  0.4735150000000 1.0
C      1  0.3044980000000  0.4933110000000  0.4299320000000 1.0
C      1  0.2843630000000  0.5596420000000  0.4772670000000 1.0
C      1  0.2833600000000  0.5336580000000  0.5574760000000 1.0
C      1  0.3019200000000  0.4516730000000  0.5568550000000 1.0
C      1  0.6767640000000  0.5885580000000  0.4739960000000 1.0
C      1  0.6955940000000  0.5060940000000  0.4301660000000 1.0
C      1  0.7161170000000  0.4398320000000  0.4775300000000 1.0
C      1  0.7168520000000  0.4659240000000  0.5578120000000 1.0
C      1  0.6972780000000  0.5476130000000  0.5573480000000 1.0
C      1  0.5786970000000  0.2921050000000  0.6195720000000 1.0
C      1  0.5745860000000  0.3346500000000  0.3339680000000 1.0
C      1  0.5976660000000  0.6137780000000  0.2884830000000 1.0
C      1  0.5846990000000  0.7337380000000  0.5116940000000 1.0
C      1  0.5850990000000  0.5088840000000  0.7498070000000 1.0
C      1  0.4214480000000  0.7077820000000  0.6198400000000 1.0
C      1  0.4255090000000  0.6659500000000  0.3339990000000 1.0
C      1  0.4018310000000  0.3852840000000  0.2885090000000 1.0
C      1  0.4162420000000  0.2698340000000  0.5126340000000 1.0
C      1  0.4149240000000  0.4887820000000  0.7460510000000 1.0
C      1  0.4952590000000  0.2990120000000  0.6719970000000 1.0
C      1  0.4994730000000  0.2756510000000  0.3689490000000 1.0
C      1  0.5196880000000  0.5790030000000  0.2473830000000 1.0
C      1  0.5018470000000  0.7522960000000  0.4630520000000 1.0
C      1  0.5171380000000  0.6226200000000  0.7312000000000 1.0
C      1  0.5053100000000  0.7011520000000  0.6716660000000 1.0
C      1  0.5006640000000  0.7246500000000  0.3692850000000 1.0
C      1  0.4794510000000  0.4224560000000  0.2478710000000 1.0
C      1  0.4978370000000  0.2482620000000  0.4631310000000 1.0
C      1  0.4833570000000  0.3768660000000  0.7317910000000 1.0
C      1  0.6051180000000  0.3804850000000  0.6361390000000 1.0
C      1  0.6073660000000  0.3401310000000  0.4240600000000 1.0
C      1  0.5817310000000  0.5189090000000  0.3177190000000 1.0
C      1  0.6271100000000  0.6737900000000  0.4473910000000 1.0
C      1  0.5857400000000  0.5700150000000  0.6825040000000 1.0
C      1  0.3951020000000  0.6195190000000  0.6367110000000 1.0
C      1  0.3927020000000  0.6600900000000  0.4238850000000 1.0
C      1  0.4186940000000  0.4803000000000  0.3163960000000 1.0
C      1  0.3710250000000  0.3246750000000  0.4464830000000 1.0
C      1  0.4144200000000  0.4267820000000  0.6779210000000 1.0
END
