TITL C-1525613-7943-1594 0.0545513310315635 3375 -8504.10347727378 0 0 60 (C2) n - 1
REM
REM in /home/nfs/bkarasulu/CARBON/AIRSS/Generating-Clusters/ReaxFF-fromJPCA2015/Units_Real/Try2-Higher-symm/Only-C60
REM
REM
REM
REM
REM
REM ./C.cell (863b2abdce7293c0672fb3ba77bf323a)
REM AIRSS Version 0.9.1 bugfix July 2018 build 013d7b7c2542+ Fri, 06 Jul 2018 19:26:36 +0100
REM compiler GCC version 9.2.1 20190827 (Red Hat 9.2.1-1)
REM options -cpp -mtune=generic -march=x86-64 -g -O0 -fpre-include=/usr/include/finclude/math-vector-fortran.h
REM seed 1935640281 1224241332 -641443639 -1188712838 -1066970244 -452455983 -711801601 -1083591309 1687552775 -938899763 208337058 334653559 -2037038693 -2058639829 -1348368014 1503274693 -1987116398 1282199219 12356193 1469229155 679851790 76422614 -975453395 -1276001318 -1061847411 137859788 -1869629816 259054682 -309695399 1847831679 -1253696829 352484820 -1867895478
REM
CELL 1.54180   15.00000   15.00000   15.00000   90.00000   90.00000   90.00000
LATT -1
SFAC C  
C      1  0.4504090000000  0.5739440000000  0.3049370000000 1.0
C      1  0.4132390000000  0.4744190000000  0.3076760000000 1.0
C      1  0.4976170000000  0.4099890000000  0.3077230000000 1.0
C      1  0.5858290000000  0.4688920000000  0.3070800000000 1.0
C      1  0.5561760000000  0.5713460000000  0.3074930000000 1.0
C      1  0.5496170000000  0.5738980000000  0.6949420000000 1.0
C      1  0.5867540000000  0.4743300000000  0.6928790000000 1.0
C      1  0.5023550000000  0.4099810000000  0.6922670000000 1.0
C      1  0.4141880000000  0.4689320000000  0.6930000000000 1.0
C      1  0.4439030000000  0.5713350000000  0.6924960000000 1.0
C      1  0.6779110000000  0.4475510000000  0.3683720000000 1.0
C      1  0.6024880000000  0.6537190000000  0.3666180000000 1.0
C      1  0.3874760000000  0.6456440000000  0.3694370000000 1.0
C      1  0.3269190000000  0.4357870000000  0.3679390000000 1.0
C      1  0.5062860000000  0.3146470000000  0.3679730000000 1.0
C      1  0.3220230000000  0.4474960000000  0.6316380000000 1.0
C      1  0.3974420000000  0.6537550000000  0.6333500000000 1.0
C      1  0.6125050000000  0.6456980000000  0.6305910000000 1.0
C      1  0.6730410000000  0.4359090000000  0.6317880000000 1.0
C      1  0.4937610000000  0.3146360000000  0.6320200000000 1.0
C      1  0.7015960000000  0.4076990000000  0.4558160000000 1.0
C      1  0.6495460000000  0.6617240000000  0.4534550000000 1.0
C      1  0.3909770000000  0.6933930000000  0.4564030000000 1.0
C      1  0.2841380000000  0.4569410000000  0.4539680000000 1.0
C      1  0.4749480000000  0.2789360000000  0.4546510000000 1.0
C      1  0.2984520000000  0.4076420000000  0.5443230000000 1.0
C      1  0.3504380000000  0.6617270000000  0.5464780000000 1.0
C      1  0.6089810000000  0.6934390000000  0.5436360000000 1.0
C      1  0.7158850000000  0.4568990000000  0.5459420000000 1.0
C      1  0.5250310000000  0.2789180000000  0.5453620000000 1.0
C      1  0.3378640000000  0.5694860000000  0.3989020000000 1.0
C      1  0.3808030000000  0.3618840000000  0.3910090000000 1.0
C      1  0.5929920000000  0.3455770000000  0.3921640000000 1.0
C      1  0.6694820000000  0.5389530000000  0.3972450000000 1.0
C      1  0.5164280000000  0.6824090000000  0.3926150000000 1.0
C      1  0.6621060000000  0.5694260000000  0.6010300000000 1.0
C      1  0.6191750000000  0.3618830000000  0.6089380000000 1.0
C      1  0.4070400000000  0.3456080000000  0.6078280000000 1.0
C      1  0.3305000000000  0.5389790000000  0.6027260000000 1.0
C      1  0.4835300000000  0.6823300000000  0.6073870000000 1.0
C      1  0.5781730000000  0.5315940000000  0.5705780000000 1.0
C      1  0.4958270000000  0.5825990000000  0.5552540000000 1.0
C      1  0.4215020000000  0.5215900000000  0.5693340000000 1.0
C      1  0.4536800000000  0.4333400000000  0.5602460000000 1.0
C      1  0.5560430000000  0.4378300000000  0.5578410000000 1.0
C      1  0.4218410000000  0.5314190000000  0.4292700000000 1.0
C      1  0.5043610000000  0.5827400000000  0.4447940000000 1.0
C      1  0.5785080000000  0.5216210000000  0.4306310000000 1.0
C      1  0.5464490000000  0.4332830000000  0.4401300000000 1.0
C      1  0.4439250000000  0.4377440000000  0.4417110000000 1.0
C      1  0.6216950000000  0.2900870000000  0.5424330000000 1.0
C      1  0.7384990000000  0.5505230000000  0.5413300000000 1.0
C      1  0.5248390000000  0.7420980000000  0.5422780000000 1.0
C      1  0.2782260000000  0.5981280000000  0.5414990000000 1.0
C      1  0.3389260000000  0.3193200000000  0.5422030000000 1.0
C      1  0.3783200000000  0.2900430000000  0.4575770000000 1.0
C      1  0.2613390000000  0.5506950000000  0.4587340000000 1.0
C      1  0.4751900000000  0.7421670000000  0.4577430000000 1.0
C      1  0.7217840000000  0.5980990000000  0.4585260000000 1.0
C      1  0.6610220000000  0.3193170000000  0.4577940000000 1.0
END
