TITL C-1525613-7943-6311 -0.0123846119667307 3375 -8260.2976429598 0 0 60 (Cs) n - 1
REM
REM in /home/nfs/bkarasulu/CARBON/AIRSS/Generating-Clusters/ReaxFF-fromJPCA2015/Units_Real/Try2-Higher-symm/Only-C60
REM
REM
REM
REM
REM
REM ./C.cell (863b2abdce7293c0672fb3ba77bf323a)
REM AIRSS Version 0.9.1 bugfix July 2018 build 013d7b7c2542+ Fri, 06 Jul 2018 19:26:36 +0100
REM compiler GCC version 9.2.1 20190827 (Red Hat 9.2.1-1)
REM options -cpp -mtune=generic -march=x86-64 -g -O0 -fpre-include=/usr/include/finclude/math-vector-fortran.h
REM seed -1303314487 -801002818 535803560 1184421106 827887402 302869033 1211884652 -98902082 175600065 1103218692 -1507285970 -1127464059 424522649 -2025158747 221095032 1670936250 -2093129277 -314160428 -1650358668 -1702427735 1057587582 271367721 -959280678 -167704349 1910606403 -896853379 -233333356 1061223231 -1480271474 522774644 214523154 2034982157 -1613070530
REM
CELL 1.54180   15.00000   15.00000   15.00000   90.00000   90.00000   90.00000
LATT -1
SFAC C  
C      1  0.5453080000000  0.4066500000000  0.4191490000000 1.0
C      1  0.4445090000000  0.4079570000000  0.4258390000000 1.0
C      1  0.4152750000000  0.4120090000000  0.5357330000000 1.0
C      1  0.5063700000000  0.3964840000000  0.6005250000000 1.0
C      1  0.5892650000000  0.4111450000000  0.5242290000000 1.0
C      1  0.5453080000000  0.5933500000000  0.4191490000000 1.0
C      1  0.4445090000000  0.5920430000000  0.4258390000000 1.0
C      1  0.4152750000000  0.5879910000000  0.5357330000000 1.0
C      1  0.5063700000000  0.6035160000000  0.6005250000000 1.0
C      1  0.5892650000000  0.5888550000000  0.5242290000000 1.0
C      1  0.5018760000000  0.6120060000000  0.1918950000000 1.0
C      1  0.2107820000000  0.6111080000000  0.4005740000000 1.0
C      1  0.3134820000000  0.6135710000000  0.7472330000000 1.0
C      1  0.6815950000000  0.6134000000000  0.7498020000000 1.0
C      1  0.7923850000000  0.6114010000000  0.4051630000000 1.0
C      1  0.5018760000000  0.3879940000000  0.1918950000000 1.0
C      1  0.2107820000000  0.3888920000000  0.4005740000000 1.0
C      1  0.3134820000000  0.3864290000000  0.7472330000000 1.0
C      1  0.6815950000000  0.3866000000000  0.7498020000000 1.0
C      1  0.7923850000000  0.3885990000000  0.4051630000000 1.0
C      1  0.6779570000000  0.4516600000000  0.3603500000000 1.0
C      1  0.4213090000000  0.4518420000000  0.2832810000000 1.0
C      1  0.2704110000000  0.4511930000000  0.5074590000000 1.0
C      1  0.4328210000000  0.4510100000000  0.7265230000000 1.0
C      1  0.6922460000000  0.4511820000000  0.6293970000000 1.0
C      1  0.6779570000000  0.5483400000000  0.3603500000000 1.0
C      1  0.4213090000000  0.5481580000000  0.2832810000000 1.0
C      1  0.2704110000000  0.5488070000000  0.5074590000000 1.0
C      1  0.4328210000000  0.5489900000000  0.7265230000000 1.0
C      1  0.6922460000000  0.5488180000000  0.6293970000000 1.0
C      1  0.3457230000000  0.5861740000000  0.6754520000000 1.0
C      1  0.6194610000000  0.5803680000000  0.7041420000000 1.0
C      1  0.7255670000000  0.5841450000000  0.4474400000000 1.0
C      1  0.5210010000000  0.5825990000000  0.2681590000000 1.0
C      1  0.2896160000000  0.5843210000000  0.4078190000000 1.0
C      1  0.3457230000000  0.4138260000000  0.6754520000000 1.0
C      1  0.6194610000000  0.4196320000000  0.7041420000000 1.0
C      1  0.7255670000000  0.4158550000000  0.4474400000000 1.0
C      1  0.5210010000000  0.4174010000000  0.2681590000000 1.0
C      1  0.2896160000000  0.4156790000000  0.4078190000000 1.0
C      1  0.6830160000000  0.5975410000000  0.5455550000000 1.0
C      1  0.5955640000000  0.5960420000000  0.3418570000000 1.0
C      1  0.3814630000000  0.5964210000000  0.3574980000000 1.0
C      1  0.3258790000000  0.5977740000000  0.5715350000000 1.0
C      1  0.5155810000000  0.5872950000000  0.6961610000000 1.0
C      1  0.6830160000000  0.4024590000000  0.5455550000000 1.0
C      1  0.5955640000000  0.4039580000000  0.3418570000000 1.0
C      1  0.3814630000000  0.4035790000000  0.3574980000000 1.0
C      1  0.3258790000000  0.4022260000000  0.5715350000000 1.0
C      1  0.5155810000000  0.4127050000000  0.6961610000000 1.0
C      1  0.5836600000000  0.6899990000000  0.5161180000000 1.0
C      1  0.5443230000000  0.6922950000000  0.4253890000000 1.0
C      1  0.4462980000000  0.6890590000000  0.4331700000000 1.0
C      1  0.4208960000000  0.6895510000000  0.5286730000000 1.0
C      1  0.5063600000000  0.7008310000000  0.5738810000000 1.0
C      1  0.5836600000000  0.3100010000000  0.5161180000000 1.0
C      1  0.5443230000000  0.3077050000000  0.4253890000000 1.0
C      1  0.4462980000000  0.3109410000000  0.4331700000000 1.0
C      1  0.4208960000000  0.3104490000000  0.5286730000000 1.0
C      1  0.5063600000000  0.2991690000000  0.5738810000000 1.0
END
