TITL C-1525613-7943-2441 -0.000241852358590622 3375 -9640.08304261403 0 0 60 (D5h) n - 1
REM
REM in /home/nfs/bkarasulu/CARBON/AIRSS/Generating-Clusters/ReaxFF-fromJPCA2015/Units_Real/Try2-Higher-symm/Only-C60
REM
REM
REM
REM
REM
REM ./C.cell (863b2abdce7293c0672fb3ba77bf323a)
REM AIRSS Version 0.9.1 bugfix July 2018 build 013d7b7c2542+ Fri, 06 Jul 2018 19:26:36 +0100
REM compiler GCC version 9.2.1 20190827 (Red Hat 9.2.1-1)
REM options -cpp -mtune=generic -march=x86-64 -g -O0 -fpre-include=/usr/include/finclude/math-vector-fortran.h
REM seed 1516487444 1510666043 -1737607133 150103629 509206482 80931480 2101091895 1560401591 316878632 996861902 -263241249 -477628962 -1840450023 -1894864963 -46783783 700896947 -1750390828 1640276578 -1860344194 -204452922 -200403833 1174908667 -1287448324 1179851099 1500085756 -969562151 -1641026047 -1351172722 -1151808019 316626824 -1097134303 1466700421 1068556557
REM
CELL 1.54180   15.00000   15.00000   15.00000   90.00000   90.00000   90.00000
LATT -1
SFAC C  
C      1  0.4534930000000  0.4347880000000  0.2900500000000 1.0
C      1  0.5477910000000  0.4353890000000  0.2909060000000 1.0
C      1  0.5766660000000  0.5245240000000  0.2912930000000 1.0
C      1  0.5009100000000  0.5802960000000  0.2901660000000 1.0
C      1  0.4239650000000  0.5248700000000  0.2896370000000 1.0
C      1  0.5475070000000  0.4354010000000  0.7091600000000 1.0
C      1  0.4532090000000  0.4348000000000  0.7098890000000 1.0
C      1  0.4236780000000  0.5248810000000  0.7102600000000 1.0
C      1  0.5006240000000  0.5803080000000  0.7098350000000 1.0
C      1  0.5763820000000  0.5245360000000  0.7088130000000 1.0
C      1  0.3885830000000  0.2618780000000  0.4504540000000 1.0
C      1  0.6918770000000  0.3203730000000  0.4507630000000 1.0
C      1  0.7297400000000  0.6256880000000  0.4508790000000 1.0
C      1  0.4513750000000  0.7583060000000  0.4504670000000 1.0
C      1  0.2394490000000  0.5329760000000  0.4503310000000 1.0
C      1  0.6123180000000  0.2620020000000  0.5495580000000 1.0
C      1  0.3086760000000  0.3198890000000  0.5493670000000 1.0
C      1  0.2699320000000  0.6268480000000  0.5493310000000 1.0
C      1  0.5499530000000  0.7581520000000  0.5494780000000 1.0
C      1  0.7558800000000  0.5322800000000  0.5469570000000 1.0
C      1  0.5805590000000  0.6919410000000  0.3853450000000 1.0
C      1  0.3425080000000  0.6355540000000  0.3852240000000 1.0
C      1  0.3229610000000  0.3915460000000  0.3853040000000 1.0
C      1  0.5487740000000  0.2978230000000  0.3855950000000 1.0
C      1  0.7051740000000  0.4840910000000  0.3886330000000 1.0
C      1  0.4205450000000  0.6921010000000  0.6145810000000 1.0
C      1  0.6577080000000  0.6349120000000  0.6147160000000 1.0
C      1  0.6767180000000  0.3927580000000  0.6132990000000 1.0
C      1  0.4522420000000  0.2975270000000  0.6145310000000 1.0
C      1  0.2928160000000  0.4832830000000  0.6145090000000 1.0
C      1  0.2393820000000  0.5329790000000  0.5493140000000 1.0
C      1  0.3885170000000  0.2618810000000  0.5494060000000 1.0
C      1  0.6918090000000  0.3203790000000  0.5495010000000 1.0
C      1  0.7296740000000  0.6256930000000  0.5494290000000 1.0
C      1  0.4513070000000  0.7583090000000  0.5494560000000 1.0
C      1  0.7559490000000  0.5322710000000  0.4533950000000 1.0
C      1  0.6123850000000  0.2619980000000  0.4506040000000 1.0
C      1  0.3087430000000  0.3198860000000  0.4503830000000 1.0
C      1  0.2699990000000  0.6268460000000  0.4503510000000 1.0
C      1  0.5500210000000  0.7581480000000  0.4505800000000 1.0
C      1  0.6578650000000  0.6349030000000  0.3854940000000 1.0
C      1  0.4207010000000  0.6920940000000  0.3853030000000 1.0
C      1  0.2929720000000  0.4832770000000  0.3852110000000 1.0
C      1  0.4523960000000  0.2975200000000  0.3854130000000 1.0
C      1  0.6768740000000  0.3927460000000  0.3869380000000 1.0
C      1  0.3423520000000  0.6355600000000  0.6145560000000 1.0
C      1  0.5804020000000  0.6919500000000  0.6147590000000 1.0
C      1  0.7050230000000  0.4841030000000  0.6116420000000 1.0
C      1  0.5486200000000  0.2978310000000  0.6144790000000 1.0
C      1  0.3228070000000  0.3915520000000  0.6144600000000 1.0
C      1  0.5006550000000  0.6611750000000  0.3407390000000 1.0
C      1  0.3469320000000  0.5499260000000  0.3404820000000 1.0
C      1  0.4058750000000  0.3695030000000  0.3407870000000 1.0
C      1  0.5949310000000  0.3703890000000  0.3415920000000 1.0
C      1  0.6522410000000  0.5491580000000  0.3420930000000 1.0
C      1  0.5004370000000  0.6611840000000  0.6592570000000 1.0
C      1  0.6520280000000  0.5491690000000  0.6581130000000 1.0
C      1  0.5947160000000  0.3704020000000  0.6585380000000 1.0
C      1  0.4056610000000  0.3695130000000  0.6590890000000 1.0
C      1  0.3467140000000  0.5499340000000  0.6593080000000 1.0
END
