TITL C-1525613-7943-7523 0.383119278788042 3375 -7987.54104567709 0 0 60 (C5v) n - 1
REM
REM in /home/nfs/bkarasulu/CARBON/AIRSS/Generating-Clusters/ReaxFF-fromJPCA2015/Units_Real/Try2-Higher-symm/Only-C60
REM
REM
REM
REM
REM
REM ./C.cell (863b2abdce7293c0672fb3ba77bf323a)
REM AIRSS Version 0.9.1 bugfix July 2018 build 013d7b7c2542+ Fri, 06 Jul 2018 19:26:36 +0100
REM compiler GCC version 9.2.1 20190827 (Red Hat 9.2.1-1)
REM options -cpp -mtune=generic -march=x86-64 -g -O0 -fpre-include=/usr/include/finclude/math-vector-fortran.h
REM seed 1749683906 -31927738 -1750472580 1960530553 -264826245 -362621857 -1802095079 252085662 1065580622 1006675068 1854027399 -1449287341 -150620037 1848023579 490635432 596935571 -81633733 73525366 1911295599 -1117613030 731908161 436561114 -1665192662 -1981422079 -145758004 189576179 -1715054968 -1512641458 1758765841 1128084426 1914925790 1253689353 -1880999057
REM
CELL 1.54180   15.00000   15.00000   15.00000   90.00000   90.00000   90.00000
LATT -1
SFAC C  
C      1  0.6849790000000  0.4668010000000  0.6969290000000 1.0
C      1  0.3698850000000  0.4667750000000  0.7368670000000 1.0
C      1  0.2343960000000  0.4666380000000  0.4493940000000 1.0
C      1  0.4660580000000  0.4668350000000  0.2318820000000 1.0
C      1  0.7446830000000  0.4668090000000  0.3848550000000 1.0
C      1  0.6849780000000  0.4667990000000  0.3030720000000 1.0
C      1  0.3698780000000  0.4667760000000  0.2631300000000 1.0
C      1  0.2343950000000  0.4666390000000  0.5506070000000 1.0
C      1  0.4660590000000  0.4668330000000  0.7681170000000 1.0
C      1  0.7446870000000  0.4668100000000  0.6151460000000 1.0
C      1  0.2430190000000  0.5082080000000  0.6333020000000 1.0
C      1  0.2937460000000  0.5082870000000  0.2969130000000 1.0
C      1  0.6294890000000  0.5083750000000  0.2411540000000 1.0
C      1  0.7862300000000  0.5083120000000  0.5431150000000 1.0
C      1  0.5472730000000  0.5083190000000  0.7855100000000 1.0
C      1  0.2430190000000  0.5082080000000  0.3666970000000 1.0
C      1  0.2937440000000  0.5082860000000  0.7030880000000 1.0
C      1  0.6294880000000  0.5083780000000  0.7588440000000 1.0
C      1  0.7862320000000  0.5083100000000  0.4568850000000 1.0
C      1  0.5472770000000  0.5083210000000  0.2144870000000 1.0
C      1  0.4063920000000  0.6917000000000  0.3721910000000 1.0
C      1  0.5926930000000  0.6915500000000  0.3713660000000 1.0
C      1  0.6510630000000  0.6914570000000  0.5484450000000 1.0
C      1  0.5006380000000  0.6916540000000  0.6586750000000 1.0
C      1  0.3494200000000  0.6915450000000  0.5495540000000 1.0
C      1  0.4073670000000  0.6916890000000  0.6284850000000 1.0
C      1  0.5936630000000  0.6915840000000  0.6279380000000 1.0
C      1  0.6506580000000  0.6914390000000  0.4503960000000 1.0
C      1  0.4994840000000  0.6916050000000  0.3413880000000 1.0
C      1  0.3490190000000  0.6915800000000  0.4516400000000 1.0
C      1  0.5913020000000  0.3225050000000  0.6264040000000 1.0
C      1  0.4085900000000  0.3238780000000  0.6264410000000 1.0
C      1  0.3517780000000  0.3232280000000  0.4519600000000 1.0
C      1  0.5005460000000  0.3225540000000  0.3440620000000 1.0
C      1  0.6482040000000  0.3239960000000  0.4515190000000 1.0
C      1  0.5913120000000  0.3225070000000  0.3736020000000 1.0
C      1  0.4085880000000  0.3238790000000  0.3735620000000 1.0
C      1  0.3517800000000  0.3232280000000  0.5480440000000 1.0
C      1  0.5005540000000  0.3225590000000  0.6559370000000 1.0
C      1  0.6482040000000  0.3239990000000  0.5484850000000 1.0
C      1  0.4893040000000  0.4155330000000  0.3143440000000 1.0
C      1  0.6743110000000  0.4164090000000  0.4331240000000 1.0
C      1  0.6177730000000  0.4155500000000  0.6438880000000 1.0
C      1  0.3981920000000  0.4165550000000  0.6565970000000 1.0
C      1  0.3198910000000  0.4158300000000  0.4520750000000 1.0
C      1  0.4893020000000  0.4155250000000  0.6856550000000 1.0
C      1  0.6743160000000  0.4164130000000  0.5668730000000 1.0
C      1  0.6177780000000  0.4155600000000  0.3561070000000 1.0
C      1  0.3981960000000  0.4165470000000  0.3434080000000 1.0
C      1  0.3198970000000  0.4158190000000  0.5479210000000 1.0
C      1  0.5914100000000  0.5941470000000  0.6269140000000 1.0
C      1  0.4076260000000  0.5942470000000  0.6262490000000 1.0
C      1  0.3516720000000  0.5941540000000  0.4511260000000 1.0
C      1  0.5005940000000  0.5941670000000  0.3434860000000 1.0
C      1  0.6488530000000  0.5939910000000  0.4522190000000 1.0
C      1  0.5923840000000  0.5941920000000  0.3738170000000 1.0
C      1  0.4085540000000  0.5942470000000  0.3730470000000 1.0
C      1  0.3512950000000  0.5940890000000  0.5476840000000 1.0
C      1  0.4993760000000  0.5942230000000  0.6564530000000 1.0
C      1  0.6485050000000  0.5939470000000  0.5489260000000 1.0
END
