TITL C-1525613-7943-1691 -0.0911307500045053 3375 -8282.05010710972 0 0 60 (C10) n - 1
REM
REM in /home/nfs/bkarasulu/CARBON/AIRSS/Generating-Clusters/ReaxFF-fromJPCA2015/Units_Real/Try2-Higher-symm/Only-C60
REM
REM
REM
REM
REM
REM ./C.cell (863b2abdce7293c0672fb3ba77bf323a)
REM AIRSS Version 0.9.1 bugfix July 2018 build 013d7b7c2542+ Fri, 06 Jul 2018 19:26:36 +0100
REM compiler GCC version 9.2.1 20190827 (Red Hat 9.2.1-1)
REM options -cpp -mtune=generic -march=x86-64 -g -O0 -fpre-include=/usr/include/finclude/math-vector-fortran.h
REM seed 262499012 1646498075 1075543037 -1205740749 1882908152 257446738 -416800185 -930776494 976992743 -499773781 32642437 -1143831089 -1566457824 -1172668153 -1959104771 -1138896048 921132331 1973731326 1492649775 -1150850574 1193230897 689970239 -998112658 -2013215422 1592364601 -1405379586 1743716862 513175425 699683068 -1472825188 561980816 -363287159 -765513706
REM
CELL 1.54180   15.00000   15.00000   15.00000   90.00000   90.00000   90.00000
LATT -1
SFAC C  
C      1  0.6796860000000  0.4157510000000  0.3672700000000 1.0
C      1  0.6808030000000  0.5099790000000  0.3436100000000 1.0
C      1  0.6806830000000  0.5998540000000  0.3790580000000 1.0
C      1  0.6799390000000  0.6519470000000  0.4611120000000 1.0
C      1  0.6810370000000  0.6455180000000  0.5577380000000 1.0
C      1  0.6796850000000  0.5842490000000  0.6327300000000 1.0
C      1  0.6808030000000  0.4900210000000  0.6563890000000 1.0
C      1  0.6806830000000  0.4001460000000  0.6209420000000 1.0
C      1  0.6799380000000  0.3480540000000  0.5388890000000 1.0
C      1  0.6810370000000  0.3544820000000  0.4422620000000 1.0
C      1  0.5012760000000  0.2544240000000  0.6769740000000 1.0
C      1  0.5014150000000  0.1975370000000  0.4988530000000 1.0
C      1  0.5012190000000  0.2557200000000  0.3211630000000 1.0
C      1  0.5010790000000  0.4075280000000  0.2117190000000 1.0
C      1  0.5011550000000  0.5947340000000  0.2126330000000 1.0
C      1  0.5012760000000  0.7455790000000  0.3230280000000 1.0
C      1  0.5014150000000  0.8024640000000  0.5011480000000 1.0
C      1  0.5012190000000  0.7442780000000  0.6788360000000 1.0
C      1  0.5010790000000  0.5924740000000  0.7882800000000 1.0
C      1  0.5011560000000  0.4052600000000  0.7873640000000 1.0
C      1  0.3181810000000  0.3485290000000  0.5422930000000 1.0
C      1  0.3205450000000  0.3527760000000  0.4447460000000 1.0
C      1  0.3171780000000  0.4136990000000  0.3697160000000 1.0
C      1  0.3209370000000  0.5069600000000  0.3432810000000 1.0
C      1  0.3185920000000  0.5978680000000  0.3777330000000 1.0
C      1  0.3181720000000  0.6514710000000  0.4577270000000 1.0
C      1  0.3205470000000  0.6472190000000  0.5552570000000 1.0
C      1  0.3171910000000  0.5863100000000  0.6302720000000 1.0
C      1  0.3209180000000  0.4930480000000  0.6567330000000 1.0
C      1  0.3186020000000  0.4021350000000  0.6222560000000 1.0
C      1  0.4199420000000  0.5040650000000  0.3371170000000 1.0
C      1  0.4177200000000  0.5993760000000  0.3701960000000 1.0
C      1  0.4177020000000  0.6565750000000  0.4539000000000 1.0
C      1  0.4196650000000  0.6534280000000  0.5544540000000 1.0
C      1  0.4162610000000  0.5928780000000  0.6352630000000 1.0
C      1  0.4199670000000  0.4959480000000  0.6628860000000 1.0
C      1  0.4176920000000  0.4006130000000  0.6297810000000 1.0
C      1  0.4177050000000  0.3434190000000  0.5460920000000 1.0
C      1  0.4196730000000  0.3465690000000  0.4455630000000 1.0
C      1  0.4162780000000  0.4071120000000  0.3647380000000 1.0
C      1  0.5803340000000  0.3437510000000  0.5450880000000 1.0
C      1  0.5816490000000  0.3472260000000  0.4444600000000 1.0
C      1  0.5799140000000  0.4088620000000  0.3651870000000 1.0
C      1  0.5811980000000  0.5056900000000  0.3378030000000 1.0
C      1  0.5811260000000  0.6007540000000  0.3720150000000 1.0
C      1  0.5803340000000  0.6562480000000  0.4549120000000 1.0
C      1  0.5816490000000  0.6527740000000  0.5555410000000 1.0
C      1  0.5799130000000  0.5911380000000  0.6348140000000 1.0
C      1  0.5811980000000  0.4943100000000  0.6621960000000 1.0
C      1  0.5811230000000  0.3992440000000  0.6279870000000 1.0
C      1  0.4996000000000  0.4967930000000  0.7491280000000 1.0
C      1  0.5009970000000  0.3507360000000  0.6999340000000 1.0
C      1  0.4998350000000  0.2622980000000  0.5738840000000 1.0
C      1  0.4998160000000  0.2641980000000  0.4200700000000 1.0
C      1  0.5005080000000  0.3558570000000  0.2962620000000 1.0
C      1  0.4996060000000  0.5032090000000  0.2508640000000 1.0
C      1  0.5009780000000  0.6492560000000  0.3000780000000 1.0
C      1  0.4998500000000  0.7377170000000  0.4261080000000 1.0
C      1  0.4998100000000  0.7357970000000  0.5799290000000 1.0
C      1  0.5005090000000  0.6441430000000  0.7037390000000 1.0
END
