TITL C-1525613-7943-2590 0.196696958011962 3375 -8224.91746466184 0 0 60 (C2) n - 1
REM
REM in /home/nfs/bkarasulu/CARBON/AIRSS/Generating-Clusters/ReaxFF-fromJPCA2015/Units_Real/Try2-Higher-symm/Only-C60
REM
REM
REM
REM
REM
REM ./C.cell (863b2abdce7293c0672fb3ba77bf323a)
REM AIRSS Version 0.9.1 bugfix July 2018 build 013d7b7c2542+ Fri, 06 Jul 2018 19:26:36 +0100
REM compiler GCC version 9.2.1 20190827 (Red Hat 9.2.1-1)
REM options -cpp -mtune=generic -march=x86-64 -g -O0 -fpre-include=/usr/include/finclude/math-vector-fortran.h
REM seed -89760546 212770010 -331566452 -1212618712 -1577072859 301425484 -1225598831 198816924 -1966597592 -1332574208 1693307219 -47703455 2146197992 5119115 -377954734 -854219843 -390329362 -1467805611 -1354938167 732670028 1648281044 599920339 2080300261 1363414465 1534943662 362567913 235409177 -1306513474 -2053817934 629131856 179393244 -826456191 -899817714
REM
CELL 1.54180   15.00000   15.00000   15.00000   90.00000   90.00000   90.00000
LATT -1
SFAC C  
C      1  0.7107930000000  0.5658720000000  0.3824260000000 1.0
C      1  0.7100460000000  0.4853440000000  0.3658430000000 1.0
C      1  0.7104020000000  0.4109440000000  0.4027850000000 1.0
C      1  0.7113630000000  0.3666880000000  0.4723610000000 1.0
C      1  0.7115830000000  0.3807380000000  0.5538350000000 1.0
C      1  0.7107870000000  0.4341270000000  0.6175710000000 1.0
C      1  0.7100390000000  0.5146550000000  0.6341490000000 1.0
C      1  0.7103940000000  0.5890560000000  0.5972140000000 1.0
C      1  0.7113690000000  0.6333180000000  0.5276430000000 1.0
C      1  0.7115970000000  0.6192640000000  0.4461630000000 1.0
C      1  0.5759760000000  0.6220410000000  0.2325030000000 1.0
C      1  0.5787570000000  0.4450980000000  0.2147760000000 1.0
C      1  0.5831790000000  0.2828080000000  0.3038820000000 1.0
C      1  0.5846870000000  0.2061490000000  0.4612560000000 1.0
C      1  0.5876030000000  0.2433210000000  0.6426930000000 1.0
C      1  0.5760300000000  0.3779270000000  0.7674950000000 1.0
C      1  0.5789200000000  0.5546970000000  0.7853810000000 1.0
C      1  0.5833300000000  0.7172370000000  0.6961060000000 1.0
C      1  0.5846260000000  0.7936170000000  0.5387230000000 1.0
C      1  0.5875600000000  0.7567510000000  0.3572540000000 1.0
C      1  0.3638770000000  0.5195470000000  0.6729910000000 1.0
C      1  0.3219660000000  0.6056660000000  0.6581840000000 1.0
C      1  0.4008330000000  0.6762740000000  0.5386890000000 1.0
C      1  0.3548600000000  0.6937720000000  0.4557900000000 1.0
C      1  0.3178030000000  0.6022850000000  0.3647990000000 1.0
C      1  0.3640450000000  0.4804250000000  0.3269710000000 1.0
C      1  0.3218510000000  0.3943690000000  0.3416140000000 1.0
C      1  0.4011510000000  0.3242880000000  0.4614010000000 1.0
C      1  0.3551090000000  0.3059140000000  0.5444060000000 1.0
C      1  0.3177870000000  0.3978160000000  0.6352420000000 1.0
C      1  0.3216290000000  0.6591290000000  0.5820130000000 1.0
C      1  0.2689020000000  0.6738860000000  0.5019880000000 1.0
C      1  0.2839500000000  0.6645110000000  0.4072940000000 1.0
C      1  0.3044780000000  0.5494840000000  0.3016030000000 1.0
C      1  0.2673670000000  0.4629320000000  0.3090410000000 1.0
C      1  0.3222400000000  0.3409860000000  0.4180110000000 1.0
C      1  0.2692840000000  0.3259960000000  0.4980150000000 1.0
C      1  0.2837570000000  0.3356040000000  0.5926980000000 1.0
C      1  0.3044900000000  0.4504650000000  0.6984640000000 1.0
C      1  0.2673910000000  0.5370830000000  0.6909780000000 1.0
C      1  0.5362910000000  0.6456540000000  0.4679810000000 1.0
C      1  0.5177590000000  0.6033360000000  0.3849790000000 1.0
C      1  0.4930730000000  0.5166740000000  0.3430340000000 1.0
C      1  0.5146700000000  0.4244360000000  0.3657510000000 1.0
C      1  0.4923470000000  0.3545260000000  0.4387350000000 1.0
C      1  0.5362990000000  0.3543320000000  0.5322440000000 1.0
C      1  0.5177660000000  0.3966800000000  0.6148010000000 1.0
C      1  0.4928170000000  0.4835300000000  0.6569810000000 1.0
C      1  0.5145070000000  0.5756470000000  0.6348530000000 1.0
C      1  0.4929190000000  0.6452730000000  0.5601900000000 1.0
C      1  0.5529390000000  0.7286580000000  0.6039790000000 1.0
C      1  0.5678620000000  0.7367950000000  0.4526940000000 1.0
C      1  0.5554990000000  0.6678460000000  0.3191080000000 1.0
C      1  0.5420330000000  0.5290910000000  0.2536920000000 1.0
C      1  0.5566350000000  0.3823150000000  0.2916970000000 1.0
C      1  0.5528670000000  0.2713640000000  0.3962740000000 1.0
C      1  0.5675030000000  0.2632220000000  0.5471220000000 1.0
C      1  0.5557490000000  0.3320190000000  0.6810630000000 1.0
C      1  0.5419570000000  0.4709920000000  0.7460780000000 1.0
C      1  0.5566940000000  0.6175260000000  0.7084930000000 1.0
END
