TITL C-1525613-7943-3590 1.2706286781084 3375 -6734.07118425427 0 0 60 (C1) n - 1
REM
REM in /home/nfs/bkarasulu/CARBON/AIRSS/Generating-Clusters/ReaxFF-fromJPCA2015/Units_Real/Try2-Higher-symm/Only-C60
REM
REM
REM
REM
REM
REM ./C.cell (863b2abdce7293c0672fb3ba77bf323a)
REM AIRSS Version 0.9.1 bugfix July 2018 build 013d7b7c2542+ Fri, 06 Jul 2018 19:26:36 +0100
REM compiler GCC version 9.2.1 20190827 (Red Hat 9.2.1-1)
REM options -cpp -mtune=generic -march=x86-64 -g -O0 -fpre-include=/usr/include/finclude/math-vector-fortran.h
REM seed -748441129 -1412380438 -969630548 1028784660 1998712631 1303980533 1853022891 -1520387372 343864301 -1604267372 1918640102 1766038113 -1428552584 336483404 -640010160 -616900125 1337979920 1062638744 -959212031 -1309853671 486750045 1364772766 -1440825966 -666926670 1441729216 -1065298543 -206642087 1141312231 -841118184 -1083694417 -889038374 112332739 589718410
REM
CELL 1.54180   15.00000   15.00000   15.00000   90.00000   90.00000   90.00000
LATT -1
SFAC C  
C      1  0.5468400000000  0.3933870000000  0.4866390000000 1.0
C      1  0.6159510000000  0.5115530000000  0.4865870000000 1.0
C      1  0.5247230000000  0.6139300000000  0.4864530000000 1.0
C      1  0.3991700000000  0.5589410000000  0.4865500000000 1.0
C      1  0.4129650000000  0.4225130000000  0.4866300000000 1.0
C      1  0.4531600000000  0.3933890000000  0.5133620000000 1.0
C      1  0.3840510000000  0.5115560000000  0.5134160000000 1.0
C      1  0.4752770000000  0.6139300000000  0.5135450000000 1.0
C      1  0.6008290000000  0.5589440000000  0.5134480000000 1.0
C      1  0.5870370000000  0.4225120000000  0.5133770000000 1.0
C      1  0.3559320000000  0.2944940000000  0.6774010000000 1.0
C      1  0.6510180000000  0.2995120000000  0.6772610000000 1.0
C      1  0.7372560000000  0.5817680000000  0.6772900000000 1.0
C      1  0.4956700000000  0.7507910000000  0.6772330000000 1.0
C      1  0.2600980000000  0.5733620000000  0.6772840000000 1.0
C      1  0.6440700000000  0.2944950000000  0.3225990000000 1.0
C      1  0.3489830000000  0.2995070000000  0.3227380000000 1.0
C      1  0.2627440000000  0.5817680000000  0.3227110000000 1.0
C      1  0.5043310000000  0.7507910000000  0.3227670000000 1.0
C      1  0.7399020000000  0.5733620000000  0.3227150000000 1.0
C      1  0.5757120000000  0.4643240000000  0.3313780000000 1.0
C      1  0.5573110000000  0.5609210000000  0.3314090000000 1.0
C      1  0.4597620000000  0.5732770000000  0.3314180000000 1.0
C      1  0.4178120000000  0.4843060000000  0.3313800000000 1.0
C      1  0.4894890000000  0.4169240000000  0.3313470000000 1.0
C      1  0.4242880000000  0.4643240000000  0.6686220000000 1.0
C      1  0.4426890000000  0.5609210000000  0.6685910000000 1.0
C      1  0.5402390000000  0.5732760000000  0.6685830000000 1.0
C      1  0.5821890000000  0.4843050000000  0.6686190000000 1.0
C      1  0.5105120000000  0.4169270000000  0.6686530000000 1.0
C      1  0.6685530000000  0.4623230000000  0.6226890000000 1.0
C      1  0.5878990000000  0.6485870000000  0.6227530000000 1.0
C      1  0.3857360000000  0.6294860000000  0.6226270000000 1.0
C      1  0.3414790000000  0.4314220000000  0.6227030000000 1.0
C      1  0.5162130000000  0.3279150000000  0.6228050000000 1.0
C      1  0.3314460000000  0.4623240000000  0.3773100000000 1.0
C      1  0.4121010000000  0.6485870000000  0.3772480000000 1.0
C      1  0.6142640000000  0.6294860000000  0.3773730000000 1.0
C      1  0.6585220000000  0.4314230000000  0.3772970000000 1.0
C      1  0.4837910000000  0.3279090000000  0.3771920000000 1.0
C      1  0.3000260000000  0.5178800000000  0.6356600000000 1.0
C      1  0.4211080000000  0.3153070000000  0.6357860000000 1.0
C      1  0.6516130000000  0.3681710000000  0.6359660000000 1.0
C      1  0.6723070000000  0.6030910000000  0.6356950000000 1.0
C      1  0.4552150000000  0.6956700000000  0.6356550000000 1.0
C      1  0.6999760000000  0.5178800000000  0.3643390000000 1.0
C      1  0.5788900000000  0.3153090000000  0.3642140000000 1.0
C      1  0.3483770000000  0.3681750000000  0.3640310000000 1.0
C      1  0.3276930000000  0.6030920000000  0.3643050000000 1.0
C      1  0.5447830000000  0.6956700000000  0.3643460000000 1.0
C      1  0.6956640000000  0.4804770000000  0.5260080000000 1.0
C      1  0.5791200000000  0.6801430000000  0.5260520000000 1.0
C      1  0.3532210000000  0.6306970000000  0.5260940000000 1.0
C      1  0.3303150000000  0.4007940000000  0.5261460000000 1.0
C      1  0.5418800000000  0.3080270000000  0.5261250000000 1.0
C      1  0.3043330000000  0.4804790000000  0.4739930000000 1.0
C      1  0.4208810000000  0.6801430000000  0.4739470000000 1.0
C      1  0.6467770000000  0.6306980000000  0.4739050000000 1.0
C      1  0.6696860000000  0.4007950000000  0.4738550000000 1.0
C      1  0.4581210000000  0.3080270000000  0.4738760000000 1.0
END
