TITL C-1525613-7943-1816 0.130899967548134 3375 -7770.87776647253 0 0 60 (D5) n - 1
REM
REM in /home/nfs/bkarasulu/CARBON/AIRSS/Generating-Clusters/ReaxFF-fromJPCA2015/Units_Real/Try2-Higher-symm/Only-C60
REM
REM
REM
REM
REM
REM ./C.cell (863b2abdce7293c0672fb3ba77bf323a)
REM AIRSS Version 0.9.1 bugfix July 2018 build 013d7b7c2542+ Fri, 06 Jul 2018 19:26:36 +0100
REM compiler GCC version 9.2.1 20190827 (Red Hat 9.2.1-1)
REM options -cpp -mtune=generic -march=x86-64 -g -O0 -fpre-include=/usr/include/finclude/math-vector-fortran.h
REM seed 251726203 1459056257 -1208095381 259786389 978372922 -955294960 1875615431 -1299472038 -2029609940 471072703 629219262 -512341278 -550283838 -1614549061 246471794 -1985612274 -1627753778 -500800738 -863214193 947263827 -19919699 -1389091370 -1860778004 -76832383 1254608867 1978780124 956954762 108577528 -1815205629 -1165408860 1017797397 -1231425744 -1358117088
REM
CELL 1.54180   15.00000   15.00000   15.00000   90.00000   90.00000   90.00000
LATT -1
SFAC C  
C      1  0.4198230000000  0.4374480000000  0.4300910000000 1.0
C      1  0.4198970000000  0.5464570000000  0.4186710000000 1.0
C      1  0.4203940000000  0.5914150000000  0.5198120000000 1.0
C      1  0.4199480000000  0.5098500000000  0.5934980000000 1.0
C      1  0.4204260000000  0.4147170000000  0.5381970000000 1.0
C      1  0.5801770000000  0.5625520000000  0.4300910000000 1.0
C      1  0.5801030000000  0.4535430000000  0.4186710000000 1.0
C      1  0.5796060000000  0.4085850000000  0.5198120000000 1.0
C      1  0.5800520000000  0.4901500000000  0.5934980000000 1.0
C      1  0.5795740000000  0.5852830000000  0.5381970000000 1.0
C      1  0.5350160000000  0.7321000000000  0.5347290000000 1.0
C      1  0.5351340000000  0.5386390000000  0.7312200000000 1.0
C      1  0.5349400000000  0.2918530000000  0.6083030000000 1.0
C      1  0.5354430000000  0.3326640000000  0.3359510000000 1.0
C      1  0.5353200000000  0.6040680000000  0.2900570000000 1.0
C      1  0.4649840000000  0.2679000000000  0.5347290000000 1.0
C      1  0.4648660000000  0.4613610000000  0.7312200000000 1.0
C      1  0.4650600000000  0.7081470000000  0.6083030000000 1.0
C      1  0.4645570000000  0.6673360000000  0.3359510000000 1.0
C      1  0.4646800000000  0.3959320000000  0.2900570000000 1.0
C      1  0.6634970000000  0.3991310000000  0.4043650000000 1.0
C      1  0.6638100000000  0.5593760000000  0.3744180000000 1.0
C      1  0.6631900000000  0.6376380000000  0.5170070000000 1.0
C      1  0.6638640000000  0.5258390000000  0.6366870000000 1.0
C      1  0.6632730000000  0.3785480000000  0.5672750000000 1.0
C      1  0.3365030000000  0.6008690000000  0.4043650000000 1.0
C      1  0.3361900000000  0.4406240000000  0.3744180000000 1.0
C      1  0.3368100000000  0.3623620000000  0.5170070000000 1.0
C      1  0.3361360000000  0.4741610000000  0.6366870000000 1.0
C      1  0.3367270000000  0.6214520000000  0.5672750000000 1.0
C      1  0.2565380000000  0.4684410000000  0.4227940000000 1.0
C      1  0.2569310000000  0.5637680000000  0.4460430000000 1.0
C      1  0.2567940000000  0.5708880000000  0.5438280000000 1.0
C      1  0.2565220000000  0.4802000000000  0.5809070000000 1.0
C      1  0.2567750000000  0.4168810000000  0.5061970000000 1.0
C      1  0.7434620000000  0.5315590000000  0.4227940000000 1.0
C      1  0.7430690000000  0.4362320000000  0.4460430000000 1.0
C      1  0.7432060000000  0.4291120000000  0.5438280000000 1.0
C      1  0.7434780000000  0.5198000000000  0.5809070000000 1.0
C      1  0.7432250000000  0.5831190000000  0.5061970000000 1.0
C      1  0.6160440000000  0.3551420000000  0.6555830000000 1.0
C      1  0.6158720000000  0.3078090000000  0.4102220000000 1.0
C      1  0.6156140000000  0.5257630000000  0.2894050000000 1.0
C      1  0.6160210000000  0.7084630000000  0.4593270000000 1.0
C      1  0.6163350000000  0.6027160000000  0.6856810000000 1.0
C      1  0.3839560000000  0.6448580000000  0.6555830000000 1.0
C      1  0.3841280000000  0.6921910000000  0.4102220000000 1.0
C      1  0.3843860000000  0.4742370000000  0.2894050000000 1.0
C      1  0.3839790000000  0.2915370000000  0.4593270000000 1.0
C      1  0.3836650000000  0.3972840000000  0.6856810000000 1.0
C      1  0.5523880000000  0.6607340000000  0.6014500000000 1.0
C      1  0.5522490000000  0.4530840000000  0.6839710000000 1.0
C      1  0.5524670000000  0.3102240000000  0.5124070000000 1.0
C      1  0.5524250000000  0.4297690000000  0.3234110000000 1.0
C      1  0.5520990000000  0.6459800000000  0.3784900000000 1.0
C      1  0.4476120000000  0.3392660000000  0.6014500000000 1.0
C      1  0.4477510000000  0.5469160000000  0.6839710000000 1.0
C      1  0.4475330000000  0.6897760000000  0.5124070000000 1.0
C      1  0.4475750000000  0.5702310000000  0.3234110000000 1.0
C      1  0.4479010000000  0.3540200000000  0.3784900000000 1.0
END
