TITL C-1525613-7943-3772 0.039800999428569 3375 -9083.92659009464 0 0 60 (C1) n - 1
REM
REM in /home/nfs/bkarasulu/CARBON/AIRSS/Generating-Clusters/ReaxFF-fromJPCA2015/Units_Real/Try2-Higher-symm/Only-C60
REM
REM
REM
REM
REM
REM ./C.cell (863b2abdce7293c0672fb3ba77bf323a)
REM AIRSS Version 0.9.1 bugfix July 2018 build 013d7b7c2542+ Fri, 06 Jul 2018 19:26:36 +0100
REM compiler GCC version 9.2.1 20190827 (Red Hat 9.2.1-1)
REM options -cpp -mtune=generic -march=x86-64 -g -O0 -fpre-include=/usr/include/finclude/math-vector-fortran.h
REM seed -1428870294 925743671 -921840534 280850608 -771465043 -936054448 -1724625090 992124659 -932346090 -440073976 -1281337408 750300920 854621660 -660624644 -1710519317 298355582 1861158096 -362420997 -652523404 -713871533 1869815514 -1345382329 -1603027167 699957417 1257313370 1745770618 713826388 -897495378 1931677550 629464040 -1257766322 1529583456 -549225005
REM
CELL 1.54180   15.00000   15.00000   15.00000   90.00000   90.00000   90.00000
LATT -1
SFAC C  
C      1  0.3773740000000  0.7269950000000  0.5965320000000 1.0
C      1  0.3756910000000  0.6299660000000  0.7155880000000 1.0
C      1  0.3794440000000  0.4778470000000  0.7479680000000 1.0
C      1  0.3837320000000  0.3390710000000  0.6820660000000 1.0
C      1  0.3741540000000  0.2571020000000  0.5552530000000 1.0
C      1  0.3772360000000  0.2740970000000  0.4036400000000 1.0
C      1  0.3866630000000  0.3749120000000  0.2865820000000 1.0
C      1  0.3761790000000  0.5240660000000  0.2543180000000 1.0
C      1  0.3823080000000  0.6622430000000  0.3177900000000 1.0
C      1  0.3720260000000  0.7429150000000  0.4451760000000 1.0
C      1  0.5196390000000  0.7591340000000  0.5237890000000 1.0
C      1  0.5234590000000  0.6997820000000  0.6758970000000 1.0
C      1  0.5183690000000  0.5646340000000  0.7678760000000 1.0
C      1  0.5265500000000  0.3952770000000  0.7462970000000 1.0
C      1  0.5270440000000  0.2744800000000  0.6255080000000 1.0
C      1  0.5189670000000  0.2399710000000  0.4756790000000 1.0
C      1  0.5236970000000  0.2978430000000  0.3245470000000 1.0
C      1  0.5288200000000  0.4485680000000  0.2483810000000 1.0
C      1  0.5252320000000  0.6015050000000  0.2649790000000 1.0
C      1  0.5257140000000  0.7233620000000  0.3751540000000 1.0
C      1  0.4813560000000  0.6707060000000  0.3107210000000 1.0
C      1  0.4699970000000  0.7587670000000  0.4436210000000 1.0
C      1  0.4742690000000  0.7420520000000  0.6027710000000 1.0
C      1  0.4704070000000  0.6424820000000  0.7338990000000 1.0
C      1  0.4755520000000  0.4771720000000  0.7701180000000 1.0
C      1  0.4830850000000  0.3251690000000  0.6938820000000 1.0
C      1  0.4712420000000  0.2422600000000  0.5558170000000 1.0
C      1  0.4729990000000  0.2568270000000  0.3965820000000 1.0
C      1  0.4860710000000  0.3666020000000  0.2701580000000 1.0
C      1  0.4736850000000  0.5253400000000  0.2404030000000 1.0
C      1  0.3415470000000  0.5870470000000  0.2998280000000 1.0
C      1  0.3407140000000  0.6853730000000  0.3899100000000 1.0
C      1  0.3390980000000  0.7140290000000  0.5195400000000 1.0
C      1  0.3417470000000  0.6625420000000  0.6424540000000 1.0
C      1  0.3444950000000  0.5486300000000  0.7113460000000 1.0
C      1  0.3474830000000  0.4158320000000  0.6976250000000 1.0
C      1  0.3435080000000  0.3155160000000  0.6098550000000 1.0
C      1  0.3394240000000  0.2846230000000  0.4802800000000 1.0
C      1  0.3438640000000  0.3406540000000  0.3599500000000 1.0
C      1  0.3422810000000  0.4548140000000  0.2921890000000 1.0
C      1  0.6128650000000  0.7149030000000  0.4105060000000 1.0
C      1  0.6106580000000  0.7359110000000  0.5021940000000 1.0
C      1  0.6090790000000  0.6655440000000  0.6490920000000 1.0
C      1  0.5933870000000  0.5378210000000  0.7174430000000 1.0
C      1  0.6048800000000  0.3961620000000  0.6948800000000 1.0
C      1  0.6199140000000  0.2769400000000  0.5907780000000 1.0
C      1  0.6100360000000  0.2619670000000  0.4954200000000 1.0
C      1  0.5981440000000  0.3436720000000  0.3487560000000 1.0
C      1  0.6187750000000  0.4809950000000  0.2632560000000 1.0
C      1  0.6128030000000  0.5735000000000  0.2777290000000 1.0
C      1  0.6641810000000  0.5683950000000  0.3589900000000 1.0
C      1  0.6685720000000  0.6391440000000  0.4235880000000 1.0
C      1  0.6632320000000  0.6544170000000  0.5211750000000 1.0
C      1  0.6785110000000  0.6178160000000  0.6128670000000 1.0
C      1  0.6621260000000  0.5260840000000  0.6607830000000 1.0
C      1  0.6759040000000  0.4226570000000  0.6438680000000 1.0
C      1  0.6804650000000  0.3533560000000  0.5727500000000 1.0
C      1  0.6632540000000  0.3432180000000  0.4759230000000 1.0
C      1  0.6704690000000  0.3843900000000  0.3849090000000 1.0
C      1  0.6776230000000  0.4728960000000  0.3411270000000 1.0
END
