TITL C-1525613-7943-758 -0.0841176649254165 3375 -9376.91471233224 0 0 60 (C2) n - 1
REM
REM in /home/nfs/bkarasulu/CARBON/AIRSS/Generating-Clusters/ReaxFF-fromJPCA2015/Units_Real/Try2-Higher-symm/Only-C60
REM
REM
REM
REM
REM
REM ./C.cell (863b2abdce7293c0672fb3ba77bf323a)
REM AIRSS Version 0.9.1 bugfix July 2018 build 013d7b7c2542+ Fri, 06 Jul 2018 19:26:36 +0100
REM compiler GCC version 9.2.1 20190827 (Red Hat 9.2.1-1)
REM options -cpp -mtune=generic -march=x86-64 -g -O0 -fpre-include=/usr/include/finclude/math-vector-fortran.h
REM seed -1144114938 -1325174598 -806052582 -1887919684 2079406085 -855544606 -1317382950 -58555505 426884002 1140872048 -996682249 -1968301036 -1275901365 127134807 1306896648 -458382363 1313026455 922403167 -1279475758 -1677322179 1682124668 1389884222 -1369367656 578973460 -119186475 -2039320932 1114069910 584043113 1119670321 -1728976135 576969811 -779283382 -1044220168
REM
CELL 1.54180   15.00000   15.00000   15.00000   90.00000   90.00000   90.00000
LATT -1
SFAC C  
C      1  0.6009880000000  0.7203420000000  0.4919730000000 1.0
C      1  0.3196480000000  0.6650940000000  0.4973750000000 1.0
C      1  0.2867750000000  0.3807830000000  0.4977580000000 1.0
C      1  0.5491480000000  0.2693790000000  0.4948680000000 1.0
C      1  0.7429220000000  0.4735290000000  0.4907910000000 1.0
C      1  0.3990000000000  0.7203920000000  0.5080150000000 1.0
C      1  0.6804030000000  0.6651310000000  0.5026120000000 1.0
C      1  0.7132410000000  0.3807580000000  0.5022490000000 1.0
C      1  0.4508780000000  0.2693750000000  0.5051150000000 1.0
C      1  0.2570530000000  0.4735260000000  0.5092200000000 1.0
C      1  0.2793050000000  0.6231660000000  0.5796530000000 1.0
C      1  0.3123280000000  0.3266520000000  0.5795470000000 1.0
C      1  0.6085400000000  0.2733360000000  0.5765040000000 1.0
C      1  0.7486300000000  0.5299810000000  0.5731720000000 1.0
C      1  0.5491520000000  0.7445630000000  0.5752880000000 1.0
C      1  0.7207160000000  0.6231370000000  0.4203250000000 1.0
C      1  0.6877010000000  0.3265750000000  0.4204870000000 1.0
C      1  0.3914690000000  0.2733300000000  0.4234590000000 1.0
C      1  0.2513280000000  0.5299480000000  0.4268260000000 1.0
C      1  0.4507980000000  0.7445870000000  0.4247000000000 1.0
C      1  0.3171950000000  0.4824040000000  0.6696340000000 1.0
C      1  0.4597650000000  0.3235850000000  0.6662260000000 1.0
C      1  0.6557970000000  0.4112840000000  0.6599360000000 1.0
C      1  0.6357230000000  0.6193150000000  0.6628590000000 1.0
C      1  0.4247430000000  0.6647500000000  0.6658750000000 1.0
C      1  0.6827970000000  0.4823250000000  0.3303850000000 1.0
C      1  0.5402510000000  0.3235980000000  0.3337940000000 1.0
C      1  0.3442330000000  0.4113020000000  0.3400540000000 1.0
C      1  0.3642640000000  0.6192910000000  0.3371860000000 1.0
C      1  0.5752630000000  0.6647840000000  0.3340870000000 1.0
C      1  0.4789370000000  0.4208240000000  0.6886770000000 1.0
C      1  0.5687810000000  0.4578650000000  0.6876600000000 1.0
C      1  0.5609730000000  0.5545510000000  0.6876060000000 1.0
C      1  0.4654180000000  0.5761660000000  0.6920620000000 1.0
C      1  0.4156900000000  0.4927240000000  0.6909740000000 1.0
C      1  0.5210810000000  0.4208140000000  0.3113120000000 1.0
C      1  0.4312350000000  0.4578900000000  0.3123270000000 1.0
C      1  0.4390560000000  0.5545690000000  0.3124100000000 1.0
C      1  0.5346110000000  0.5761700000000  0.3079560000000 1.0
C      1  0.5843180000000  0.4927160000000  0.3089940000000 1.0
C      1  0.6567680000000  0.6275020000000  0.3540400000000 1.0
C      1  0.4243620000000  0.6860640000000  0.3583780000000 1.0
C      1  0.3021120000000  0.4913280000000  0.3585920000000 1.0
C      1  0.4634690000000  0.2817780000000  0.3650550000000 1.0
C      1  0.7002040000000  0.3968750000000  0.3619130000000 1.0
C      1  0.3432260000000  0.6274290000000  0.6460070000000 1.0
C      1  0.5756240000000  0.6860530000000  0.6416170000000 1.0
C      1  0.6978750000000  0.4913380000000  0.6414020000000 1.0
C      1  0.5365160000000  0.2817720000000  0.6349070000000 1.0
C      1  0.2997510000000  0.3969380000000  0.6381140000000 1.0
C      1  0.4527590000000  0.7239090000000  0.5883020000000 1.0
C      1  0.2662340000000  0.5245390000000  0.5914590000000 1.0
C      1  0.4056640000000  0.2918510000000  0.5876910000000 1.0
C      1  0.6720610000000  0.3491860000000  0.5840240000000 1.0
C      1  0.7011340000000  0.6167440000000  0.5839530000000 1.0
C      1  0.5472130000000  0.7238530000000  0.4117250000000 1.0
C      1  0.7337470000000  0.5245050000000  0.4085290000000 1.0
C      1  0.5943280000000  0.2919210000000  0.4123110000000 1.0
C      1  0.3279550000000  0.3492000000000  0.4159670000000 1.0
C      1  0.2988390000000  0.6167060000000  0.4160600000000 1.0
END
