TITL C-1525613-7943-4493 -0.071072235810062 3375 -8886.99242164697 0 0 60 (Cs) n - 1
REM
REM in /home/nfs/bkarasulu/CARBON/AIRSS/Generating-Clusters/ReaxFF-fromJPCA2015/Units_Real/Try2-Higher-symm/Only-C60
REM
REM
REM
REM
REM
REM ./C.cell (863b2abdce7293c0672fb3ba77bf323a)
REM AIRSS Version 0.9.1 bugfix July 2018 build 013d7b7c2542+ Fri, 06 Jul 2018 19:26:36 +0100
REM compiler GCC version 9.2.1 20190827 (Red Hat 9.2.1-1)
REM options -cpp -mtune=generic -march=x86-64 -g -O0 -fpre-include=/usr/include/finclude/math-vector-fortran.h
REM seed 2050466932 1802418470 -79146579 961092374 1392822140 1882369738 -490879390 -895425033 844977093 -2032807647 -1522242069 1668482672 -1303144188 -644242853 -166802896 1051198015 1798767241 -2042665013 892080271 113985736 1594318158 -1979818899 -688799918 1726642907 -1325450276 -75417995 1873362665 697049769 565095268 272297716 -745722838 -452904571 1231560089
REM
CELL 1.54180   15.00000   15.00000   15.00000   90.00000   90.00000   90.00000
LATT -1
SFAC C  
C      1  0.7259860000000  0.5086760000000  0.4518420000000 1.0
C      1  0.5777480000000  0.2899390000000  0.4517890000000 1.0
C      1  0.3215940000000  0.3582170000000  0.4518340000000 1.0
C      1  0.3122130000000  0.6262890000000  0.4517480000000 1.0
C      1  0.5623610000000  0.7207250000000  0.4515600000000 1.0
C      1  0.7259860000000  0.5086760000000  0.5481580000000 1.0
C      1  0.5777490000000  0.2899390000000  0.5482090000000 1.0
C      1  0.3215250000000  0.3582350000000  0.5481860000000 1.0
C      1  0.3122130000000  0.6262900000000  0.5482520000000 1.0
C      1  0.5623610000000  0.7207250000000  0.5484390000000 1.0
C      1  0.4882640000000  0.5804440000000  0.5511490000000 1.0
C      1  0.5718490000000  0.5350840000000  0.5740770000000 1.0
C      1  0.5581440000000  0.4434730000000  0.5742070000000 1.0
C      1  0.4647220000000  0.4256520000000  0.5512000000000 1.0
C      1  0.4179970000000  0.5119250000000  0.5489830000000 1.0
C      1  0.4882650000000  0.5804440000000  0.4488510000000 1.0
C      1  0.5718490000000  0.5350850000000  0.4259230000000 1.0
C      1  0.5581450000000  0.4434730000000  0.4257920000000 1.0
C      1  0.4647120000000  0.4256340000000  0.4487990000000 1.0
C      1  0.4179970000000  0.5119260000000  0.4510170000000 1.0
C      1  0.5841970000000  0.4768880000000  0.7402970000000 1.0
C      1  0.5048040000000  0.4137960000000  0.7398680000000 1.0
C      1  0.4203170000000  0.4694880000000  0.7393050000000 1.0
C      1  0.4475090000000  0.5670840000000  0.7390630000000 1.0
C      1  0.5484690000000  0.5716010000000  0.7399960000000 1.0
C      1  0.5841960000000  0.4768870000000  0.2597030000000 1.0
C      1  0.5048050000000  0.4137950000000  0.2601320000000 1.0
C      1  0.4203170000000  0.4694870000000  0.2606940000000 1.0
C      1  0.4475100000000  0.5670860000000  0.2609380000000 1.0
C      1  0.5484690000000  0.5716020000000  0.2600040000000 1.0
C      1  0.5044460000000  0.3446940000000  0.6793920000000 1.0
C      1  0.3556210000000  0.4483010000000  0.6779300000000 1.0
C      1  0.4072170000000  0.6217000000000  0.6774950000000 1.0
C      1  0.5880950000000  0.6295190000000  0.6801660000000 1.0
C      1  0.6523390000000  0.4559050000000  0.6816130000000 1.0
C      1  0.5044450000000  0.3446930000000  0.3206110000000 1.0
C      1  0.3556230000000  0.4483010000000  0.3220670000000 1.0
C      1  0.4072170000000  0.6217000000000  0.3225050000000 1.0
C      1  0.5880950000000  0.6295190000000  0.3198350000000 1.0
C      1  0.6523390000000  0.4559050000000  0.3183870000000 1.0
C      1  0.7030950000000  0.4342680000000  0.6077960000000 1.0
C      1  0.4992350000000  0.2884710000000  0.6071510000000 1.0
C      1  0.3003390000000  0.4359500000000  0.6065620000000 1.0
C      1  0.3775540000000  0.6707290000000  0.6065110000000 1.0
C      1  0.6243930000000  0.6701850000000  0.6070420000000 1.0
C      1  0.7030950000000  0.4342680000000  0.3922050000000 1.0
C      1  0.4992100000000  0.2884830000000  0.3928650000000 1.0
C      1  0.3003360000000  0.4359410000000  0.3934410000000 1.0
C      1  0.3775540000000  0.6707290000000  0.3934890000000 1.0
C      1  0.6243930000000  0.6701850000000  0.3929580000000 1.0
C      1  0.4140920000000  0.3203290000000  0.5516290000000 1.0
C      1  0.3119650000000  0.5252580000000  0.5521720000000 1.0
C      1  0.4657220000000  0.6958520000000  0.5513350000000 1.0
C      1  0.6583510000000  0.5835200000000  0.5558130000000 1.0
C      1  0.6314050000000  0.3760270000000  0.5557270000000 1.0
C      1  0.4141080000000  0.3203460000000  0.4483320000000 1.0
C      1  0.3119660000000  0.5252610000000  0.4478300000000 1.0
C      1  0.4657220000000  0.6958520000000  0.4486650000000 1.0
C      1  0.6583510000000  0.5835200000000  0.4441870000000 1.0
C      1  0.6314060000000  0.3760270000000  0.4442730000000 1.0
END
