TITL C-1525613-7943-2254 -0.0151501476111024 3375 -9197.96862510912 0 0 60 (C1) n - 1
REM
REM in /home/nfs/bkarasulu/CARBON/AIRSS/Generating-Clusters/ReaxFF-fromJPCA2015/Units_Real/Try2-Higher-symm/Only-C60
REM
REM
REM
REM
REM
REM ./C.cell (863b2abdce7293c0672fb3ba77bf323a)
REM AIRSS Version 0.9.1 bugfix July 2018 build 013d7b7c2542+ Fri, 06 Jul 2018 19:26:36 +0100
REM compiler GCC version 9.2.1 20190827 (Red Hat 9.2.1-1)
REM options -cpp -mtune=generic -march=x86-64 -g -O0 -fpre-include=/usr/include/finclude/math-vector-fortran.h
REM seed 1621458651 -1001550126 -506638727 -875836578 -805381941 492962184 1997465626 491581126 1302894328 -2065839754 1710830707 -1772660083 190650240 1415481463 823198494 -1923004638 -1391341857 -68789056 657180524 -1714826105 372225277 -1876092010 -706095907 75193588 -51721408 1212071589 -367574444 -1622235196 308346201 719502318 797461305 -676110987 -1571426834
REM
CELL 1.54180   15.00000   15.00000   15.00000   90.00000   90.00000   90.00000
LATT -1
SFAC C  
C      1  0.7163230000000  0.4157240000000  0.4826300000000 1.0
C      1  0.5861590000000  0.4191930000000  0.6994840000000 1.0
C      1  0.3397550000000  0.4168140000000  0.6414870000000 1.0
C      1  0.3078500000000  0.4258110000000  0.3860070000000 1.0
C      1  0.5453600000000  0.4109910000000  0.2888990000000 1.0
C      1  0.2825260000000  0.5867980000000  0.4821690000000 1.0
C      1  0.4142560000000  0.5830670000000  0.6984150000000 1.0
C      1  0.6613640000000  0.5852200000000  0.6418630000000 1.0
C      1  0.6866540000000  0.5782250000000  0.3868070000000 1.0
C      1  0.4554150000000  0.5924040000000  0.2901360000000 1.0
C      1  0.4966620000000  0.6994110000000  0.5887050000000 1.0
C      1  0.4169260000000  0.7006610000000  0.5328180000000 1.0
C      1  0.4447040000000  0.7101820000000  0.4425240000000 1.0
C      1  0.5408540000000  0.7054500000000  0.4469930000000 1.0
C      1  0.5763340000000  0.7024530000000  0.5361380000000 1.0
C      1  0.5052020000000  0.2979070000000  0.5920810000000 1.0
C      1  0.5858620000000  0.2980910000000  0.5347840000000 1.0
C      1  0.5625310000000  0.2879480000000  0.4435520000000 1.0
C      1  0.4671220000000  0.2826050000000  0.4559420000000 1.0
C      1  0.4250790000000  0.2943110000000  0.5412730000000 1.0
C      1  0.5453860000000  0.5982260000000  0.4330280000000 1.0
C      1  0.5769660000000  0.5528180000000  0.5167180000000 1.0
C      1  0.4976370000000  0.5468080000000  0.5739450000000 1.0
C      1  0.4197800000000  0.5452220000000  0.5099930000000 1.0
C      1  0.4533340000000  0.5722630000000  0.4244310000000 1.0
C      1  0.4521260000000  0.3882380000000  0.4318000000000 1.0
C      1  0.4224220000000  0.4382170000000  0.5145860000000 1.0
C      1  0.5005100000000  0.4468580000000  0.5730300000000 1.0
C      1  0.5781570000000  0.4512000000000  0.5104900000000 1.0
C      1  0.5430600000000  0.4248300000000  0.4243750000000 1.0
C      1  0.4980760000000  0.6253680000000  0.6603210000000 1.0
C      1  0.3455900000000  0.6266300000000  0.5505210000000 1.0
C      1  0.4035250000000  0.6403390000000  0.3729550000000 1.0
C      1  0.6038230000000  0.6216580000000  0.3584350000000 1.0
C      1  0.6505860000000  0.6282430000000  0.5501460000000 1.0
C      1  0.5026810000000  0.3757940000000  0.6620550000000 1.0
C      1  0.6557600000000  0.3744590000000  0.5521280000000 1.0
C      1  0.5969640000000  0.3609830000000  0.3723830000000 1.0
C      1  0.3895930000000  0.3867960000000  0.3498230000000 1.0
C      1  0.3508390000000  0.3727110000000  0.5498860000000 1.0
C      1  0.7371760000000  0.5019630000000  0.5243630000000 1.0
C      1  0.5500240000000  0.5017840000000  0.7352830000000 1.0
C      1  0.2933590000000  0.4987660000000  0.6196010000000 1.0
C      1  0.3207760000000  0.5123510000000  0.3394140000000 1.0
C      1  0.5965210000000  0.4922910000000  0.2825640000000 1.0
C      1  0.2628630000000  0.4998080000000  0.5242200000000 1.0
C      1  0.4501020000000  0.5006930000000  0.7350470000000 1.0
C      1  0.7075090000000  0.5029390000000  0.6197920000000 1.0
C      1  0.6766720000000  0.4917150000000  0.3413670000000 1.0
C      1  0.4022250000000  0.5122290000000  0.2804890000000 1.0
C      1  0.3371900000000  0.5826010000000  0.6412220000000 1.0
C      1  0.3130750000000  0.5930400000000  0.3919830000000 1.0
C      1  0.5518520000000  0.5806170000000  0.2869080000000 1.0
C      1  0.7113790000000  0.5834720000000  0.4802380000000 1.0
C      1  0.5836860000000  0.5846050000000  0.6979620000000 1.0
C      1  0.6633620000000  0.4195200000000  0.6423060000000 1.0
C      1  0.6850860000000  0.4105490000000  0.3922220000000 1.0
C      1  0.4486740000000  0.4243030000000  0.2820940000000 1.0
C      1  0.2880350000000  0.4183650000000  0.4808010000000 1.0
C      1  0.4166810000000  0.4174610000000  0.6983700000000 1.0
END
