TITL C-1525613-7943-2330 -0.170908164305597 3375 -8834.35537792231 0 0 60 (D5) n - 1
REM
REM in /home/nfs/bkarasulu/CARBON/AIRSS/Generating-Clusters/ReaxFF-fromJPCA2015/Units_Real/Try2-Higher-symm/Only-C60
REM
REM
REM
REM
REM
REM ./C.cell (863b2abdce7293c0672fb3ba77bf323a)
REM AIRSS Version 0.9.1 bugfix July 2018 build 013d7b7c2542+ Fri, 06 Jul 2018 19:26:36 +0100
REM compiler GCC version 9.2.1 20190827 (Red Hat 9.2.1-1)
REM options -cpp -mtune=generic -march=x86-64 -g -O0 -fpre-include=/usr/include/finclude/math-vector-fortran.h
REM seed -1408865022 224792622 -418497191 -596663814 71402100 -1752942207 -1764764039 -166771553 1151193854 -612430504 535066557 -104658775 1588356586 1561102151 1514264571 -551168423 -1036616369 820801616 114467964 -783570768 1811589314 1054991804 -1661269811 -900269476 589664368 -223469441 -706211703 -1633472225 406678271 1454400174 -438438657 -2105893816 1993643499
REM
CELL 1.54180   15.00000   15.00000   15.00000   90.00000   90.00000   90.00000
LATT -1
SFAC C  
C      1  0.3872630000000  0.4555730000000  0.3036900000000 1.0
C      1  0.6518670000000  0.4556260000000  0.3320690000000 1.0
C      1  0.7066210000000  0.4555760000000  0.5925700000000 1.0
C      1  0.4758350000000  0.4555810000000  0.7251290000000 1.0
C      1  0.2784800000000  0.4556250000000  0.5465470000000 1.0
C      1  0.6127370000000  0.5444270000000  0.3036900000000 1.0
C      1  0.3481330000000  0.5443740000000  0.3320690000000 1.0
C      1  0.2933790000000  0.5444240000000  0.5925700000000 1.0
C      1  0.5241650000000  0.5444190000000  0.7251290000000 1.0
C      1  0.7215200000000  0.5443750000000  0.5465470000000 1.0
C      1  0.4939440000000  0.6201120000000  0.4128080000000 1.0
C      1  0.5810550000000  0.6201110000000  0.4672140000000 1.0
C      1  0.5562230000000  0.6201090000000  0.5670270000000 1.0
C      1  0.4536320000000  0.6200910000000  0.5740790000000 1.0
C      1  0.4152520000000  0.6201460000000  0.4787210000000 1.0
C      1  0.5060560000000  0.3798880000000  0.4128080000000 1.0
C      1  0.4189450000000  0.3798890000000  0.4672140000000 1.0
C      1  0.4437770000000  0.3798910000000  0.5670270000000 1.0
C      1  0.5463680000000  0.3799090000000  0.5740790000000 1.0
C      1  0.5847480000000  0.3798540000000  0.4787210000000 1.0
C      1  0.6578660000000  0.5414870000000  0.4735500000000 1.0
C      1  0.5739530000000  0.5414670000000  0.6419800000000 1.0
C      1  0.3878350000000  0.5414740000000  0.6142030000000 1.0
C      1  0.3567430000000  0.5414730000000  0.4286430000000 1.0
C      1  0.5236450000000  0.5415610000000  0.3417000000000 1.0
C      1  0.3421340000000  0.4585130000000  0.4735500000000 1.0
C      1  0.4260470000000  0.4585330000000  0.6419800000000 1.0
C      1  0.6121650000000  0.4585260000000  0.6142030000000 1.0
C      1  0.6432570000000  0.4585270000000  0.4286430000000 1.0
C      1  0.4763550000000  0.4584390000000  0.3417000000000 1.0
C      1  0.6627580000000  0.3301910000000  0.6317630000000 1.0
C      1  0.4249550000000  0.3301940000000  0.6953970000000 1.0
C      1  0.2909620000000  0.3301450000000  0.4889740000000 1.0
C      1  0.4458870000000  0.3300860000000  0.2977480000000 1.0
C      1  0.6755400000000  0.3301570000000  0.3860970000000 1.0
C      1  0.3372420000000  0.6698090000000  0.6317630000000 1.0
C      1  0.5750450000000  0.6698060000000  0.6953970000000 1.0
C      1  0.7090380000000  0.6698550000000  0.4889740000000 1.0
C      1  0.5541130000000  0.6699140000000  0.2977480000000 1.0
C      1  0.3244600000000  0.6698430000000  0.3860970000000 1.0
C      1  0.3505740000000  0.3239000000000  0.4161610000000 1.0
C      1  0.5335610000000  0.3239700000000  0.3320640000000 1.0
C      1  0.6701360000000  0.3239520000000  0.4800220000000 1.0
C      1  0.5715860000000  0.3238990000000  0.6556090000000 1.0
C      1  0.3740940000000  0.3238970000000  0.6161950000000 1.0
C      1  0.6494260000000  0.6761000000000  0.4161610000000 1.0
C      1  0.4664390000000  0.6760300000000  0.3320640000000 1.0
C      1  0.3298640000000  0.6760480000000  0.4800220000000 1.0
C      1  0.4284140000000  0.6761010000000  0.6556090000000 1.0
C      1  0.6259060000000  0.6761030000000  0.6161950000000 1.0
C      1  0.6398120000000  0.6388670000000  0.3214920000000 1.0
C      1  0.7129710000000  0.6388570000000  0.5778320000000 1.0
C      1  0.4918310000000  0.6388550000000  0.7265390000000 1.0
C      1  0.2820090000000  0.6388870000000  0.5622750000000 1.0
C      1  0.3734330000000  0.6388940000000  0.3119020000000 1.0
C      1  0.3601880000000  0.3611330000000  0.3214920000000 1.0
C      1  0.2870290000000  0.3611430000000  0.5778320000000 1.0
C      1  0.5081690000000  0.3611450000000  0.7265390000000 1.0
C      1  0.7179910000000  0.3611130000000  0.5622750000000 1.0
C      1  0.6265670000000  0.3611060000000  0.3119020000000 1.0
END
