TITL C-1525613-7943-5739 -0.149483850789898 3375 -9105.49249011365 0 0 60 (C1) n - 1
REM
REM in /home/nfs/bkarasulu/CARBON/AIRSS/Generating-Clusters/ReaxFF-fromJPCA2015/Units_Real/Try2-Higher-symm/Only-C60
REM
REM
REM
REM
REM
REM ./C.cell (863b2abdce7293c0672fb3ba77bf323a)
REM AIRSS Version 0.9.1 bugfix July 2018 build 013d7b7c2542+ Fri, 06 Jul 2018 19:26:36 +0100
REM compiler GCC version 9.2.1 20190827 (Red Hat 9.2.1-1)
REM options -cpp -mtune=generic -march=x86-64 -g -O0 -fpre-include=/usr/include/finclude/math-vector-fortran.h
REM seed -1298699959 314883302 -2001205649 -206205579 613967770 288102201 -1066643056 1749906667 2020419407 -57246290 -1121684554 863719564 1181601272 1533869907 -1825037509 502647448 1212652857 -398847013 1502104868 1214993280 2143903505 -1500990526 914651466 351989659 -45639091 -1302890675 -714485019 2057483101 1623406589 -2016522795 2076092377 -1573395822 -1280607831
REM
CELL 1.54180   15.00000   15.00000   15.00000   90.00000   90.00000   90.00000
LATT -1
SFAC C  
C      1  0.6174810000000  0.6629950000000  0.3541350000000 1.0
C      1  0.6182920000000  0.4126950000000  0.2996840000000 1.0
C      1  0.6173040000000  0.2827320000000  0.5214300000000 1.0
C      1  0.6179390000000  0.4533420000000  0.7129740000000 1.0
C      1  0.6180940000000  0.6887540000000  0.6099460000000 1.0
C      1  0.6175350000000  0.3368470000000  0.3540790000000 1.0
C      1  0.6179190000000  0.5873810000000  0.2999860000000 1.0
C      1  0.6178430000000  0.7170030000000  0.5210890000000 1.0
C      1  0.6181320000000  0.5466290000000  0.7137360000000 1.0
C      1  0.6183540000000  0.3112540000000  0.6103190000000 1.0
C      1  0.5414830000000  0.3993080000000  0.7194040000000 1.0
C      1  0.5409270000000  0.6786370000000  0.6642950000000 1.0
C      1  0.5401690000000  0.7118870000000  0.3806850000000 1.0
C      1  0.5419880000000  0.4525150000000  0.2626170000000 1.0
C      1  0.5403420000000  0.2592440000000  0.4714960000000 1.0
C      1  0.5407240000000  0.6018430000000  0.7207820000000 1.0
C      1  0.5413100000000  0.3222650000000  0.6634930000000 1.0
C      1  0.5398660000000  0.2885120000000  0.3805790000000 1.0
C      1  0.5419000000000  0.5475480000000  0.2626550000000 1.0
C      1  0.5408940000000  0.7404770000000  0.4719240000000 1.0
C      1  0.2991720000000  0.6560140000000  0.4986170000000 1.0
C      1  0.2968440000000  0.5485170000000  0.3497240000000 1.0
C      1  0.3004130000000  0.3736680000000  0.4075470000000 1.0
C      1  0.2979630000000  0.3716750000000  0.5916970000000 1.0
C      1  0.2990290000000  0.5481030000000  0.6489750000000 1.0
C      1  0.2988910000000  0.3432790000000  0.4979250000000 1.0
C      1  0.2970260000000  0.4512940000000  0.3496840000000 1.0
C      1  0.3001890000000  0.6261980000000  0.4077020000000 1.0
C      1  0.2984460000000  0.6276550000000  0.5911020000000 1.0
C      1  0.3002810000000  0.4513260000000  0.6466190000000 1.0
C      1  0.3858570000000  0.3302540000000  0.6050180000000 1.0
C      1  0.3858440000000  0.5474270000000  0.6944560000000 1.0
C      1  0.3859340000000  0.6970170000000  0.5150540000000 1.0
C      1  0.3882820000000  0.5662550000000  0.3195180000000 1.0
C      1  0.3894360000000  0.3556350000000  0.3763190000000 1.0
C      1  0.3857070000000  0.6697060000000  0.6047190000000 1.0
C      1  0.3856480000000  0.4537520000000  0.6924020000000 1.0
C      1  0.3863000000000  0.3035540000000  0.5151470000000 1.0
C      1  0.3882380000000  0.4336540000000  0.3195730000000 1.0
C      1  0.3894600000000  0.6444690000000  0.3764690000000 1.0
C      1  0.4635420000000  0.3949310000000  0.2698170000000 1.0
C      1  0.4641620000000  0.2482390000000  0.5305660000000 1.0
C      1  0.4643460000000  0.4512760000000  0.7485830000000 1.0
C      1  0.4641820000000  0.7224590000000  0.6221670000000 1.0
C      1  0.4640040000000  0.6832780000000  0.3280860000000 1.0
C      1  0.4634470000000  0.6049310000000  0.2695390000000 1.0
C      1  0.4639840000000  0.7516210000000  0.5302870000000 1.0
C      1  0.4642300000000  0.5480390000000  0.7492230000000 1.0
C      1  0.4643420000000  0.2783190000000  0.6227440000000 1.0
C      1  0.4638820000000  0.3169930000000  0.3281280000000 1.0
C      1  0.6906480000000  0.6278070000000  0.4076660000000 1.0
C      1  0.6915480000000  0.4519340000000  0.3490180000000 1.0
C      1  0.6908660000000  0.3425280000000  0.4991950000000 1.0
C      1  0.6916010000000  0.4502570000000  0.6498340000000 1.0
C      1  0.6912830000000  0.6268840000000  0.5928050000000 1.0
C      1  0.6906690000000  0.3723240000000  0.4077100000000 1.0
C      1  0.6915200000000  0.5481060000000  0.3491920000000 1.0
C      1  0.6917070000000  0.6575180000000  0.4989310000000 1.0
C      1  0.6910870000000  0.5491370000000  0.6492560000000 1.0
C      1  0.6914950000000  0.3721010000000  0.5936780000000 1.0
END
