TITL C-1525613-7943-257 0.0581472297422054 3375 -8957.88811254673 0 0 60 (Cs) n - 1
REM
REM in /home/nfs/bkarasulu/CARBON/AIRSS/Generating-Clusters/ReaxFF-fromJPCA2015/Units_Real/Try2-Higher-symm/Only-C60
REM
REM
REM
REM
REM
REM ./C.cell (863b2abdce7293c0672fb3ba77bf323a)
REM AIRSS Version 0.9.1 bugfix July 2018 build 013d7b7c2542+ Fri, 06 Jul 2018 19:26:36 +0100
REM compiler GCC version 9.2.1 20190827 (Red Hat 9.2.1-1)
REM options -cpp -mtune=generic -march=x86-64 -g -O0 -fpre-include=/usr/include/finclude/math-vector-fortran.h
REM seed 435385735 2062730042 978271177 -146962362 -981861497 349362709 -1178527541 -207829614 -1557229936 -423730148 -6787541 2084476243 2137803608 -284036862 -1261727150 -1286760755 1923574679 96202106 407283870 -1630820965 248295344 -144832555 817642341 -1488055706 -1189022837 113676511 1311903261 -725032932 1094897068 1166318334 -2106906162 -1530003026 1429867803
REM
CELL 1.54180   15.00000   15.00000   15.00000   90.00000   90.00000   90.00000
LATT -1
SFAC C  
C      1  0.4512660000000  0.7169460000000  0.4318530000000 1.0
C      1  0.4512960000000  0.5028320000000  0.2725960000000 1.0
C      1  0.4512620000000  0.2843510000000  0.4270700000000 1.0
C      1  0.4513240000000  0.3651390000000  0.6824020000000 1.0
C      1  0.4514630000000  0.6326330000000  0.6849500000000 1.0
C      1  0.5487310000000  0.7170540000000  0.4318080000000 1.0
C      1  0.5486950000000  0.5028090000000  0.2725320000000 1.0
C      1  0.5487270000000  0.2843380000000  0.4270780000000 1.0
C      1  0.5486630000000  0.3651370000000  0.6824120000000 1.0
C      1  0.5485200000000  0.6326650000000  0.6849880000000 1.0
C      1  0.5485340000000  0.4061880000000  0.2933480000000 1.0
C      1  0.5484740000000  0.2751800000000  0.5254310000000 1.0
C      1  0.5486120000000  0.4549970000000  0.7230990000000 1.0
C      1  0.5486210000000  0.6984200000000  0.6113450000000 1.0
C      1  0.5486630000000  0.6672700000000  0.3463030000000 1.0
C      1  0.4514570000000  0.4061770000000  0.2933470000000 1.0
C      1  0.4515110000000  0.2752070000000  0.5254330000000 1.0
C      1  0.4513760000000  0.4550290000000  0.7230300000000 1.0
C      1  0.4513750000000  0.6983220000000  0.6112800000000 1.0
C      1  0.4513240000000  0.6672360000000  0.3463140000000 1.0
C      1  0.5927570000000  0.6816600000000  0.5185570000000 1.0
C      1  0.5928210000000  0.5740780000000  0.3333330000000 1.0
C      1  0.5925410000000  0.3648760000000  0.3782480000000 1.0
C      1  0.5919930000000  0.3447650000000  0.5900240000000 1.0
C      1  0.5925800000000  0.5381410000000  0.6774190000000 1.0
C      1  0.4075070000000  0.6809470000000  0.5184860000000 1.0
C      1  0.4072850000000  0.5739680000000  0.3336260000000 1.0
C      1  0.4074580000000  0.3649110000000  0.3782640000000 1.0
C      1  0.4080170000000  0.3448490000000  0.5899950000000 1.0
C      1  0.4075130000000  0.5380880000000  0.6771000000000 1.0
C      1  0.3023510000000  0.5351720000000  0.6532250000000 1.0
C      1  0.3013270000000  0.6562630000000  0.5146920000000 1.0
C      1  0.3002440000000  0.5616590000000  0.3563730000000 1.0
C      1  0.3008450000000  0.3812380000000  0.3944250000000 1.0
C      1  0.3030800000000  0.3646460000000  0.5776940000000 1.0
C      1  0.6976850000000  0.5351810000000  0.6532340000000 1.0
C      1  0.6987490000000  0.6562880000000  0.5146920000000 1.0
C      1  0.6998010000000  0.5616650000000  0.3563630000000 1.0
C      1  0.6991590000000  0.3812490000000  0.3944290000000 1.0
C      1  0.6969200000000  0.3646370000000  0.5776910000000 1.0
C      1  0.5554270000000  0.5173090000000  0.5824780000000 1.0
C      1  0.5538400000000  0.5849900000000  0.5088880000000 1.0
C      1  0.5554230000000  0.5345520000000  0.4222540000000 1.0
C      1  0.5554800000000  0.4368270000000  0.4439050000000 1.0
C      1  0.5533880000000  0.4266700000000  0.5424550000000 1.0
C      1  0.4444470000000  0.5175350000000  0.5820320000000 1.0
C      1  0.4459940000000  0.5846000000000  0.5088250000000 1.0
C      1  0.4444470000000  0.5347520000000  0.4227240000000 1.0
C      1  0.4444510000000  0.4370620000000  0.4438990000000 1.0
C      1  0.4466100000000  0.4269510000000  0.5425100000000 1.0
C      1  0.7081880000000  0.5977560000000  0.5864820000000 1.0
C      1  0.7094870000000  0.6117620000000  0.4341460000000 1.0
C      1  0.7098410000000  0.4702230000000  0.3717870000000 1.0
C      1  0.7082990000000  0.3697730000000  0.4865660000000 1.0
C      1  0.7247020000000  0.4437500000000  0.6287630000000 1.0
C      1  0.2917990000000  0.5977620000000  0.5864880000000 1.0
C      1  0.2905080000000  0.6117780000000  0.4341460000000 1.0
C      1  0.2901640000000  0.4702180000000  0.3717800000000 1.0
C      1  0.2916950000000  0.3697800000000  0.4865700000000 1.0
C      1  0.2752840000000  0.4437380000000  0.6288120000000 1.0
END
