TITL C-1525613-7943-1811 0.0212558616392368 3375 -8841.08668201708 0 0 60 (C1) n - 1
REM
REM in /home/nfs/bkarasulu/CARBON/AIRSS/Generating-Clusters/ReaxFF-fromJPCA2015/Units_Real/Try2-Higher-symm/Only-C60
REM
REM
REM
REM
REM
REM ./C.cell (863b2abdce7293c0672fb3ba77bf323a)
REM AIRSS Version 0.9.1 bugfix July 2018 build 013d7b7c2542+ Fri, 06 Jul 2018 19:26:36 +0100
REM compiler GCC version 9.2.1 20190827 (Red Hat 9.2.1-1)
REM options -cpp -mtune=generic -march=x86-64 -g -O0 -fpre-include=/usr/include/finclude/math-vector-fortran.h
REM seed -1300581192 1097359972 -2071321882 85057958 2043401360 -254460618 2144165813 -794174872 2108112440 1495121218 2132835881 223874626 951992616 1634680809 -1561010322 -1769117890 -477439882 1691767300 -2016017863 -1635190780 1956019195 526836147 -330242812 -1040000153 280739684 1389181508 -290258000 231539032 -112344218 644287162 1955093281 544233290 -136553264
REM
CELL 1.54180   15.00000   15.00000   15.00000   90.00000   90.00000   90.00000
LATT -1
SFAC C  
C      1  0.2846710000000  0.6711790000000  0.4992870000000 1.0
C      1  0.2794670000000  0.5650140000000  0.3336220000000 1.0
C      1  0.3065460000000  0.3677790000000  0.4177580000000 1.0
C      1  0.2816490000000  0.3735950000000  0.5950990000000 1.0
C      1  0.2905600000000  0.5611040000000  0.6418940000000 1.0
C      1  0.7091960000000  0.6666380000000  0.5034760000000 1.0
C      1  0.7031160000000  0.5491850000000  0.6525240000000 1.0
C      1  0.7377740000000  0.3562770000000  0.5957070000000 1.0
C      1  0.7014410000000  0.3814950000000  0.3972080000000 1.0
C      1  0.6951390000000  0.5541240000000  0.3563980000000 1.0
C      1  0.6126040000000  0.6715200000000  0.4775970000000 1.0
C      1  0.6085950000000  0.5571140000000  0.3145320000000 1.0
C      1  0.6088210000000  0.3554740000000  0.3855350000000 1.0
C      1  0.6485750000000  0.3200840000000  0.6230030000000 1.0
C      1  0.6028250000000  0.5521410000000  0.6702770000000 1.0
C      1  0.3819250000000  0.6832660000000  0.5200700000000 1.0
C      1  0.3792450000000  0.5644100000000  0.6805470000000 1.0
C      1  0.3730440000000  0.3459200000000  0.6162720000000 1.0
C      1  0.4026850000000  0.3490700000000  0.4063080000000 1.0
C      1  0.3817750000000  0.5749270000000  0.3245700000000 1.0
C      1  0.7663420000000  0.5264490000000  0.5828630000000 1.0
C      1  0.7677200000000  0.5880740000000  0.5038550000000 1.0
C      1  0.7649390000000  0.5322370000000  0.4219760000000 1.0
C      1  0.7661260000000  0.4377900000000  0.4467630000000 1.0
C      1  0.7736170000000  0.4323590000000  0.5457920000000 1.0
C      1  0.2353060000000  0.5291040000000  0.4108980000000 1.0
C      1  0.2297370000000  0.5908680000000  0.4916740000000 1.0
C      1  0.2275070000000  0.5333780000000  0.5714040000000 1.0
C      1  0.2283860000000  0.4385940000000  0.5436580000000 1.0
C      1  0.2404320000000  0.4337350000000  0.4459080000000 1.0
C      1  0.5282130000000  0.6380680000000  0.2302030000000 1.0
C      1  0.5178990000000  0.2856020000000  0.2927590000000 1.0
C      1  0.4808460000000  0.2507800000000  0.6339160000000 1.0
C      1  0.4706470000000  0.5430720000000  0.7882820000000 1.0
C      1  0.4823190000000  0.7810620000000  0.5465470000000 1.0
C      1  0.4694160000000  0.6385960000000  0.7659250000000 1.0
C      1  0.4968670000000  0.3345590000000  0.6940360000000 1.0
C      1  0.4770490000000  0.2384710000000  0.3605170000000 1.0
C      1  0.5223920000000  0.5423990000000  0.2033860000000 1.0
C      1  0.5252010000000  0.7811540000000  0.4537360000000 1.0
C      1  0.5879420000000  0.3715620000000  0.6918850000000 1.0
C      1  0.5362770000000  0.6073510000000  0.6167060000000 1.0
C      1  0.5756230000000  0.7183470000000  0.3992950000000 1.0
C      1  0.5731710000000  0.4798990000000  0.2664390000000 1.0
C      1  0.5632310000000  0.3153700000000  0.4659470000000 1.0
C      1  0.4512540000000  0.4118800000000  0.3450610000000 1.0
C      1  0.4499430000000  0.6278970000000  0.3772170000000 1.0
C      1  0.4251580000000  0.7229070000000  0.5990170000000 1.0
C      1  0.4163050000000  0.4850150000000  0.7218940000000 1.0
C      1  0.4257530000000  0.2774760000000  0.5581610000000 1.0
C      1  0.4557250000000  0.6458460000000  0.6613440000000 1.0
C      1  0.4524620000000  0.6280220000000  0.4736510000000 1.0
C      1  0.4164800000000  0.4934250000000  0.3347840000000 1.0
C      1  0.4628330000000  0.2881920000000  0.4617830000000 1.0
C      1  0.4224240000000  0.3937340000000  0.6898590000000 1.0
C      1  0.5383750000000  0.6472260000000  0.3338250000000 1.0
C      1  0.5374840000000  0.6193470000000  0.5221970000000 1.0
C      1  0.5954810000000  0.4610100000000  0.6813200000000 1.0
C      1  0.6056650000000  0.3177030000000  0.5437680000000 1.0
C      1  0.5478000000000  0.3911220000000  0.3100650000000 1.0
END
