TITL C-1525613-7943-2325 -7.9843643461898e-05 3375 -8675.02490256268 0 0 60 (C5) n - 1
REM
REM in /home/nfs/bkarasulu/CARBON/AIRSS/Generating-Clusters/ReaxFF-fromJPCA2015/Units_Real/Try2-Higher-symm/Only-C60
REM
REM
REM
REM
REM
REM ./C.cell (863b2abdce7293c0672fb3ba77bf323a)
REM AIRSS Version 0.9.1 bugfix July 2018 build 013d7b7c2542+ Fri, 06 Jul 2018 19:26:36 +0100
REM compiler GCC version 9.2.1 20190827 (Red Hat 9.2.1-1)
REM options -cpp -mtune=generic -march=x86-64 -g -O0 -fpre-include=/usr/include/finclude/math-vector-fortran.h
REM seed -114773111 -34519933 -1849610095 1371956559 1314438229 -2057139306 1305119076 -1019849322 -1832158251 -1444802926 -1777519663 -1022815001 -389400050 -1377945768 -1742957895 -692396108 1904772734 -100721296 -2113702711 -1333802912 999091113 -940488594 -39128514 1757405875 -2040862285 1258250950 -1945243941 884123272 2072640353 1222281442 1142997420 -2095487169 -1466991328
REM
CELL 1.54180   15.00000   15.00000   15.00000   90.00000   90.00000   90.00000
LATT -1
SFAC C  
C      1  0.6024440000000  0.4150760000000  0.3004750000000 1.0
C      1  0.6024690000000  0.2840060000000  0.5191040000000 1.0
C      1  0.6024930000000  0.4514340000000  0.7113160000000 1.0
C      1  0.6024800000000  0.6859790000000  0.6114820000000 1.0
C      1  0.6024500000000  0.6635070000000  0.3575670000000 1.0
C      1  0.6028500000000  0.5842140000000  0.2990830000000 1.0
C      1  0.6028750000000  0.7170980000000  0.5179970000000 1.0
C      1  0.6028980000000  0.5499600000000  0.7120230000000 1.0
C      1  0.6028850000000  0.3137800000000  0.6130260000000 1.0
C      1  0.6028560000000  0.3349510000000  0.3578140000000 1.0
C      1  0.4741070000000  0.7415340000000  0.4738250000000 1.0
C      1  0.4740820000000  0.5497410000000  0.2622020000000 1.0
C      1  0.4740950000000  0.2892080000000  0.3792120000000 1.0
C      1  0.4741270000000  0.3199830000000  0.6631510000000 1.0
C      1  0.4741350000000  0.5995340000000  0.7216250000000 1.0
C      1  0.4753280000000  0.2603120000000  0.4736410000000 1.0
C      1  0.4753030000000  0.4510040000000  0.2639010000000 1.0
C      1  0.4753160000000  0.7094060000000  0.3804450000000 1.0
C      1  0.4753490000000  0.6784160000000  0.6622140000000 1.0
C      1  0.4753570000000  0.4008620000000  0.7198120000000 1.0
C      1  0.6811720000000  0.4513870000000  0.6516890000000 1.0
C      1  0.6811640000000  0.6292640000000  0.5930950000000 1.0
C      1  0.6811420000000  0.6285040000000  0.4058190000000 1.0
C      1  0.6811350000000  0.4501580000000  0.3486710000000 1.0
C      1  0.6811540000000  0.3406920000000  0.5006260000000 1.0
C      1  0.6812140000000  0.5488150000000  0.6519180000000 1.0
C      1  0.6812060000000  0.3705820000000  0.5933570000000 1.0
C      1  0.6811850000000  0.3712010000000  0.4057520000000 1.0
C      1  0.6811790000000  0.5498170000000  0.3483680000000 1.0
C      1  0.6811980000000  0.6595890000000  0.5005070000000 1.0
C      1  0.3293710000000  0.4513680000000  0.3478980000000 1.0
C      1  0.3293890000000  0.3402960000000  0.4992620000000 1.0
C      1  0.3294080000000  0.4499290000000  0.6516710000000 1.0
C      1  0.3294000000000  0.6287570000000  0.5945020000000 1.0
C      1  0.3293770000000  0.6296470000000  0.4067600000000 1.0
C      1  0.3285010000000  0.5494480000000  0.3477490000000 1.0
C      1  0.3285190000000  0.6600970000000  0.4999940000000 1.0
C      1  0.3285350000000  0.5494960000000  0.6522740000000 1.0
C      1  0.3285270000000  0.3704910000000  0.5941430000000 1.0
C      1  0.3285060000000  0.3704620000000  0.4059350000000 1.0
C      1  0.5222690000000  0.6286580000000  0.4070120000000 1.0
C      1  0.5222610000000  0.4513230000000  0.3489030000000 1.0
C      1  0.5222810000000  0.3412570000000  0.4996010000000 1.0
C      1  0.5223000000000  0.4505690000000  0.6508470000000 1.0
C      1  0.5222920000000  0.6281920000000  0.5936240000000 1.0
C      1  0.5215990000000  0.3707950000000  0.4071400000000 1.0
C      1  0.5215940000000  0.5483870000000  0.3484220000000 1.0
C      1  0.5216120000000  0.6591110000000  0.4991760000000 1.0
C      1  0.5216290000000  0.5499480000000  0.6510650000000 1.0
C      1  0.5216200000000  0.3717600000000  0.5941840000000 1.0
C      1  0.3910110000000  0.2664780000000  0.5237500000000 1.0
C      1  0.3910360000000  0.4504140000000  0.7294390000000 1.0
C      1  0.3910220000000  0.7028750000000  0.6180680000000 1.0
C      1  0.3909900000000  0.6749700000000  0.3435470000000 1.0
C      1  0.3909830000000  0.4052610000000  0.2852550000000 1.0
C      1  0.3900680000000  0.7340560000000  0.5243860000000 1.0
C      1  0.3900910000000  0.5491470000000  0.7301450000000 1.0
C      1  0.3900770000000  0.2963170000000  0.6178690000000 1.0
C      1  0.3900460000000  0.3249700000000  0.3427190000000 1.0
C      1  0.3900400000000  0.5955080000000  0.2849430000000 1.0
END
