TITL C-1525613-7943-4532 -0.00568971858462858 3375 -9646.22465279482 0 0 60 (D5d) n - 1
REM
REM in /home/nfs/bkarasulu/CARBON/AIRSS/Generating-Clusters/ReaxFF-fromJPCA2015/Units_Real/Try2-Higher-symm/Only-C60
REM
REM
REM
REM
REM
REM ./C.cell (863b2abdce7293c0672fb3ba77bf323a)
REM AIRSS Version 0.9.1 bugfix July 2018 build 013d7b7c2542+ Fri, 06 Jul 2018 19:26:36 +0100
REM compiler GCC version 9.2.1 20190827 (Red Hat 9.2.1-1)
REM options -cpp -mtune=generic -march=x86-64 -g -O0 -fpre-include=/usr/include/finclude/math-vector-fortran.h
REM seed 1188891232 1912301965 21904268 -1657924622 -763825203 -1112649214 273531745 -396787630 -725779521 321518629 -1395065529 1927011831 1712482015 1021454066 -341633856 727857328 782634136 -2017658108 251036476 -746799010 1925500573 -1328650280 1676733117 1193450037 2072345129 -127231633 -795094438 1105511259 486700931 414122122 -186233918 451542506 114629250
REM
CELL 1.54180   15.00000   15.00000   15.00000   90.00000   90.00000   90.00000
LATT -1
SFAC C  
C      1  0.5648160000000  0.3309800000000  0.6028850000000 1.0
C      1  0.4530450000000  0.3250810000000  0.3971700000000 1.0
C      1  0.3591900000000  0.3860150000000  0.6027800000000 1.0
C      1  0.3191550000000  0.4905680000000  0.3971700000000 1.0
C      1  0.3482540000000  0.5985940000000  0.6029650000000 1.0
C      1  0.4351870000000  0.6690170000000  0.3971050000000 1.0
C      1  0.5469530000000  0.6749210000000  0.6028290000000 1.0
C      1  0.6408130000000  0.6139860000000  0.3972310000000 1.0
C      1  0.6808430000000  0.5094310000000  0.6028370000000 1.0
C      1  0.6517450000000  0.4014090000000  0.3970300000000 1.0
C      1  0.5046640000000  0.7022230000000  0.4544360000000 1.0
C      1  0.6226600000000  0.6609830000000  0.5455800000000 1.0
C      1  0.6937650000000  0.5581940000000  0.4544520000000 1.0
C      1  0.6908240000000  0.4331970000000  0.5454980000000 1.0
C      1  0.6150280000000  0.3337800000000  0.4544070000000 1.0
C      1  0.4953390000000  0.2977740000000  0.5455620000000 1.0
C      1  0.3773420000000  0.3390210000000  0.4544230000000 1.0
C      1  0.3062340000000  0.4418080000000  0.5455530000000 1.0
C      1  0.3091720000000  0.5668020000000  0.4545030000000 1.0
C      1  0.3849730000000  0.6662180000000  0.5455890000000 1.0
C      1  0.5516710000000  0.3653130000000  0.6887980000000 1.0
C      1  0.4626000000000  0.3606810000000  0.3112280000000 1.0
C      1  0.3878690000000  0.4092120000000  0.6887430000000 1.0
C      1  0.3559190000000  0.4925150000000  0.3112360000000 1.0
C      1  0.3790910000000  0.5785620000000  0.6888600000000 1.0
C      1  0.4483300000000  0.6346860000000  0.3111960000000 1.0
C      1  0.5374000000000  0.6393190000000  0.6887720000000 1.0
C      1  0.6121320000000  0.5907880000000  0.3112620000000 1.0
C      1  0.6440800000000  0.5074850000000  0.6887680000000 1.0
C      1  0.6209080000000  0.4214390000000  0.3111380000000 1.0
C      1  0.5343410000000  0.6284250000000  0.2692600000000 1.0
C      1  0.6033550000000  0.5835720000000  0.7307510000000 1.0
C      1  0.6327240000000  0.5068630000000  0.2692390000000 1.0
C      1  0.6114930000000  0.4275090000000  0.7307060000000 1.0
C      1  0.5476360000000  0.3759190000000  0.2692470000000 1.0
C      1  0.4656510000000  0.3715770000000  0.7307390000000 1.0
C      1  0.3966480000000  0.4164270000000  0.2692480000000 1.0
C      1  0.3672750000000  0.4931310000000  0.7307600000000 1.0
C      1  0.3885090000000  0.5724980000000  0.2692940000000 1.0
C      1  0.4523660000000  0.6240800000000  0.7307540000000 1.0
C      1  0.5642520000000  0.5519310000000  0.8127370000000 1.0
C      1  0.5824640000000  0.5043280000000  0.1872560000000 1.0
C      1  0.5693150000000  0.4549440000000  0.8127090000000 1.0
C      1  0.5295530000000  0.4228980000000  0.1872620000000 1.0
C      1  0.4786390000000  0.4201730000000  0.8127300000000 1.0
C      1  0.4357480000000  0.4480690000000  0.1872620000000 1.0
C      1  0.4175360000000  0.4956710000000  0.8127420000000 1.0
C      1  0.4306850000000  0.5450570000000  0.1872910000000 1.0
C      1  0.4704470000000  0.5771010000000  0.8127390000000 1.0
C      1  0.5213600000000  0.5798270000000  0.1872700000000 1.0
C      1  0.4744720000000  0.7005950000000  0.5455490000000 1.0
C      1  0.5973110000000  0.6774340000000  0.4544620000000 1.0
C      1  0.6829900000000  0.5864090000000  0.5455750000000 1.0
C      1  0.6986870000000  0.4624280000000  0.4543940000000 1.0
C      1  0.6385680000000  0.3528230000000  0.5455100000000 1.0
C      1  0.5255280000000  0.2994010000000  0.4544480000000 1.0
C      1  0.4026930000000  0.3225670000000  0.5455400000000 1.0
C      1  0.3170110000000  0.4135920000000  0.4544290000000 1.0
C      1  0.3013090000000  0.5375750000000  0.5456070000000 1.0
C      1  0.3614310000000  0.6471750000000  0.4544860000000 1.0
END
