TITL C-1525613-7943-4064 0.61949128488751 3375 -8851.86568754686 0 0 60 (C5) n - 1
REM
REM in /home/nfs/bkarasulu/CARBON/AIRSS/Generating-Clusters/ReaxFF-fromJPCA2015/Units_Real/Try2-Higher-symm/Only-C60
REM
REM
REM
REM
REM
REM ./C.cell (863b2abdce7293c0672fb3ba77bf323a)
REM AIRSS Version 0.9.1 bugfix July 2018 build 013d7b7c2542+ Fri, 06 Jul 2018 19:26:36 +0100
REM compiler GCC version 9.2.1 20190827 (Red Hat 9.2.1-1)
REM options -cpp -mtune=generic -march=x86-64 -g -O0 -fpre-include=/usr/include/finclude/math-vector-fortran.h
REM seed 248905225 1706925222 -905074170 -1549097507 739770004 1735523520 -1282399985 -1786640014 240009362 740019339 1712875324 2046428034 -552454896 851049109 1972138959 395931499 -205263867 -855878392 -55488819 -1535201779 1561717239 -1367479433 -1073980866 1812082958 -1946846421 -1634473504 707052989 903714366 1052801824 -544940300 -1625886630 -186270870 -2091777320
REM
CELL 1.54180   15.00000   15.00000   15.00000   90.00000   90.00000   90.00000
LATT -1
SFAC C  
C      1  0.7119740000000  0.5933480000000  0.3970090000000 1.0
C      1  0.4767250000000  0.7304810000000  0.3969860000000 1.0
C      1  0.2736240000000  0.5490350000000  0.3970320000000 1.0
C      1  0.3833410000000  0.2998930000000  0.3971430000000 1.0
C      1  0.6542000000000  0.3272280000000  0.3971740000000 1.0
C      1  0.7119640000000  0.4066530000000  0.3970070000000 1.0
C      1  0.4767290000000  0.2695410000000  0.3969840000000 1.0
C      1  0.2735800000000  0.4509270000000  0.3970300000000 1.0
C      1  0.3833420000000  0.7001130000000  0.3971560000000 1.0
C      1  0.6542100000000  0.6727850000000  0.3971880000000 1.0
C      1  0.3664790000000  0.5424460000000  0.6087220000000 1.0
C      1  0.4168600000000  0.3865090000000  0.6089400000000 1.0
C      1  0.5820240000000  0.3858540000000  0.6088950000000 1.0
C      1  0.6341390000000  0.5424530000000  0.6089690000000 1.0
C      1  0.4995510000000  0.6402940000000  0.6088160000000 1.0
C      1  0.3664740000000  0.4575540000000  0.6087200000000 1.0
C      1  0.4168550000000  0.6134950000000  0.6089400000000 1.0
C      1  0.5820110000000  0.6141860000000  0.6088850000000 1.0
C      1  0.6338820000000  0.4570960000000  0.6089120000000 1.0
C      1  0.4995240000000  0.3596970000000  0.6088160000000 1.0
C      1  0.6249640000000  0.2777090000000  0.4751330000000 1.0
C      1  0.7500370000000  0.5501580000000  0.4752440000000 1.0
C      1  0.5295820000000  0.7533970000000  0.4755500000000 1.0
C      1  0.2682560000000  0.6064840000000  0.4753920000000 1.0
C      1  0.3271000000000  0.3126260000000  0.4751160000000 1.0
C      1  0.6249680000000  0.7222940000000  0.4751360000000 1.0
C      1  0.7500400000000  0.4498290000000  0.4752620000000 1.0
C      1  0.5295770000000  0.2466090000000  0.4755420000000 1.0
C      1  0.2682700000000  0.3935190000000  0.4753930000000 1.0
C      1  0.3271170000000  0.6873740000000  0.4751130000000 1.0
C      1  0.3716210000000  0.7317410000000  0.5495680000000 1.0
C      1  0.2401500000000  0.4498130000000  0.5490890000000 1.0
C      1  0.4678270000000  0.2372570000000  0.5491130000000 1.0
C      1  0.7402200000000  0.3883700000000  0.5493290000000 1.0
C      1  0.6804210000000  0.6939310000000  0.5495740000000 1.0
C      1  0.3716250000000  0.2682570000000  0.5495700000000 1.0
C      1  0.2401600000000  0.5501990000000  0.5491030000000 1.0
C      1  0.4678240000000  0.7627450000000  0.5491190000000 1.0
C      1  0.7402660000000  0.6116270000000  0.5493610000000 1.0
C      1  0.6804420000000  0.3060810000000  0.5495690000000 1.0
C      1  0.5001920000000  0.6514300000000  0.3465410000000 1.0
C      1  0.3560850000000  0.5469780000000  0.3464050000000 1.0
C      1  0.4108750000000  0.3776550000000  0.3464680000000 1.0
C      1  0.5887690000000  0.3774280000000  0.3465150000000 1.0
C      1  0.6439770000000  0.5466090000000  0.3465660000000 1.0
C      1  0.5001780000000  0.3486000000000  0.3465630000000 1.0
C      1  0.3560930000000  0.4529720000000  0.3464400000000 1.0
C      1  0.4108630000000  0.6223540000000  0.3464500000000 1.0
C      1  0.5887970000000  0.6225670000000  0.3465070000000 1.0
C      1  0.6439770000000  0.4533820000000  0.3465470000000 1.0
C      1  0.5244770000000  0.7325810000000  0.6231650000000 1.0
C      1  0.2866200000000  0.5953800000000  0.6230980000000 1.0
C      1  0.3428540000000  0.3246160000000  0.6228000000000 1.0
C      1  0.6181600000000  0.2965020000000  0.6227450000000 1.0
C      1  0.7292380000000  0.5490310000000  0.6229080000000 1.0
C      1  0.5245130000000  0.2675000000000  0.6231490000000 1.0
C      1  0.2866250000000  0.4046140000000  0.6231070000000 1.0
C      1  0.3428590000000  0.6753810000000  0.6228070000000 1.0
C      1  0.6181410000000  0.7034600000000  0.6227420000000 1.0
C      1  0.7287500000000  0.4513480000000  0.6228780000000 1.0
END
