TITL C-1525613-7943-4961 0.11777709096539 3375 -8395.40642043285 0 0 60 (C5) n - 1
REM
REM in /home/nfs/bkarasulu/CARBON/AIRSS/Generating-Clusters/ReaxFF-fromJPCA2015/Units_Real/Try2-Higher-symm/Only-C60
REM
REM
REM
REM
REM
REM ./C.cell (863b2abdce7293c0672fb3ba77bf323a)
REM AIRSS Version 0.9.1 bugfix July 2018 build 013d7b7c2542+ Fri, 06 Jul 2018 19:26:36 +0100
REM compiler GCC version 9.2.1 20190827 (Red Hat 9.2.1-1)
REM options -cpp -mtune=generic -march=x86-64 -g -O0 -fpre-include=/usr/include/finclude/math-vector-fortran.h
REM seed 2099536512 -468516087 -1061239520 132686268 942929486 636723580 -647344081 1702651631 1320481996 -1737281404 63244710 -1419586511 503120336 1789127615 2025306131 -1301628506 -233251363 800202082 1144480281 26419243 -1986260828 -659772756 -1174771276 -1212328338 1818516657 -368992204 623201726 -1765896715 629771323 645520051 -777573364 262800152 -1001800681
REM
CELL 1.54180   15.00000   15.00000   15.00000   90.00000   90.00000   90.00000
LATT -1
SFAC C  
C      1  0.3320990000000  0.4012190000000  0.6830450000000 1.0
C      1  0.2739230000000  0.4012470000000  0.3967980000000 1.0
C      1  0.5282190000000  0.4011590000000  0.2533650000000 1.0
C      1  0.7433300000000  0.4011460000000  0.4506220000000 1.0
C      1  0.6220420000000  0.4011060000000  0.7162470000000 1.0
C      1  0.3320990000000  0.4012190000000  0.3169550000000 1.0
C      1  0.2739230000000  0.4012470000000  0.6032020000000 1.0
C      1  0.5282190000000  0.4011590000000  0.7466350000000 1.0
C      1  0.7433300000000  0.4011460000000  0.5493780000000 1.0
C      1  0.6220420000000  0.4011060000000  0.2837530000000 1.0
C      1  0.6455550000000  0.5713320000000  0.3308100000000 1.0
C      1  0.7059150000000  0.5713540000000  0.5862090000000 1.0
C      1  0.4815310000000  0.5713960000000  0.7224600000000 1.0
C      1  0.2831530000000  0.5708810000000  0.5513870000000 1.0
C      1  0.3841410000000  0.5711340000000  0.3092050000000 1.0
C      1  0.6455550000000  0.5713320000000  0.6691900000000 1.0
C      1  0.7059150000000  0.5713540000000  0.4137910000000 1.0
C      1  0.4815310000000  0.5713960000000  0.2775400000000 1.0
C      1  0.2831530000000  0.5708810000000  0.4486130000000 1.0
C      1  0.3841410000000  0.5711340000000  0.6907950000000 1.0
C      1  0.7671650000000  0.4981510000000  0.4519470000000 1.0
C      1  0.6283220000000  0.4981520000000  0.7392980000000 1.0
C      1  0.3121050000000  0.4982230000000  0.6958560000000 1.0
C      1  0.2555270000000  0.4982760000000  0.3817290000000 1.0
C      1  0.5368520000000  0.4981370000000  0.2311410000000 1.0
C      1  0.7671650000000  0.4981510000000  0.5480530000000 1.0
C      1  0.6283220000000  0.4981520000000  0.2607020000000 1.0
C      1  0.3121050000000  0.4982230000000  0.3041440000000 1.0
C      1  0.2555270000000  0.4982760000000  0.6182710000000 1.0
C      1  0.5368520000000  0.4981370000000  0.7688590000000 1.0
C      1  0.5002310000000  0.6578740000000  0.6526460000000 1.0
C      1  0.3545690000000  0.6576800000000  0.5475180000000 1.0
C      1  0.4099110000000  0.6577270000000  0.3766820000000 1.0
C      1  0.5895510000000  0.6579870000000  0.3762250000000 1.0
C      1  0.6453890000000  0.6577200000000  0.5469510000000 1.0
C      1  0.5002310000000  0.6578740000000  0.3473540000000 1.0
C      1  0.3545690000000  0.6576800000000  0.4524820000000 1.0
C      1  0.4099110000000  0.6577270000000  0.6233180000000 1.0
C      1  0.5895510000000  0.6579870000000  0.6237750000000 1.0
C      1  0.6453890000000  0.6577200000000  0.4530490000000 1.0
C      1  0.5825790000000  0.5132960000000  0.3860000000000 1.0
C      1  0.6339960000000  0.5132570000000  0.5437630000000 1.0
C      1  0.4996710000000  0.5138010000000  0.6414660000000 1.0
C      1  0.3669080000000  0.5130420000000  0.5437060000000 1.0
C      1  0.4176330000000  0.5135950000000  0.3852350000000 1.0
C      1  0.5825790000000  0.5132960000000  0.6140000000000 1.0
C      1  0.6339960000000  0.5132570000000  0.4562370000000 1.0
C      1  0.4996710000000  0.5138010000000  0.3585340000000 1.0
C      1  0.3669080000000  0.5130420000000  0.4562940000000 1.0
C      1  0.4176330000000  0.5135950000000  0.6147650000000 1.0
C      1  0.4997750000000  0.3582390000000  0.6593950000000 1.0
C      1  0.3480740000000  0.3583310000000  0.5490700000000 1.0
C      1  0.4063520000000  0.3583640000000  0.3708800000000 1.0
C      1  0.5939040000000  0.3581500000000  0.3710740000000 1.0
C      1  0.6515790000000  0.3580240000000  0.5495270000000 1.0
C      1  0.4997750000000  0.3582390000000  0.3406050000000 1.0
C      1  0.3480740000000  0.3583310000000  0.4509300000000 1.0
C      1  0.4063520000000  0.3583640000000  0.6291200000000 1.0
C      1  0.5939040000000  0.3581500000000  0.6289260000000 1.0
C      1  0.6515790000000  0.3580240000000  0.4504730000000 1.0
END
