TITL C-1525613-7943-2895 0.00158632380549324 3375 -9409.04189234907 0 0 60 (C5) n - 1
REM
REM in /home/nfs/bkarasulu/CARBON/AIRSS/Generating-Clusters/ReaxFF-fromJPCA2015/Units_Real/Try2-Higher-symm/Only-C60
REM
REM
REM
REM
REM
REM ./C.cell (863b2abdce7293c0672fb3ba77bf323a)
REM AIRSS Version 0.9.1 bugfix July 2018 build 013d7b7c2542+ Fri, 06 Jul 2018 19:26:36 +0100
REM compiler GCC version 9.2.1 20190827 (Red Hat 9.2.1-1)
REM options -cpp -mtune=generic -march=x86-64 -g -O0 -fpre-include=/usr/include/finclude/math-vector-fortran.h
REM seed 1608234761 -1660111457 -206949805 246062452 930443955 -1751816548 1028743256 1524862834 -124235048 1292550163 -864945028 269188433 638059103 1249261322 936714031 350780122 -2037403771 -1794390211 542488967 1082315544 -990972577 -1882337944 -765246200 798549016 -698909324 -1615619003 -880942993 2125819900 55489838 -1547777274 1458610962 -986163147 -1431080125
REM
CELL 1.54180   15.00000   15.00000   15.00000   90.00000   90.00000   90.00000
LATT -1
SFAC C  
C      1  0.6245510000000  0.4098140000000  0.7027950000000 1.0
C      1  0.6245210000000  0.6649330000000  0.6483900000000 1.0
C      1  0.6246130000000  0.6922020000000  0.3889270000000 1.0
C      1  0.6244450000000  0.4537810000000  0.2829770000000 1.0
C      1  0.6246190000000  0.2792850000000  0.4768670000000 1.0
C      1  0.6245470000000  0.5901970000000  0.7027960000000 1.0
C      1  0.6245290000000  0.3350770000000  0.6483900000000 1.0
C      1  0.6246230000000  0.3078000000000  0.3889280000000 1.0
C      1  0.6244430000000  0.5462210000000  0.2829760000000 1.0
C      1  0.6246070000000  0.7207200000000  0.4768650000000 1.0
C      1  0.5439660000000  0.7292070000000  0.5247510000000 1.0
C      1  0.5438300000000  0.5944100000000  0.2897860000000 1.0
C      1  0.5439570000000  0.3290590000000  0.3452030000000 1.0
C      1  0.5439130000000  0.3000850000000  0.6145890000000 1.0
C      1  0.5439080000000  0.5472460000000  0.7256580000000 1.0
C      1  0.5439800000000  0.2707920000000  0.5247550000000 1.0
C      1  0.5438320000000  0.4055900000000  0.2897890000000 1.0
C      1  0.5439500000000  0.6709410000000  0.3451990000000 1.0
C      1  0.5439010000000  0.6999190000000  0.6145880000000 1.0
C      1  0.5439090000000  0.4527620000000  0.7256560000000 1.0
C      1  0.6946170000000  0.6580530000000  0.5004400000000 1.0
C      1  0.6945590000000  0.5492840000000  0.3497740000000 1.0
C      1  0.6946650000000  0.3723730000000  0.4066830000000 1.0
C      1  0.6945730000000  0.3718860000000  0.5925200000000 1.0
C      1  0.6946500000000  0.5484300000000  0.6505120000000 1.0
C      1  0.6946250000000  0.3419570000000  0.5004410000000 1.0
C      1  0.6945630000000  0.4507220000000  0.3497730000000 1.0
C      1  0.6946580000000  0.6276320000000  0.4066830000000 1.0
C      1  0.6945670000000  0.6281290000000  0.5925210000000 1.0
C      1  0.6946530000000  0.4515850000000  0.6505110000000 1.0
C      1  0.3799300000000  0.7057870000000  0.6174410000000 1.0
C      1  0.3799780000000  0.6757890000000  0.3404410000000 1.0
C      1  0.3798630000000  0.4024960000000  0.2841270000000 1.0
C      1  0.3800070000000  0.2641270000000  0.5258100000000 1.0
C      1  0.3799430000000  0.4517770000000  0.7322300000000 1.0
C      1  0.3799400000000  0.2942060000000  0.6174410000000 1.0
C      1  0.3799850000000  0.3242070000000  0.3404510000000 1.0
C      1  0.3798600000000  0.5975010000000  0.2841160000000 1.0
C      1  0.3799920000000  0.7358560000000  0.5258050000000 1.0
C      1  0.3799410000000  0.5482220000000  0.7322350000000 1.0
C      1  0.2950300000000  0.2569430000000  0.4730920000000 1.0
C      1  0.2949040000000  0.3995810000000  0.7224100000000 1.0
C      1  0.2948780000000  0.6803320000000  0.6640250000000 1.0
C      1  0.2950180000000  0.7125990000000  0.3789000000000 1.0
C      1  0.2947690000000  0.4505090000000  0.2616390000000 1.0
C      1  0.2950150000000  0.7430330000000  0.4730860000000 1.0
C      1  0.2948990000000  0.6004180000000  0.7224190000000 1.0
C      1  0.2948880000000  0.3196610000000  0.6640220000000 1.0
C      1  0.2950270000000  0.2873910000000  0.3789110000000 1.0
C      1  0.2947680000000  0.5494830000000  0.2616300000000 1.0
C      1  0.4620480000000  0.5948930000000  0.7124930000000 1.0
C      1  0.4621300000000  0.7315990000000  0.4753460000000 1.0
C      1  0.4619390000000  0.5481230000000  0.2725780000000 1.0
C      1  0.4621390000000  0.2980620000000  0.3837890000000 1.0
C      1  0.4620410000000  0.3273230000000  0.6558090000000 1.0
C      1  0.4620520000000  0.4051140000000  0.7124910000000 1.0
C      1  0.4621430000000  0.2683920000000  0.4753490000000 1.0
C      1  0.4619400000000  0.4518730000000  0.2725820000000 1.0
C      1  0.4621290000000  0.7019340000000  0.3837830000000 1.0
C      1  0.4620300000000  0.6726780000000  0.6558090000000 1.0
END
