TITL C-1525613-7943-440 0.18311831334038 3375 -8659.44737200532 0 0 60 (Cs) n - 1
REM
REM in /home/nfs/bkarasulu/CARBON/AIRSS/Generating-Clusters/ReaxFF-fromJPCA2015/Units_Real/Try2-Higher-symm/Only-C60
REM
REM
REM
REM
REM
REM ./C.cell (863b2abdce7293c0672fb3ba77bf323a)
REM AIRSS Version 0.9.1 bugfix July 2018 build 013d7b7c2542+ Fri, 06 Jul 2018 19:26:36 +0100
REM compiler GCC version 9.2.1 20190827 (Red Hat 9.2.1-1)
REM options -cpp -mtune=generic -march=x86-64 -g -O0 -fpre-include=/usr/include/finclude/math-vector-fortran.h
REM seed 108806789 -1041627630 -345630628 863105253 1828883308 1654656204 -1337783872 -1939097338 1963467980 -1353509588 -4661042 1380598991 -366285040 843405789 1696408866 -1952574964 1353032698 1390690197 -2125358672 -1183973177 1649635941 2018567058 1836043867 335626237 1715619054 -90760828 1305258949 514594630 1734573103 -1918408314 825373647 -1948978644 -1762327244
REM
CELL 1.54180   15.00000   15.00000   15.00000   90.00000   90.00000   90.00000
LATT -1
SFAC C  
C      1  0.5580130000000  0.2384550000000  0.5637750000000 1.0
C      1  0.5864660000000  0.2497290000000  0.4712260000000 1.0
C      1  0.5051630000000  0.2358240000000  0.4170180000000 1.0
C      1  0.4256790000000  0.2183400000000  0.4750010000000 1.0
C      1  0.4616590000000  0.2353240000000  0.5675780000000 1.0
C      1  0.5580050000000  0.7610410000000  0.5640750000000 1.0
C      1  0.5864250000000  0.7499940000000  0.4714760000000 1.0
C      1  0.5051840000000  0.7641420000000  0.4172410000000 1.0
C      1  0.4255340000000  0.7815790000000  0.4750270000000 1.0
C      1  0.4616920000000  0.7644360000000  0.5676680000000 1.0
C      1  0.4581630000000  0.6082530000000  0.6713810000000 1.0
C      1  0.6511210000000  0.6234340000000  0.6010990000000 1.0
C      1  0.6349820000000  0.6352870000000  0.3663690000000 1.0
C      1  0.4352950000000  0.6319120000000  0.3213050000000 1.0
C      1  0.2983620000000  0.6105730000000  0.5240060000000 1.0
C      1  0.4580210000000  0.3916570000000  0.6720600000000 1.0
C      1  0.6509640000000  0.3757540000000  0.6018920000000 1.0
C      1  0.6347590000000  0.3652900000000  0.3663440000000 1.0
C      1  0.4353660000000  0.3693520000000  0.3217970000000 1.0
C      1  0.2982020000000  0.3885430000000  0.5251070000000 1.0
C      1  0.6569420000000  0.6869780000000  0.4472170000000 1.0
C      1  0.4908040000000  0.7167050000000  0.3325570000000 1.0
C      1  0.3659610000000  0.7283140000000  0.4289170000000 1.0
C      1  0.4162220000000  0.6977270000000  0.6203310000000 1.0
C      1  0.5909670000000  0.7034180000000  0.6372950000000 1.0
C      1  0.6564670000000  0.3134710000000  0.4471860000000 1.0
C      1  0.4903280000000  0.2842000000000  0.3328820000000 1.0
C      1  0.3654430000000  0.2714240000000  0.4295150000000 1.0
C      1  0.4161030000000  0.3018480000000  0.6205920000000 1.0
C      1  0.5906170000000  0.2960440000000  0.6372800000000 1.0
C      1  0.5313260000000  0.4536200000000  0.6701930000000 1.0
C      1  0.6094980000000  0.4531330000000  0.5207110000000 1.0
C      1  0.5846820000000  0.4516940000000  0.3640430000000 1.0
C      1  0.3988960000000  0.4528750000000  0.3931780000000 1.0
C      1  0.3177120000000  0.4522780000000  0.5947940000000 1.0
C      1  0.5316040000000  0.5464070000000  0.6699810000000 1.0
C      1  0.6092620000000  0.5483020000000  0.5205250000000 1.0
C      1  0.5843980000000  0.5490350000000  0.3641780000000 1.0
C      1  0.3978460000000  0.5464920000000  0.3919770000000 1.0
C      1  0.3184680000000  0.5468910000000  0.5938420000000 1.0
C      1  0.5717580000000  0.3286040000000  0.2996470000000 1.0
C      1  0.3416610000000  0.3316120000000  0.3633810000000 1.0
C      1  0.3257110000000  0.3114990000000  0.5821650000000 1.0
C      1  0.5254500000000  0.3093550000000  0.7061910000000 1.0
C      1  0.7073160000000  0.3583350000000  0.5193210000000 1.0
C      1  0.5721610000000  0.6720380000000  0.2995480000000 1.0
C      1  0.3422250000000  0.6686390000000  0.3620270000000 1.0
C      1  0.3262400000000  0.6873620000000  0.5809310000000 1.0
C      1  0.5258530000000  0.6901480000000  0.7061300000000 1.0
C      1  0.7082930000000  0.6420300000000  0.5188340000000 1.0
C      1  0.6999030000000  0.4493210000000  0.4834160000000 1.0
C      1  0.5212830000000  0.4141640000000  0.2965950000000 1.0
C      1  0.3220300000000  0.4034310000000  0.4281440000000 1.0
C      1  0.3785530000000  0.4514220000000  0.6722910000000 1.0
C      1  0.6284610000000  0.4504970000000  0.6623700000000 1.0
C      1  0.7000340000000  0.5514230000000  0.4828760000000 1.0
C      1  0.5213450000000  0.5865400000000  0.2966280000000 1.0
C      1  0.3217530000000  0.5964380000000  0.4267320000000 1.0
C      1  0.3786740000000  0.5482990000000  0.6717960000000 1.0
C      1  0.6286950000000  0.5490670000000  0.6623400000000 1.0
END
