TITL C-1525613-7943-5945 -0.08078918607878 3375 -8578.04498727219 0 0 60 (C5) n - 1
REM
REM in /home/nfs/bkarasulu/CARBON/AIRSS/Generating-Clusters/ReaxFF-fromJPCA2015/Units_Real/Try2-Higher-symm/Only-C60
REM
REM
REM
REM
REM
REM ./C.cell (863b2abdce7293c0672fb3ba77bf323a)
REM AIRSS Version 0.9.1 bugfix July 2018 build 013d7b7c2542+ Fri, 06 Jul 2018 19:26:36 +0100
REM compiler GCC version 9.2.1 20190827 (Red Hat 9.2.1-1)
REM options -cpp -mtune=generic -march=x86-64 -g -O0 -fpre-include=/usr/include/finclude/math-vector-fortran.h
REM seed 1499080725 312062511 1147414970 -1619883923 1492468295 1750342752 -1996448642 -953137559 -961818651 76769937 -573891838 872811285 -1987982962 1598549995 -241413943 -1056387475 386821276 1956889397 -1545234033 293730958 -610491842 -1393064995 726696419 -1909714688 1105558231 -300448773 1279150278 -430184612 918229504 534222324 -2055199623 1217366883 618767885
REM
CELL 1.54180   15.00000   15.00000   15.00000   90.00000   90.00000   90.00000
LATT -1
SFAC C  
C      1  0.3373520000000  0.3154520000000  0.4950780000000 1.0
C      1  0.6241910000000  0.2882640000000  0.4951480000000 1.0
C      1  0.7393420000000  0.5529830000000  0.4954300000000 1.0
C      1  0.5238360000000  0.7440410000000  0.4951190000000 1.0
C      1  0.2755890000000  0.5976590000000  0.4955100000000 1.0
C      1  0.3375570000000  0.6844260000000  0.4949810000000 1.0
C      1  0.6243960000000  0.7116730000000  0.4952770000000 1.0
C      1  0.7400160000000  0.4465440000000  0.4952360000000 1.0
C      1  0.5239440000000  0.2561040000000  0.4949740000000 1.0
C      1  0.2756840000000  0.4026230000000  0.4953940000000 1.0
C      1  0.5953880000000  0.6316710000000  0.3453820000000 1.0
C      1  0.4036200000000  0.6316090000000  0.3449210000000 1.0
C      1  0.3449320000000  0.4492600000000  0.3453300000000 1.0
C      1  0.5001110000000  0.3375860000000  0.3452450000000 1.0
C      1  0.6551700000000  0.4500720000000  0.3450240000000 1.0
C      1  0.5954110000000  0.3683690000000  0.3453950000000 1.0
C      1  0.4035860000000  0.3683890000000  0.3447850000000 1.0
C      1  0.3450570000000  0.5506450000000  0.3454410000000 1.0
C      1  0.5000940000000  0.6623920000000  0.3453130000000 1.0
C      1  0.6551320000000  0.5498710000000  0.3450960000000 1.0
C      1  0.4993240000000  0.6628250000000  0.6536110000000 1.0
C      1  0.3450070000000  0.5499730000000  0.6538540000000 1.0
C      1  0.4041530000000  0.3676580000000  0.6535140000000 1.0
C      1  0.5962870000000  0.3686940000000  0.6538010000000 1.0
C      1  0.6552250000000  0.5507220000000  0.6539250000000 1.0
C      1  0.4993690000000  0.3372750000000  0.6536990000000 1.0
C      1  0.3449680000000  0.4500440000000  0.6538010000000 1.0
C      1  0.4042000000000  0.6323130000000  0.6533520000000 1.0
C      1  0.5961830000000  0.6313530000000  0.6539060000000 1.0
C      1  0.6553910000000  0.4492900000000  0.6537320000000 1.0
C      1  0.3352490000000  0.6784770000000  0.6005290000000 1.0
C      1  0.2790520000000  0.3997590000000  0.6010710000000 1.0
C      1  0.5277500000000  0.2592160000000  0.6016520000000 1.0
C      1  0.7382980000000  0.4521030000000  0.6010210000000 1.0
C      1  0.6192780000000  0.7111830000000  0.6019210000000 1.0
C      1  0.3351960000000  0.3214780000000  0.6008230000000 1.0
C      1  0.2790340000000  0.6002340000000  0.6011800000000 1.0
C      1  0.5278520000000  0.7409350000000  0.6016460000000 1.0
C      1  0.7381070000000  0.5483890000000  0.6012560000000 1.0
C      1  0.6192180000000  0.2888660000000  0.6018190000000 1.0
C      1  0.4736400000000  0.7367020000000  0.4042620000000 1.0
C      1  0.2660360000000  0.5482050000000  0.4043160000000 1.0
C      1  0.3816710000000  0.2923290000000  0.4038640000000 1.0
C      1  0.6604560000000  0.3240160000000  0.4044420000000 1.0
C      1  0.7174090000000  0.5981510000000  0.4045000000000 1.0
C      1  0.4735710000000  0.2631140000000  0.4039090000000 1.0
C      1  0.2657020000000  0.4517780000000  0.4040800000000 1.0
C      1  0.3816040000000  0.7079060000000  0.4035230000000 1.0
C      1  0.6605710000000  0.6759630000000  0.4044320000000 1.0
C      1  0.7177210000000  0.4015600000000  0.4040980000000 1.0
C      1  0.6361100000000  0.4549910000000  0.5004490000000 1.0
C      1  0.5850070000000  0.6180490000000  0.4998870000000 1.0
C      1  0.4162110000000  0.6167490000000  0.5008350000000 1.0
C      1  0.3633150000000  0.4555630000000  0.5018900000000 1.0
C      1  0.5005380000000  0.3548800000000  0.4999510000000 1.0
C      1  0.6363070000000  0.5452420000000  0.5005050000000 1.0
C      1  0.5850110000000  0.3822030000000  0.4998100000000 1.0
C      1  0.4162680000000  0.3828990000000  0.5002410000000 1.0
C      1  0.3629240000000  0.5443750000000  0.5013140000000 1.0
C      1  0.5003830000000  0.6449060000000  0.4995000000000 1.0
END
