TITL C-1525613-7943-1492 -0.0388109438388134 3375 -8948.21546833195 0 0 60 (C1) n - 1
REM
REM in /home/nfs/bkarasulu/CARBON/AIRSS/Generating-Clusters/ReaxFF-fromJPCA2015/Units_Real/Try2-Higher-symm/Only-C60
REM
REM
REM
REM
REM
REM ./C.cell (863b2abdce7293c0672fb3ba77bf323a)
REM AIRSS Version 0.9.1 bugfix July 2018 build 013d7b7c2542+ Fri, 06 Jul 2018 19:26:36 +0100
REM compiler GCC version 9.2.1 20190827 (Red Hat 9.2.1-1)
REM options -cpp -mtune=generic -march=x86-64 -g -O0 -fpre-include=/usr/include/finclude/math-vector-fortran.h
REM seed 1299172080 2087236407 -430472826 810216593 605049884 801650487 -970918110 -1269281300 234076572 -335276693 -1417598065 1630816747 486807224 179894490 -1698671652 -1492714932 -1984400274 -1444539406 -870471843 -1420122803 -1880651977 -974290121 -1601249935 -35877990 1831813736 -1881582800 1365913411 -1778521836 1114757733 1009119776 -1601346228 1890520305 -408411338
REM
CELL 1.54180   15.00000   15.00000   15.00000   90.00000   90.00000   90.00000
LATT -1
SFAC C  
C      1  0.5730620000000  0.5389310000000  0.7316240000000 1.0
C      1  0.5367820000000  0.5751410000000  0.2673620000000 1.0
C      1  0.4852280000000  0.5820570000000  0.7319590000000 1.0
C      1  0.4404540000000  0.5568530000000  0.2688600000000 1.0
C      1  0.4175600000000  0.5115460000000  0.7333170000000 1.0
C      1  0.4286340000000  0.4598380000000  0.2693710000000 1.0
C      1  0.4634610000000  0.4250450000000  0.7327630000000 1.0
C      1  0.5170180000000  0.4187170000000  0.2726920000000 1.0
C      1  0.5596790000000  0.4421950000000  0.7277890000000 1.0
C      1  0.5836360000000  0.4893690000000  0.2678430000000 1.0
C      1  0.3690870000000  0.6655200000000  0.4030820000000 1.0
C      1  0.2953920000000  0.5581490000000  0.5982480000000 1.0
C      1  0.3032530000000  0.4266750000000  0.4038040000000 1.0
C      1  0.3799710000000  0.3225120000000  0.5989590000000 1.0
C      1  0.5092700000000  0.2909400000000  0.4046930000000 1.0
C      1  0.6296390000000  0.3338860000000  0.5945040000000 1.0
C      1  0.7046680000000  0.4417800000000  0.4037100000000 1.0
C      1  0.6972910000000  0.5722190000000  0.5964710000000 1.0
C      1  0.6192760000000  0.6771780000000  0.4012360000000 1.0
C      1  0.4915170000000  0.7115920000000  0.5969670000000 1.0
C      1  0.5629490000000  0.4501560000000  0.5594250000000 1.0
C      1  0.5798710000000  0.5025380000000  0.4202030000000 1.0
C      1  0.5616830000000  0.5480040000000  0.5724510000000 1.0
C      1  0.5258910000000  0.5790900000000  0.4236010000000 1.0
C      1  0.4695510000000  0.5767670000000  0.5747570000000 1.0
C      1  0.4343860000000  0.5468270000000  0.4276550000000 1.0
C      1  0.4167400000000  0.4965350000000  0.5795310000000 1.0
C      1  0.4423710000000  0.4530490000000  0.4254240000000 1.0
C      1  0.4731640000000  0.4207590000000  0.5778250000000 1.0
C      1  0.5301080000000  0.4289670000000  0.4333950000000 1.0
C      1  0.4465540000000  0.3651420000000  0.6564850000000 1.0
C      1  0.5375500000000  0.3697660000000  0.3559990000000 1.0
C      1  0.6039720000000  0.4118290000000  0.6452250000000 1.0
C      1  0.6443500000000  0.4924960000000  0.3459210000000 1.0
C      1  0.6171690000000  0.5752700000000  0.6517910000000 1.0
C      1  0.5526840000000  0.6346920000000  0.3440970000000 1.0
C      1  0.4629010000000  0.6376210000000  0.6538620000000 1.0
C      1  0.3900770000000  0.5882890000000  0.3474470000000 1.0
C      1  0.3550080000000  0.5082860000000  0.6573400000000 1.0
C      1  0.3849960000000  0.4231170000000  0.3502420000000 1.0
C      1  0.2798860000000  0.4744140000000  0.5428340000000 1.0
C      1  0.3344380000000  0.3481790000000  0.4573540000000 1.0
C      1  0.4543850000000  0.2823270000000  0.5428230000000 1.0
C      1  0.5944890000000  0.2941300000000  0.4570700000000 1.0
C      1  0.6959300000000  0.3897440000000  0.5416210000000 1.0
C      1  0.7238850000000  0.5250270000000  0.4566970000000 1.0
C      1  0.6635860000000  0.6503600000000  0.5414280000000 1.0
C      1  0.5444260000000  0.7191330000000  0.4566310000000 1.0
C      1  0.4067570000000  0.7027820000000  0.5421460000000 1.0
C      1  0.3047720000000  0.6093350000000  0.4577380000000 1.0
C      1  0.6831890000000  0.6215400000000  0.4537190000000 1.0
C      1  0.5763100000000  0.7064460000000  0.5447000000000 1.0
C      1  0.4413520000000  0.7120570000000  0.4545060000000 1.0
C      1  0.3266300000000  0.6368760000000  0.5456800000000 1.0
C      1  0.2797330000000  0.5084820000000  0.4541980000000 1.0
C      1  0.3162230000000  0.3777070000000  0.5459670000000 1.0
C      1  0.4237870000000  0.2929140000000  0.4541030000000 1.0
C      1  0.5583220000000  0.2866200000000  0.5447880000000 1.0
C      1  0.6750550000000  0.3622400000000  0.4531940000000 1.0
C      1  0.7199950000000  0.4903460000000  0.5448740000000 1.0
END
