TITL C-1525613-7943-6768 0.131814937211458 3375 -8772.83238074473 0 0 60 (C1) n - 1
REM
REM in /home/nfs/bkarasulu/CARBON/AIRSS/Generating-Clusters/ReaxFF-fromJPCA2015/Units_Real/Try2-Higher-symm/Only-C60
REM
REM
REM
REM
REM
REM ./C.cell (863b2abdce7293c0672fb3ba77bf323a)
REM AIRSS Version 0.9.1 bugfix July 2018 build 013d7b7c2542+ Fri, 06 Jul 2018 19:26:36 +0100
REM compiler GCC version 9.2.1 20190827 (Red Hat 9.2.1-1)
REM options -cpp -mtune=generic -march=x86-64 -g -O0 -fpre-include=/usr/include/finclude/math-vector-fortran.h
REM seed 510445978 -1200342780 -1493344604 1517709918 988626906 1415047491 -1080091892 -2106464712 -757127166 -773731611 -1998992009 950126781 -178457831 1388608469 -1357185594 -257988836 -909118925 -91225202 -368916035 -1579167125 -1875163516 -839691110 354057941 256176046 -316850090 558054206 -1276921174 1158124385 767768728 980514030 260957155 64278081 1054178894
REM
CELL 1.54180   15.00000   15.00000   15.00000   90.00000   90.00000   90.00000
LATT -1
SFAC C  
C      1  0.6663070000000  0.5950690000000  0.6294080000000 1.0
C      1  0.4259690000000  0.5962740000000  0.6995920000000 1.0
C      1  0.2896300000000  0.5960230000000  0.4930040000000 1.0
C      1  0.4418640000000  0.5964000000000  0.2957740000000 1.0
C      1  0.6761150000000  0.5958220000000  0.3818350000000 1.0
C      1  0.6656130000000  0.4029800000000  0.6291450000000 1.0
C      1  0.4256620000000  0.4033540000000  0.7005690000000 1.0
C      1  0.2885700000000  0.4044180000000  0.4930140000000 1.0
C      1  0.4418930000000  0.4035700000000  0.2952990000000 1.0
C      1  0.6759910000000  0.4037800000000  0.3812890000000 1.0
C      1  0.3863140000000  0.3498420000000  0.5805070000000 1.0
C      1  0.3951250000000  0.3425370000000  0.4221280000000 1.0
C      1  0.5441350000000  0.3489820000000  0.3691760000000 1.0
C      1  0.6368620000000  0.3474980000000  0.5007950000000 1.0
C      1  0.5404680000000  0.3417080000000  0.6293120000000 1.0
C      1  0.3849150000000  0.6505720000000  0.5808150000000 1.0
C      1  0.3910410000000  0.6583600000000  0.4202940000000 1.0
C      1  0.5441780000000  0.6527210000000  0.3693750000000 1.0
C      1  0.6380350000000  0.6514980000000  0.5016860000000 1.0
C      1  0.5387150000000  0.6588040000000  0.6274820000000 1.0
C      1  0.5244290000000  0.4205640000000  0.5754750000000 1.0
C      1  0.4316340000000  0.4352870000000  0.5505750000000 1.0
C      1  0.4385690000000  0.4215270000000  0.4542970000000 1.0
C      1  0.5279870000000  0.4328170000000  0.4203270000000 1.0
C      1  0.5844000000000  0.4324200000000  0.5011110000000 1.0
C      1  0.5236830000000  0.5804000000000  0.5746730000000 1.0
C      1  0.4306650000000  0.5659870000000  0.5497190000000 1.0
C      1  0.4375330000000  0.5805600000000  0.4537690000000 1.0
C      1  0.5270590000000  0.5685850000000  0.4203360000000 1.0
C      1  0.5841600000000  0.5677800000000  0.5006030000000 1.0
C      1  0.6291860000000  0.3200010000000  0.5940020000000 1.0
C      1  0.4461850000000  0.3217540000000  0.6514550000000 1.0
C      1  0.3393080000000  0.3218900000000  0.4995860000000 1.0
C      1  0.4535390000000  0.3214450000000  0.3465940000000 1.0
C      1  0.6303180000000  0.3217840000000  0.4068310000000 1.0
C      1  0.6287310000000  0.6781610000000  0.5955590000000 1.0
C      1  0.4455780000000  0.6786500000000  0.6514650000000 1.0
C      1  0.3386910000000  0.6794480000000  0.5004030000000 1.0
C      1  0.4531180000000  0.6785730000000  0.3464020000000 1.0
C      1  0.6304600000000  0.6778700000000  0.4082410000000 1.0
C      1  0.6093740000000  0.4523660000000  0.6957930000000 1.0
C      1  0.3442960000000  0.4521360000000  0.6667980000000 1.0
C      1  0.2950500000000  0.4517960000000  0.4062000000000 1.0
C      1  0.5272390000000  0.4526530000000  0.2741580000000 1.0
C      1  0.7224260000000  0.4522770000000  0.4560120000000 1.0
C      1  0.6101540000000  0.5472360000000  0.6957920000000 1.0
C      1  0.3438830000000  0.5466660000000  0.6672560000000 1.0
C      1  0.2956730000000  0.5471440000000  0.4060520000000 1.0
C      1  0.5271320000000  0.5473750000000  0.2746720000000 1.0
C      1  0.7225470000000  0.5471170000000  0.4562840000000 1.0
C      1  0.6251890000000  0.4525030000000  0.3099630000000 1.0
C      1  0.7192570000000  0.4518020000000  0.5599050000000 1.0
C      1  0.5096570000000  0.4527660000000  0.7247290000000 1.0
C      1  0.2860390000000  0.4527240000000  0.5805020000000 1.0
C      1  0.3594170000000  0.4519590000000  0.3236980000000 1.0
C      1  0.6249730000000  0.5473420000000  0.3104320000000 1.0
C      1  0.7196610000000  0.5468480000000  0.5605540000000 1.0
C      1  0.5093310000000  0.5473900000000  0.7244940000000 1.0
C      1  0.2866290000000  0.5472810000000  0.5808160000000 1.0
C      1  0.3594340000000  0.5469030000000  0.3239670000000 1.0
END
