TITL C-1525613-7943-4073 -0.0572405970521044 3375 -9008.91347400579 0 0 60 (C1) n - 1
REM
REM in /home/nfs/bkarasulu/CARBON/AIRSS/Generating-Clusters/ReaxFF-fromJPCA2015/Units_Real/Try2-Higher-symm/Only-C60
REM
REM
REM
REM
REM
REM ./C.cell (863b2abdce7293c0672fb3ba77bf323a)
REM AIRSS Version 0.9.1 bugfix July 2018 build 013d7b7c2542+ Fri, 06 Jul 2018 19:26:36 +0100
REM compiler GCC version 9.2.1 20190827 (Red Hat 9.2.1-1)
REM options -cpp -mtune=generic -march=x86-64 -g -O0 -fpre-include=/usr/include/finclude/math-vector-fortran.h
REM seed -742440841 719394781 856986908 721767023 902678651 -42085427 -1828447031 -341630445 -640139053 2027082371 -984771180 -260202802 575170337 177994253 -938705927 -933127392 626666469 973344003 -1178486372 464255866 -1016662947 1549843374 1204521481 701156817 1977465848 1797850540 -1756536072 -1835804804 1509189172 -1017642408 -404772196 -1508336683 819875509
REM
CELL 1.54180   15.00000   15.00000   15.00000   90.00000   90.00000   90.00000
LATT -1
SFAC C  
C      1  0.3443230000000  0.5280030000000  0.5813910000000 1.0
C      1  0.4202120000000  0.5306740000000  0.6575800000000 1.0
C      1  0.5361270000000  0.5287540000000  0.6678240000000 1.0
C      1  0.6108930000000  0.4962430000000  0.6095800000000 1.0
C      1  0.6682140000000  0.5286400000000  0.5358870000000 1.0
C      1  0.6568720000000  0.5289870000000  0.4196480000000 1.0
C      1  0.5811860000000  0.5314640000000  0.3421970000000 1.0
C      1  0.4646670000000  0.5281980000000  0.3326190000000 1.0
C      1  0.3891460000000  0.4962060000000  0.3903600000000 1.0
C      1  0.3318350000000  0.5287720000000  0.4648670000000 1.0
C      1  0.2713090000000  0.3806150000000  0.5392720000000 1.0
C      1  0.3424030000000  0.3884030000000  0.6619650000000 1.0
C      1  0.4690190000000  0.3862160000000  0.7237180000000 1.0
C      1  0.6022240000000  0.3811940000000  0.7076320000000 1.0
C      1  0.7127300000000  0.3784270000000  0.5993230000000 1.0
C      1  0.7277930000000  0.3807430000000  0.4607620000000 1.0
C      1  0.6579260000000  0.3883400000000  0.3376650000000 1.0
C      1  0.5332410000000  0.3810940000000  0.2717800000000 1.0
C      1  0.3950180000000  0.3787260000000  0.2909410000000 1.0
C      1  0.2873390000000  0.3791020000000  0.4007680000000 1.0
C      1  0.3910430000000  0.3185580000000  0.6125710000000 1.0
C      1  0.4784960000000  0.3189310000000  0.6540250000000 1.0
C      1  0.5731610000000  0.3153550000000  0.6388300000000 1.0
C      1  0.6410940000000  0.3139980000000  0.5692780000000 1.0
C      1  0.6536920000000  0.3132530000000  0.4738760000000 1.0
C      1  0.6084530000000  0.3178910000000  0.3881390000000 1.0
C      1  0.5214140000000  0.3127690000000  0.3456940000000 1.0
C      1  0.4264320000000  0.3133880000000  0.3617220000000 1.0
C      1  0.3586710000000  0.3138740000000  0.4316960000000 1.0
C      1  0.3458130000000  0.3131410000000  0.5270520000000 1.0
C      1  0.7111910000000  0.4480320000000  0.3924040000000 1.0
C      1  0.6020850000000  0.4488340000000  0.2871330000000 1.0
C      1  0.4616510000000  0.4454270000000  0.2674500000000 1.0
C      1  0.3323960000000  0.4380410000000  0.3369090000000 1.0
C      1  0.2667290000000  0.4456620000000  0.4680170000000 1.0
C      1  0.2886520000000  0.4475880000000  0.6078360000000 1.0
C      1  0.4003850000000  0.4472380000000  0.7122530000000 1.0
C      1  0.5365280000000  0.4479510000000  0.7335260000000 1.0
C      1  0.6665860000000  0.4374630000000  0.6616510000000 1.0
C      1  0.7326500000000  0.4453360000000  0.5321640000000 1.0
C      1  0.3922300000000  0.7295220000000  0.3874390000000 1.0
C      1  0.3490530000000  0.7002080000000  0.4735580000000 1.0
C      1  0.3543070000000  0.7018350000000  0.5708890000000 1.0
C      1  0.4234060000000  0.7042890000000  0.6427870000000 1.0
C      1  0.5200120000000  0.6964770000000  0.6500320000000 1.0
C      1  0.6070940000000  0.7291730000000  0.6131240000000 1.0
C      1  0.6514240000000  0.7006510000000  0.5278860000000 1.0
C      1  0.6456670000000  0.7028200000000  0.4306950000000 1.0
C      1  0.5769380000000  0.7057660000000  0.3582620000000 1.0
C      1  0.4798820000000  0.6996890000000  0.3494900000000 1.0
C      1  0.6155350000000  0.6229410000000  0.3199220000000 1.0
C      1  0.4348630000000  0.6229090000000  0.3087250000000 1.0
C      1  0.3480270000000  0.6530610000000  0.3416210000000 1.0
C      1  0.3121170000000  0.6227410000000  0.4275030000000 1.0
C      1  0.3172270000000  0.6193620000000  0.6116560000000 1.0
C      1  0.3853260000000  0.6213660000000  0.6808650000000 1.0
C      1  0.5653080000000  0.6200970000000  0.6877450000000 1.0
C      1  0.6506180000000  0.6522020000000  0.6573600000000 1.0
C      1  0.6881670000000  0.6226810000000  0.5727900000000 1.0
C      1  0.6832000000000  0.6206770000000  0.3896470000000 1.0
END
