TITL C-1525613-7943-2917 -0.0304120057804054 3375 -8838.85132880338 0 0 60 (C2) n - 1
REM
REM in /home/nfs/bkarasulu/CARBON/AIRSS/Generating-Clusters/ReaxFF-fromJPCA2015/Units_Real/Try2-Higher-symm/Only-C60
REM
REM
REM
REM
REM
REM ./C.cell (863b2abdce7293c0672fb3ba77bf323a)
REM AIRSS Version 0.9.1 bugfix July 2018 build 013d7b7c2542+ Fri, 06 Jul 2018 19:26:36 +0100
REM compiler GCC version 9.2.1 20190827 (Red Hat 9.2.1-1)
REM options -cpp -mtune=generic -march=x86-64 -g -O0 -fpre-include=/usr/include/finclude/math-vector-fortran.h
REM seed -1781650166 2066012883 804996640 -1379004395 -1828112830 1134651504 -14052860 -1494882704 -1628199018 -1386282576 1907278813 -600418941 -380957633 1868549938 -1811387926 533205627 -628828164 1020554846 739158747 319718272 1695089618 451952599 476847122 77189567 -646220434 1349611847 881670315 1551609122 -875456552 1966917422 -1215833182 -1184283130 1702797388
REM
CELL 1.54180   15.00000   15.00000   15.00000   90.00000   90.00000   90.00000
LATT -1
SFAC C  
C      1  0.5482240000000  0.4008450000000  0.7053100000000 1.0
C      1  0.3193020000000  0.4004580000000  0.6087880000000 1.0
C      1  0.3388190000000  0.3983680000000  0.3630640000000 1.0
C      1  0.5807280000000  0.4000020000000  0.3047020000000 1.0
C      1  0.7110610000000  0.4005350000000  0.5170010000000 1.0
C      1  0.4517860000000  0.5991420000000  0.7052750000000 1.0
C      1  0.6803900000000  0.5996130000000  0.6085680000000 1.0
C      1  0.6611690000000  0.6016320000000  0.3631310000000 1.0
C      1  0.4192550000000  0.5999210000000  0.3048450000000 1.0
C      1  0.2891980000000  0.5994490000000  0.5171970000000 1.0
C      1  0.6243140000000  0.6850730000000  0.6074900000000 1.0
C      1  0.4355340000000  0.6848230000000  0.6515380000000 1.0
C      1  0.3353920000000  0.6852490000000  0.4855050000000 1.0
C      1  0.4635860000000  0.6858540000000  0.3399790000000 1.0
C      1  0.6407290000000  0.6867200000000  0.4172570000000 1.0
C      1  0.3756530000000  0.3151770000000  0.6074110000000 1.0
C      1  0.5644250000000  0.3152570000000  0.6515240000000 1.0
C      1  0.6645660000000  0.3146270000000  0.4854580000000 1.0
C      1  0.5364170000000  0.3140470000000  0.3399450000000 1.0
C      1  0.3592490000000  0.3132440000000  0.4171380000000 1.0
C      1  0.3316370000000  0.4890160000000  0.6509220000000 1.0
C      1  0.3047650000000  0.4882880000000  0.3861170000000 1.0
C      1  0.5471570000000  0.4890390000000  0.2787280000000 1.0
C      1  0.7258110000000  0.4887350000000  0.4757370000000 1.0
C      1  0.5925580000000  0.4891260000000  0.7067080000000 1.0
C      1  0.6683190000000  0.5109470000000  0.6508480000000 1.0
C      1  0.6952330000000  0.5116840000000  0.3863010000000 1.0
C      1  0.4528820000000  0.5109080000000  0.2786670000000 1.0
C      1  0.2736640000000  0.5115850000000  0.4753980000000 1.0
C      1  0.4074390000000  0.5109300000000  0.7066580000000 1.0
C      1  0.5303680000000  0.6993450000000  0.6409310000000 1.0
C      1  0.3749340000000  0.6995940000000  0.5724280000000 1.0
C      1  0.3921490000000  0.6994480000000  0.4040940000000 1.0
C      1  0.5577690000000  0.7000900000000  0.3690170000000 1.0
C      1  0.6412450000000  0.6973820000000  0.5148130000000 1.0
C      1  0.4695950000000  0.3007390000000  0.6409170000000 1.0
C      1  0.6250030000000  0.3006100000000  0.5724130000000 1.0
C      1  0.6078360000000  0.3005880000000  0.4040960000000 1.0
C      1  0.4422800000000  0.2999550000000  0.3689950000000 1.0
C      1  0.3596830000000  0.3031820000000  0.5146810000000 1.0
C      1  0.6559750000000  0.4350450000000  0.5891250000000 1.0
C      1  0.4625550000000  0.4351650000000  0.6756950000000 1.0
C      1  0.3202800000000  0.4359290000000  0.5183870000000 1.0
C      1  0.4240630000000  0.4360300000000  0.3370630000000 1.0
C      1  0.6320370000000  0.4349010000000  0.3789550000000 1.0
C      1  0.3442640000000  0.5649890000000  0.5893650000000 1.0
C      1  0.5374290000000  0.5648830000000  0.6753150000000 1.0
C      1  0.6788540000000  0.5644250000000  0.5180670000000 1.0
C      1  0.5758970000000  0.5639150000000  0.3374610000000 1.0
C      1  0.3679800000000  0.5650100000000  0.3791070000000 1.0
C      1  0.5682970000000  0.4277710000000  0.5427800000000 1.0
C      1  0.4799330000000  0.4286990000000  0.5778360000000 1.0
C      1  0.4189510000000  0.4287140000000  0.5058010000000 1.0
C      1  0.4687870000000  0.4289140000000  0.4259190000000 1.0
C      1  0.5612470000000  0.4278460000000  0.4482330000000 1.0
C      1  0.4321310000000  0.5724840000000  0.5429690000000 1.0
C      1  0.5201930000000  0.5712770000000  0.5778570000000 1.0
C      1  0.5805170000000  0.5695880000000  0.5059310000000 1.0
C      1  0.5312930000000  0.5709890000000  0.4262260000000 1.0
C      1  0.4391930000000  0.5721960000000  0.4483140000000 1.0
END
