TITL C-1525613-7943-1525 -0.106384748459084 3375 -9034.31578396343 0 0 60 (C2) n - 1
REM
REM in /home/nfs/bkarasulu/CARBON/AIRSS/Generating-Clusters/ReaxFF-fromJPCA2015/Units_Real/Try2-Higher-symm/Only-C60
REM
REM
REM
REM
REM
REM ./C.cell (863b2abdce7293c0672fb3ba77bf323a)
REM AIRSS Version 0.9.1 bugfix July 2018 build 013d7b7c2542+ Fri, 06 Jul 2018 19:26:36 +0100
REM compiler GCC version 9.2.1 20190827 (Red Hat 9.2.1-1)
REM options -cpp -mtune=generic -march=x86-64 -g -O0 -fpre-include=/usr/include/finclude/math-vector-fortran.h
REM seed -2116005009 -1003374871 -1374383393 -51990788 -1644471597 -902125774 -1442279628 971430146 2129982615 -2018407092 278697342 -1161711079 722765689 1481118709 877070871 1365430438 -2073869522 -1477436134 -569039973 -114145074 -1665148662 -535832550 1940994399 -1769801701 -180196969 1255946417 -798994008 1416854641 -36786803 -686027471 543276310 -1481169212 1224864123
REM
CELL 1.54180   15.00000   15.00000   15.00000   90.00000   90.00000   90.00000
LATT -1
SFAC C  
C      1  0.3744370000000  0.2712290000000  0.4064810000000 1.0
C      1  0.3972830000000  0.2649870000000  0.5539280000000 1.0
C      1  0.3737980000000  0.3345570000000  0.6827170000000 1.0
C      1  0.3682020000000  0.4806870000000  0.7494700000000 1.0
C      1  0.3707320000000  0.6250200000000  0.7155130000000 1.0
C      1  0.3743710000000  0.7287150000000  0.5935390000000 1.0
C      1  0.3972980000000  0.7350100000000  0.4461090000000 1.0
C      1  0.3738800000000  0.6654530000000  0.3173010000000 1.0
C      1  0.3683360000000  0.5192820000000  0.2505390000000 1.0
C      1  0.3706450000000  0.3748490000000  0.2844720000000 1.0
C      1  0.5359410000000  0.2969960000000  0.6347420000000 1.0
C      1  0.5115990000000  0.4033610000000  0.7437020000000 1.0
C      1  0.5222420000000  0.5560080000000  0.7570410000000 1.0
C      1  0.5127170000000  0.6913570000000  0.6771610000000 1.0
C      1  0.5362690000000  0.7422140000000  0.5327690000000 1.0
C      1  0.5358240000000  0.7031660000000  0.3652860000000 1.0
C      1  0.5116970000000  0.5965430000000  0.2563870000000 1.0
C      1  0.5221740000000  0.4436570000000  0.2429390000000 1.0
C      1  0.5126650000000  0.3085210000000  0.3228330000000 1.0
C      1  0.5363220000000  0.2579020000000  0.4672270000000 1.0
C      1  0.5745150000000  0.5577650000000  0.3176140000000 1.0
C      1  0.5960610000000  0.4555180000000  0.3120630000000 1.0
C      1  0.5776360000000  0.3658220000000  0.3616320000000 1.0
C      1  0.6087340000000  0.3208520000000  0.4414340000000 1.0
C      1  0.6065920000000  0.3665690000000  0.6306510000000 1.0
C      1  0.5743100000000  0.4425070000000  0.6824680000000 1.0
C      1  0.5961270000000  0.5445150000000  0.6878660000000 1.0
C      1  0.5778440000000  0.6342620000000  0.6382660000000 1.0
C      1  0.6087620000000  0.6792840000000  0.5585300000000 1.0
C      1  0.6065370000000  0.6335910000000  0.3694140000000 1.0
C      1  0.4640140000000  0.4808420000000  0.7805300000000 1.0
C      1  0.4665130000000  0.6356770000000  0.7437320000000 1.0
C      1  0.4725960000000  0.7472770000000  0.6061680000000 1.0
C      1  0.4969830000000  0.7476710000000  0.4433360000000 1.0
C      1  0.4718690000000  0.6776260000000  0.2967420000000 1.0
C      1  0.4641150000000  0.5189560000000  0.2194730000000 1.0
C      1  0.4663750000000  0.3640280000000  0.2562060000000 1.0
C      1  0.4725850000000  0.2527150000000  0.3938060000000 1.0
C      1  0.4970230000000  0.2523450000000  0.5565360000000 1.0
C      1  0.4717930000000  0.3224520000000  0.7034940000000 1.0
C      1  0.3240170000000  0.6504840000000  0.5633390000000 1.0
C      1  0.3402880000000  0.6566130000000  0.4638770000000 1.0
C      1  0.3231890000000  0.6073770000000  0.3775300000000 1.0
C      1  0.3251120000000  0.5144390000000  0.3380550000000 1.0
C      1  0.3257830000000  0.4162830000000  0.3610500000000 1.0
C      1  0.3240010000000  0.3495230000000  0.4366080000000 1.0
C      1  0.3403110000000  0.3433690000000  0.5361140000000 1.0
C      1  0.3231640000000  0.3926050000000  0.6224720000000 1.0
C      1  0.3250110000000  0.4855410000000  0.6619520000000 1.0
C      1  0.3258210000000  0.5837440000000  0.6389100000000 1.0
C      1  0.6942700000000  0.6308500000000  0.4170220000000 1.0
C      1  0.7160610000000  0.5448550000000  0.3916350000000 1.0
C      1  0.7009410000000  0.4647840000000  0.3479720000000 1.0
C      1  0.7162480000000  0.4122990000000  0.4227420000000 1.0
C      1  0.6953030000000  0.3460000000000  0.4836390000000 1.0
C      1  0.6941050000000  0.3692010000000  0.5829990000000 1.0
C      1  0.7160250000000  0.4552490000000  0.6083700000000 1.0
C      1  0.7010680000000  0.5352560000000  0.6521090000000 1.0
C      1  0.7163760000000  0.5877170000000  0.5772070000000 1.0
C      1  0.6954920000000  0.6540230000000  0.5162820000000 1.0
END
