TITL C-1525613-7943-3645 0.0761133330830936 3375 -8628.45211730885 0 0 60 (Ci) n - 1
REM
REM in /home/nfs/bkarasulu/CARBON/AIRSS/Generating-Clusters/ReaxFF-fromJPCA2015/Units_Real/Try2-Higher-symm/Only-C60
REM
REM
REM
REM
REM
REM ./C.cell (863b2abdce7293c0672fb3ba77bf323a)
REM AIRSS Version 0.9.1 bugfix July 2018 build 013d7b7c2542+ Fri, 06 Jul 2018 19:26:36 +0100
REM compiler GCC version 9.2.1 20190827 (Red Hat 9.2.1-1)
REM options -cpp -mtune=generic -march=x86-64 -g -O0 -fpre-include=/usr/include/finclude/math-vector-fortran.h
REM seed 461401989 2142902844 1911092962 -1448649486 -443632220 1770676630 165929989 -1721238128 -744713403 -1391146886 -1347623198 50921970 -647541531 -1813547488 1619820060 -121856649 -1404528372 119809171 -2005229048 -460427059 -768168660 -1716701706 -1518169567 -2081669809 2107373053 -1842522317 987213848 -458559385 -1628885986 -1899447815 -1243556785 1281669279 -243016374
REM
CELL 1.54180   15.00000   15.00000   15.00000   90.00000   90.00000   90.00000
LATT -1
SFAC C  
C      1  0.3857180000000  0.4158990000000  0.4764220000000 1.0
C      1  0.4607170000000  0.3615010000000  0.4942350000000 1.0
C      1  0.5526360000000  0.3654540000000  0.4828050000000 1.0
C      1  0.6160710000000  0.4199390000000  0.5212330000000 1.0
C      1  0.6377670000000  0.5010220000000  0.4777750000000 1.0
C      1  0.6139900000000  0.5825700000000  0.5260560000000 1.0
C      1  0.5371380000000  0.6396400000000  0.5084440000000 1.0
C      1  0.4432850000000  0.6348110000000  0.5194270000000 1.0
C      1  0.3816840000000  0.5772990000000  0.4788030000000 1.0
C      1  0.3601470000000  0.4962120000000  0.5193250000000 1.0
C      1  0.3468840000000  0.4126730000000  0.6713190000000 1.0
C      1  0.4219930000000  0.3347180000000  0.3312910000000 1.0
C      1  0.5298290000000  0.3288480000000  0.6553790000000 1.0
C      1  0.6290660000000  0.3769470000000  0.3317700000000 1.0
C      1  0.6792540000000  0.4824060000000  0.6751240000000 1.0
C      1  0.6543310000000  0.5886530000000  0.3281710000000 1.0
C      1  0.5806250000000  0.6644430000000  0.6676630000000 1.0
C      1  0.4697540000000  0.6713970000000  0.3445920000000 1.0
C      1  0.3718520000000  0.6235320000000  0.6682550000000 1.0
C      1  0.3216480000000  0.5168830000000  0.3261850000000 1.0
C      1  0.5855450000000  0.4925710000000  0.6951920000000 1.0
C      1  0.5723690000000  0.5419070000000  0.3069590000000 1.0
C      1  0.5375340000000  0.5808770000000  0.6960630000000 1.0
C      1  0.4821150000000  0.5838250000000  0.3105290000000 1.0
C      1  0.4394960000000  0.5604960000000  0.6943980000000 1.0
C      1  0.4153710000000  0.5072120000000  0.3057500000000 1.0
C      1  0.4284230000000  0.4588990000000  0.6934770000000 1.0
C      1  0.4639860000000  0.4194530000000  0.3042340000000 1.0
C      1  0.5185020000000  0.4161630000000  0.6899410000000 1.0
C      1  0.5617520000000  0.4405250000000  0.3056550000000 1.0
C      1  0.4064150000000  0.7229660000000  0.5457640000000 1.0
C      1  0.3007590000000  0.6232600000000  0.4421150000000 1.0
C      1  0.2676940000000  0.4858370000000  0.5558680000000 1.0
C      1  0.3175640000000  0.3502530000000  0.4453060000000 1.0
C      1  0.4383420000000  0.2150940000000  0.5619950000000 1.0
C      1  0.5919680000000  0.2787620000000  0.4549190000000 1.0
C      1  0.6982930000000  0.3770510000000  0.5573450000000 1.0
C      1  0.7309200000000  0.5148010000000  0.4443240000000 1.0
C      1  0.6843230000000  0.6493250000000  0.5523970000000 1.0
C      1  0.5627100000000  0.7838250000000  0.4375260000000 1.0
C      1  0.4335460000000  0.2681220000000  0.4785020000000 1.0
C      1  0.5950430000000  0.2221630000000  0.5357330000000 1.0
C      1  0.7144210000000  0.3391720000000  0.4724470000000 1.0
C      1  0.7656370000000  0.4951700000000  0.5299090000000 1.0
C      1  0.7228140000000  0.6503730000000  0.4681030000000 1.0
C      1  0.5659330000000  0.7341070000000  0.5226610000000 1.0
C      1  0.4048080000000  0.7784510000000  0.4638350000000 1.0
C      1  0.2849660000000  0.6604800000000  0.5278130000000 1.0
C      1  0.2328570000000  0.5054640000000  0.4702490000000 1.0
C      1  0.2788090000000  0.3494410000000  0.5299610000000 1.0
C      1  0.2516310000000  0.5499930000000  0.3889290000000 1.0
C      1  0.2696160000000  0.3978040000000  0.6103900000000 1.0
C      1  0.3745860000000  0.2828740000000  0.3988980000000 1.0
C      1  0.5258560000000  0.2423850000000  0.6067020000000 1.0
C      1  0.6697950000000  0.3110880000000  0.3939530000000 1.0
C      1  0.7480000000000  0.4494340000000  0.6106610000000 1.0
C      1  0.7321480000000  0.6029220000000  0.3878750000000 1.0
C      1  0.6273610000000  0.7162280000000  0.5994510000000 1.0
C      1  0.4740170000000  0.7575730000000  0.3935890000000 1.0
C      1  0.3296870000000  0.6888080000000  0.6063090000000 1.0
END
