TITL C-1525613-7943-1389 0.0914229721002351 3375 -8485.4895356412 0 0 60 (C1) n - 1
REM
REM in /home/nfs/bkarasulu/CARBON/AIRSS/Generating-Clusters/ReaxFF-fromJPCA2015/Units_Real/Try2-Higher-symm/Only-C60
REM
REM
REM
REM
REM
REM ./C.cell (863b2abdce7293c0672fb3ba77bf323a)
REM AIRSS Version 0.9.1 bugfix July 2018 build 013d7b7c2542+ Fri, 06 Jul 2018 19:26:36 +0100
REM compiler GCC version 9.2.1 20190827 (Red Hat 9.2.1-1)
REM options -cpp -mtune=generic -march=x86-64 -g -O0 -fpre-include=/usr/include/finclude/math-vector-fortran.h
REM seed -1717195275 825961602 -432271253 2108715829 1563882480 -1852533810 1625742045 -1108735892 178407074 2021573023 733264785 -1080072067 40814419 -1870337513 -27284640 1897728262 -2108798747 507592442 1505411623 679183468 1693470549 -548357996 846911732 1648201247 -893046539 455527948 -1361277800 -1175488594 -2047163767 -1895360489 -2067775030 1915270238 -1784127924
REM
CELL 1.54180   15.00000   15.00000   15.00000   90.00000   90.00000   90.00000
LATT -1
SFAC C  
C      1  0.6191820000000  0.6427350000000  0.5099480000000 1.0
C      1  0.4387650000000  0.7136390000000  0.5041770000000 1.0
C      1  0.3183680000000  0.5038570000000  0.5356070000000 1.0
C      1  0.4631340000000  0.3225460000000  0.5298380000000 1.0
C      1  0.6496920000000  0.3868490000000  0.5259350000000 1.0
C      1  0.3999480000000  0.6195470000000  0.5022190000000 1.0
C      1  0.5757730000000  0.7265020000000  0.4972760000000 1.0
C      1  0.6872740000000  0.5060890000000  0.4689130000000 1.0
C      1  0.5390760000000  0.3156590000000  0.4709160000000 1.0
C      1  0.3497260000000  0.3845120000000  0.4700090000000 1.0
C      1  0.5187190000000  0.6357710000000  0.7290530000000 1.0
C      1  0.3352250000000  0.5986090000000  0.7276430000000 1.0
C      1  0.4129880000000  0.4265860000000  0.7273930000000 1.0
C      1  0.5726370000000  0.3279490000000  0.7149740000000 1.0
C      1  0.6410800000000  0.5018310000000  0.7216690000000 1.0
C      1  0.4795970000000  0.6368890000000  0.2663440000000 1.0
C      1  0.6440320000000  0.5900900000000  0.3028860000000 1.0
C      1  0.5842890000000  0.4229080000000  0.2689400000000 1.0
C      1  0.4229880000000  0.3242660000000  0.2846160000000 1.0
C      1  0.3609170000000  0.4995030000000  0.2771420000000 1.0
C      1  0.5243330000000  0.5546450000000  0.4435330000000 1.0
C      1  0.4331040000000  0.5390840000000  0.4314830000000 1.0
C      1  0.4290290000000  0.4428830000000  0.4311530000000 1.0
C      1  0.5166440000000  0.4020250000000  0.4275890000000 1.0
C      1  0.5814920000000  0.4761260000000  0.4437520000000 1.0
C      1  0.4595100000000  0.5713200000000  0.5660430000000 1.0
C      1  0.5539990000000  0.5688070000000  0.5382810000000 1.0
C      1  0.5713800000000  0.4495000000000  0.5491160000000 1.0
C      1  0.4803420000000  0.4144190000000  0.5636860000000 1.0
C      1  0.4163190000000  0.4882090000000  0.5690320000000 1.0
C      1  0.3552000000000  0.3799790000000  0.6586660000000 1.0
C      1  0.5941400000000  0.2810680000000  0.6321110000000 1.0
C      1  0.7191750000000  0.5013850000000  0.6502840000000 1.0
C      1  0.5200330000000  0.7082220000000  0.6622600000000 1.0
C      1  0.2967680000000  0.6230630000000  0.6397820000000 1.0
C      1  0.6442440000000  0.3772420000000  0.3381320000000 1.0
C      1  0.4054000000000  0.3034920000000  0.3709080000000 1.0
C      1  0.2876510000000  0.5012870000000  0.3523620000000 1.0
C      1  0.4853900000000  0.7019780000000  0.3406720000000 1.0
C      1  0.7106290000000  0.6311310000000  0.3633160000000 1.0
C      1  0.6627530000000  0.3689030000000  0.4301820000000 1.0
C      1  0.6954800000000  0.6041420000000  0.4596690000000 1.0
C      1  0.4965200000000  0.7384750000000  0.4284370000000 1.0
C      1  0.2858120000000  0.5059190000000  0.4449950000000 1.0
C      1  0.3898750000000  0.2940620000000  0.4624580000000 1.0
C      1  0.3360170000000  0.3679940000000  0.5662430000000 1.0
C      1  0.3037630000000  0.6002800000000  0.5451190000000 1.0
C      1  0.5085180000000  0.7408380000000  0.5713550000000 1.0
C      1  0.7162850000000  0.5034080000000  0.5575590000000 1.0
C      1  0.6151240000000  0.2944710000000  0.5364620000000 1.0
C      1  0.6102360000000  0.5124570000000  0.2430620000000 1.0
C      1  0.5706220000000  0.5993990000000  0.2388730000000 1.0
C      1  0.4166860000000  0.5682010000000  0.2728350000000 1.0
C      1  0.4071610000000  0.4154800000000  0.2454330000000 1.0
C      1  0.4973760000000  0.3884880000000  0.2443370000000 1.0
C      1  0.3862660000000  0.5146830000000  0.7588870000000 1.0
C      1  0.4265180000000  0.5999750000000  0.7611400000000 1.0
C      1  0.5835080000000  0.5688200000000  0.7243030000000 1.0
C      1  0.5924010000000  0.4197070000000  0.7509560000000 1.0
C      1  0.5008870000000  0.3921000000000  0.7500330000000 1.0
END
