TITL C-1525613-7943-7629 -0.0114429185833504 3375 -9582.35356615074 0 0 60 (C1) n - 1
REM
REM in /home/nfs/bkarasulu/CARBON/AIRSS/Generating-Clusters/ReaxFF-fromJPCA2015/Units_Real/Try2-Higher-symm/Only-C60
REM
REM
REM
REM
REM
REM ./C.cell (863b2abdce7293c0672fb3ba77bf323a)
REM AIRSS Version 0.9.1 bugfix July 2018 build 013d7b7c2542+ Fri, 06 Jul 2018 19:26:36 +0100
REM compiler GCC version 9.2.1 20190827 (Red Hat 9.2.1-1)
REM options -cpp -mtune=generic -march=x86-64 -g -O0 -fpre-include=/usr/include/finclude/math-vector-fortran.h
REM seed 1583961240 -436953456 1466121886 1683687086 2104746698 -1180040527 -1787346060 -1857313261 947953197 -1622492138 -1555990186 -666803519 -1356347224 -1855249464 1231370146 941462791 -1737526818 831342284 -1926291122 -2108701300 452476305 1421051020 2034085798 2118989255 -484824449 1949455530 1148599662 746634870 -742140048 -449420219 -324819280 1497360896 881139860
REM
CELL 1.54180   15.00000   15.00000   15.00000   90.00000   90.00000   90.00000
LATT -1
SFAC C  
C      1  0.4641460000000  0.4629580000000  0.7507070000000 1.0
C      1  0.6202400000000  0.5377120000000  0.7273410000000 1.0
C      1  0.7298710000000  0.4621660000000  0.6132830000000 1.0
C      1  0.7513130000000  0.5371580000000  0.4564090000000 1.0
C      1  0.6768490000000  0.4632610000000  0.3154890000000 1.0
C      1  0.5350050000000  0.5348960000000  0.2531960000000 1.0
C      1  0.3786400000000  0.4622680000000  0.2732490000000 1.0
C      1  0.2701580000000  0.5409260000000  0.3828490000000 1.0
C      1  0.2421850000000  0.4581620000000  0.5465130000000 1.0
C      1  0.3239440000000  0.5353750000000  0.6846080000000 1.0
C      1  0.7122260000000  0.3759100000000  0.5090770000000 1.0
C      1  0.6750600000000  0.6234890000000  0.3834340000000 1.0
C      1  0.5720960000000  0.3778900000000  0.3009810000000 1.0
C      1  0.4426880000000  0.6306990000000  0.2842890000000 1.0
C      1  0.3316800000000  0.3755730000000  0.3688670000000 1.0
C      1  0.2901590000000  0.6073690000000  0.5055500000000 1.0
C      1  0.3236420000000  0.3758290000000  0.6184880000000 1.0
C      1  0.4289470000000  0.6213980000000  0.7030060000000 1.0
C      1  0.5586770000000  0.3750050000000  0.7069160000000 1.0
C      1  0.6676430000000  0.6238830000000  0.6323700000000 1.0
C      1  0.3379960000000  0.3438190000000  0.4572960000000 1.0
C      1  0.3408620000000  0.6608520000000  0.5622740000000 1.0
C      1  0.4091180000000  0.3446740000000  0.6402260000000 1.0
C      1  0.5094400000000  0.6549100000000  0.6670720000000 1.0
C      1  0.6057210000000  0.3426140000000  0.6297970000000 1.0
C      1  0.6615310000000  0.6564540000000  0.5444260000000 1.0
C      1  0.6558550000000  0.3431780000000  0.4416260000000 1.0
C      1  0.5905290000000  0.6565670000000  0.3606770000000 1.0
C      1  0.4910750000000  0.3449240000000  0.3340210000000 1.0
C      1  0.3938240000000  0.6747680000000  0.3589640000000 1.0
C      1  0.4953980000000  0.3021680000000  0.4186010000000 1.0
C      1  0.4497620000000  0.7071260000000  0.4369280000000 1.0
C      1  0.4201550000000  0.3023410000000  0.4790760000000 1.0
C      1  0.4250370000000  0.7031510000000  0.5282670000000 1.0
C      1  0.4552090000000  0.3017460000000  0.5690060000000 1.0
C      1  0.5044310000000  0.6986790000000  0.5823540000000 1.0
C      1  0.5513850000000  0.3011540000000  0.5641290000000 1.0
C      1  0.5798680000000  0.6991500000000  0.5222180000000 1.0
C      1  0.5761300000000  0.3014080000000  0.4712830000000 1.0
C      1  0.5451450000000  0.7008710000000  0.4319790000000 1.0
C      1  0.2880030000000  0.3736320000000  0.5310790000000 1.0
C      1  0.3446400000000  0.6266610000000  0.6554060000000 1.0
C      1  0.4631260000000  0.3780050000000  0.7097010000000 1.0
C      1  0.5941490000000  0.6233180000000  0.6911000000000 1.0
C      1  0.6881360000000  0.3756700000000  0.5997360000000 1.0
C      1  0.7097540000000  0.6237720000000  0.4709040000000 1.0
C      1  0.6531920000000  0.3750530000000  0.3512430000000 1.0
C      1  0.5392810000000  0.6231100000000  0.2884440000000 1.0
C      1  0.4060590000000  0.3758710000000  0.3096490000000 1.0
C      1  0.3280020000000  0.6119700000000  0.3733120000000 1.0
C      1  0.4382310000000  0.5370500000000  0.2530550000000 1.0
C      1  0.3003500000000  0.4601510000000  0.3318890000000 1.0
C      1  0.2413000000000  0.5341890000000  0.4837100000000 1.0
C      1  0.2826900000000  0.4615540000000  0.6358940000000 1.0
C      1  0.4075840000000  0.5344510000000  0.7335400000000 1.0
C      1  0.5616380000000  0.4630970000000  0.7498670000000 1.0
C      1  0.6966060000000  0.5370850000000  0.6656050000000 1.0
C      1  0.7550900000000  0.4623100000000  0.5183550000000 1.0
C      1  0.7156520000000  0.5378340000000  0.3648980000000 1.0
C      1  0.5928780000000  0.4627360000000  0.2657710000000 1.0
END
