TITL C-1525613-7943-7778 0.10342819160842 3375 -8896.39420780824 0 0 60 (C2) n - 1
REM
REM in /home/nfs/bkarasulu/CARBON/AIRSS/Generating-Clusters/ReaxFF-fromJPCA2015/Units_Real/Try2-Higher-symm/Only-C60
REM
REM
REM
REM
REM
REM ./C.cell (863b2abdce7293c0672fb3ba77bf323a)
REM AIRSS Version 0.9.1 bugfix July 2018 build 013d7b7c2542+ Fri, 06 Jul 2018 19:26:36 +0100
REM compiler GCC version 9.2.1 20190827 (Red Hat 9.2.1-1)
REM options -cpp -mtune=generic -march=x86-64 -g -O0 -fpre-include=/usr/include/finclude/math-vector-fortran.h
REM seed -830806670 -351525018 -859231498 -1447241314 1543240544 1652486085 -903324650 2018922556 1356128261 1356355467 -2142659303 -1459290489 -1474939649 720769941 -745900521 1590617429 1786880784 1375196676 628114231 -2033666307 -629268004 -1462002393 -1284985601 1878903375 57845989 1947961443 1019582116 901858956 1924026961 1985338991 -604717618 28729744 -1451998207
REM
CELL 1.54180   15.00000   15.00000   15.00000   90.00000   90.00000   90.00000
LATT -1
SFAC C  
C      1  0.2886750000000  0.3251860000000  0.4662980000000 1.0
C      1  0.4161370000000  0.3270810000000  0.6730590000000 1.0
C      1  0.6366630000000  0.3345250000000  0.6477990000000 1.0
C      1  0.6727480000000  0.3313430000000  0.4148590000000 1.0
C      1  0.4726490000000  0.3286340000000  0.2895160000000 1.0
C      1  0.2888960000000  0.6745920000000  0.5336150000000 1.0
C      1  0.4162740000000  0.6728090000000  0.3269180000000 1.0
C      1  0.6366680000000  0.6655610000000  0.3520540000000 1.0
C      1  0.6726980000000  0.6685630000000  0.5850920000000 1.0
C      1  0.4726950000000  0.6715040000000  0.7104400000000 1.0
C      1  0.2964740000000  0.5206310000000  0.5391670000000 1.0
C      1  0.4814880000000  0.5569220000000  0.6518070000000 1.0
C      1  0.6267550000000  0.5098340000000  0.5729750000000 1.0
C      1  0.5567590000000  0.5488220000000  0.3998060000000 1.0
C      1  0.4582470000000  0.5179040000000  0.3991750000000 1.0
C      1  0.2966210000000  0.4793940000000  0.4610040000000 1.0
C      1  0.4816160000000  0.4430760000000  0.3484440000000 1.0
C      1  0.6269240000000  0.4900550000000  0.4269820000000 1.0
C      1  0.5566580000000  0.4513350000000  0.6003020000000 1.0
C      1  0.4581800000000  0.4821240000000  0.6010090000000 1.0
C      1  0.4559870000000  0.7374740000000  0.5682780000000 1.0
C      1  0.5535470000000  0.7433250000000  0.5673760000000 1.0
C      1  0.5816860000000  0.7415090000000  0.4732560000000 1.0
C      1  0.5040110000000  0.7410710000000  0.4155680000000 1.0
C      1  0.4269090000000  0.7357400000000  0.4756420000000 1.0
C      1  0.4559920000000  0.2625010000000  0.4316700000000 1.0
C      1  0.5535460000000  0.2567170000000  0.4325890000000 1.0
C      1  0.5816470000000  0.2585020000000  0.5266690000000 1.0
C      1  0.5039960000000  0.2589920000000  0.5843620000000 1.0
C      1  0.4268720000000  0.2642890000000  0.5242880000000 1.0
C      1  0.5781470000000  0.3607810000000  0.7144430000000 1.0
C      1  0.7119860000000  0.3599170000000  0.4920210000000 1.0
C      1  0.5642090000000  0.3508290000000  0.2825960000000 1.0
C      1  0.3278900000000  0.3634500000000  0.3838890000000 1.0
C      1  0.3404920000000  0.3621880000000  0.6330100000000 1.0
C      1  0.5782020000000  0.6392670000000  0.2855230000000 1.0
C      1  0.7118930000000  0.6400180000000  0.5079310000000 1.0
C      1  0.5641570000000  0.6492940000000  0.7173460000000 1.0
C      1  0.3278920000000  0.6364740000000  0.6162320000000 1.0
C      1  0.3405390000000  0.6377020000000  0.3668970000000 1.0
C      1  0.6622650000000  0.3049090000000  0.5622190000000 1.0
C      1  0.6077300000000  0.2971740000000  0.3594790000000 1.0
C      1  0.4092210000000  0.3058310000000  0.3568650000000 1.0
C      1  0.3411950000000  0.3052100000000  0.5487270000000 1.0
C      1  0.5040610000000  0.2964900000000  0.6783820000000 1.0
C      1  0.6622720000000  0.6950570000000  0.4376930000000 1.0
C      1  0.6077470000000  0.7028780000000  0.6405040000000 1.0
C      1  0.4092050000000  0.6942160000000  0.6430840000000 1.0
C      1  0.3412760000000  0.6947250000000  0.4511840000000 1.0
C      1  0.5041250000000  0.7035240000000  0.3215530000000 1.0
C      1  0.5463720000000  0.5494800000000  0.7176350000000 1.0
C      1  0.7066700000000  0.5412920000000  0.5331460000000 1.0
C      1  0.5864220000000  0.5430480000000  0.3048190000000 1.0
C      1  0.3712480000000  0.5429100000000  0.3594600000000 1.0
C      1  0.3130780000000  0.5374630000000  0.6260820000000 1.0
C      1  0.5463670000000  0.4506640000000  0.2824840000000 1.0
C      1  0.7066580000000  0.4586560000000  0.4668510000000 1.0
C      1  0.5863790000000  0.4570840000000  0.6951870000000 1.0
C      1  0.3711160000000  0.4569860000000  0.6406090000000 1.0
C      1  0.3131660000000  0.4624650000000  0.3741320000000 1.0
END
