TITL C-1525613-7943-6110 0.545893263818908 3375 -8130.48479169926 0 0 60 (C5) n - 1
REM
REM in /home/nfs/bkarasulu/CARBON/AIRSS/Generating-Clusters/ReaxFF-fromJPCA2015/Units_Real/Try2-Higher-symm/Only-C60
REM
REM
REM
REM
REM
REM ./C.cell (863b2abdce7293c0672fb3ba77bf323a)
REM AIRSS Version 0.9.1 bugfix July 2018 build 013d7b7c2542+ Fri, 06 Jul 2018 19:26:36 +0100
REM compiler GCC version 9.2.1 20190827 (Red Hat 9.2.1-1)
REM options -cpp -mtune=generic -march=x86-64 -g -O0 -fpre-include=/usr/include/finclude/math-vector-fortran.h
REM seed -618626317 -797511743 2098890761 -2054337642 888404960 481793074 1930486733 -255591493 -354116994 -849509912 -1821778232 243648840 -2030485290 436029866 -2059652580 -1151366441 727784702 -1234543406 916828884 -2109358150 1765565574 -146627787 -813627024 2087341023 1576398780 -282003189 391700709 1764696003 -1283551213 1789100258 -1744375916 312796759 -212078519
REM
CELL 1.54180   15.00000   15.00000   15.00000   90.00000   90.00000   90.00000
LATT -1
SFAC C  
C      1  0.4984920000000  0.2711390000000  0.6139840000000 1.0
C      1  0.3913380000000  0.2711900000000  0.5338560000000 1.0
C      1  0.4342480000000  0.2711780000000  0.4070840000000 1.0
C      1  0.5680620000000  0.2712020000000  0.4086380000000 1.0
C      1  0.6077230000000  0.2712430000000  0.5365840000000 1.0
C      1  0.4984920000000  0.7288610000000  0.6139840000000 1.0
C      1  0.3913380000000  0.7288100000000  0.5338560000000 1.0
C      1  0.4342480000000  0.7288220000000  0.4070840000000 1.0
C      1  0.5680620000000  0.7287980000000  0.4086380000000 1.0
C      1  0.6077230000000  0.7287570000000  0.5365840000000 1.0
C      1  0.2939130000000  0.6385360000000  0.4265970000000 1.0
C      1  0.5061170000000  0.6385910000000  0.2812270000000 1.0
C      1  0.7099800000000  0.6385200000000  0.4382270000000 1.0
C      1  0.6235820000000  0.6385790000000  0.6806130000000 1.0
C      1  0.3664650000000  0.6385710000000  0.6732700000000 1.0
C      1  0.2939130000000  0.3614650000000  0.4265970000000 1.0
C      1  0.5061170000000  0.3614090000000  0.2812270000000 1.0
C      1  0.7099800000000  0.3614800000000  0.4382270000000 1.0
C      1  0.6235820000000  0.3614210000000  0.6806130000000 1.0
C      1  0.3664650000000  0.3614290000000  0.6732700000000 1.0
C      1  0.3333380000000  0.4508830000000  0.5529940000000 1.0
C      1  0.3980280000000  0.4510870000000  0.3579980000000 1.0
C      1  0.6037030000000  0.4509120000000  0.3591660000000 1.0
C      1  0.6659700000000  0.4509530000000  0.5551050000000 1.0
C      1  0.4988770000000  0.4508730000000  0.6748250000000 1.0
C      1  0.3333380000000  0.5491170000000  0.5529940000000 1.0
C      1  0.3980280000000  0.5489130000000  0.3579980000000 1.0
C      1  0.6037030000000  0.5490880000000  0.3591660000000 1.0
C      1  0.6659700000000  0.5490470000000  0.5551050000000 1.0
C      1  0.4988770000000  0.5491270000000  0.6748250000000 1.0
C      1  0.4560780000000  0.5801240000000  0.4333960000000 1.0
C      1  0.5497110000000  0.5801170000000  0.4376360000000 1.0
C      1  0.5746690000000  0.5801210000000  0.5279690000000 1.0
C      1  0.4964980000000  0.5801440000000  0.5795890000000 1.0
C      1  0.4232640000000  0.5801860000000  0.5211920000000 1.0
C      1  0.4560780000000  0.4198760000000  0.4333960000000 1.0
C      1  0.5497110000000  0.4198830000000  0.4376360000000 1.0
C      1  0.5746690000000  0.4198790000000  0.5279690000000 1.0
C      1  0.4964980000000  0.4198560000000  0.5795890000000 1.0
C      1  0.4232640000000  0.4198140000000  0.5211920000000 1.0
C      1  0.5892370000000  0.5587370000000  0.7115320000000 1.0
C      1  0.3264480000000  0.5587650000000  0.6501970000000 1.0
C      1  0.3035570000000  0.5587360000000  0.3813530000000 1.0
C      1  0.5520920000000  0.5587420000000  0.2763770000000 1.0
C      1  0.7287810000000  0.5587830000000  0.4804530000000 1.0
C      1  0.5892370000000  0.4412630000000  0.7115320000000 1.0
C      1  0.3264480000000  0.4412350000000  0.6501970000000 1.0
C      1  0.3035570000000  0.4412640000000  0.3813530000000 1.0
C      1  0.5520920000000  0.4412580000000  0.2763770000000 1.0
C      1  0.7287810000000  0.4412170000000  0.4804530000000 1.0
C      1  0.5017850000000  0.7101860000000  0.3605440000000 1.0
C      1  0.6331220000000  0.7102040000000  0.4586310000000 1.0
C      1  0.5805120000000  0.7102180000000  0.6138970000000 1.0
C      1  0.4164720000000  0.7101300000000  0.6118290000000 1.0
C      1  0.3679400000000  0.7102220000000  0.4552360000000 1.0
C      1  0.5017850000000  0.2898140000000  0.3605440000000 1.0
C      1  0.6331220000000  0.2897960000000  0.4586310000000 1.0
C      1  0.5805120000000  0.2897820000000  0.6138970000000 1.0
C      1  0.4164720000000  0.2898700000000  0.6118290000000 1.0
C      1  0.3679400000000  0.2897780000000  0.4552360000000 1.0
END
