TITL C-1525613-7943-276 -0.0381896550009705 3375 -8680.33210997797 0 0 60 (C2) n - 1
REM
REM in /home/nfs/bkarasulu/CARBON/AIRSS/Generating-Clusters/ReaxFF-fromJPCA2015/Units_Real/Try2-Higher-symm/Only-C60
REM
REM
REM
REM
REM
REM ./C.cell (863b2abdce7293c0672fb3ba77bf323a)
REM AIRSS Version 0.9.1 bugfix July 2018 build 013d7b7c2542+ Fri, 06 Jul 2018 19:26:36 +0100
REM compiler GCC version 9.2.1 20190827 (Red Hat 9.2.1-1)
REM options -cpp -mtune=generic -march=x86-64 -g -O0 -fpre-include=/usr/include/finclude/math-vector-fortran.h
REM seed -972067913 -651498978 335853763 686335904 638938194 2131083652 732419819 288802656 905471325 -1180108723 -1757892802 -1439763634 -1083528192 -141952149 1015510673 -261343531 -14144619 166976139 -985020429 1563520899 -1533176444 1265554296 430143391 1528210580 717407695 1963159885 1916719859 1362250541 -1710284855 553139372 -1057869441 1249751770 829631133
REM
CELL 1.54180   15.00000   15.00000   15.00000   90.00000   90.00000   90.00000
LATT -1
SFAC C  
C      1  0.5436420000000  0.7378000000000  0.6341630000000 1.0
C      1  0.6620850000000  0.6765820000000  0.7474780000000 1.0
C      1  0.7170510000000  0.5670910000000  0.6274770000000 1.0
C      1  0.7171770000000  0.3893420000000  0.6358220000000 1.0
C      1  0.6241110000000  0.2944660000000  0.6789090000000 1.0
C      1  0.4563670000000  0.2622380000000  0.6342500000000 1.0
C      1  0.3369150000000  0.3220660000000  0.7469580000000 1.0
C      1  0.2833050000000  0.4331200000000  0.6272960000000 1.0
C      1  0.2829830000000  0.6102400000000  0.6360790000000 1.0
C      1  0.3758560000000  0.7059420000000  0.6791030000000 1.0
C      1  0.5164300000000  0.3368230000000  0.2853460000000 1.0
C      1  0.4482470000000  0.3834670000000  0.2439370000000 1.0
C      1  0.3887260000000  0.4469160000000  0.2427050000000 1.0
C      1  0.3599630000000  0.5311060000000  0.2673940000000 1.0
C      1  0.4179610000000  0.6007540000000  0.2660580000000 1.0
C      1  0.4834510000000  0.6629730000000  0.2847870000000 1.0
C      1  0.5515350000000  0.6161100000000  0.2434460000000 1.0
C      1  0.6110080000000  0.5526360000000  0.2428850000000 1.0
C      1  0.6398710000000  0.4686800000000  0.2680260000000 1.0
C      1  0.5818800000000  0.3990780000000  0.2668670000000 1.0
C      1  0.6456500000000  0.3189600000000  0.4905200000000 1.0
C      1  0.4925380000000  0.2622830000000  0.4577390000000 1.0
C      1  0.3841510000000  0.3596500000000  0.5033440000000 1.0
C      1  0.2752720000000  0.4137720000000  0.4237170000000 1.0
C      1  0.2723700000000  0.5606550000000  0.4707770000000 1.0
C      1  0.3554860000000  0.6794950000000  0.4910410000000 1.0
C      1  0.5075290000000  0.7382090000000  0.4575010000000 1.0
C      1  0.6157200000000  0.6412870000000  0.5032240000000 1.0
C      1  0.7245090000000  0.5864640000000  0.4239710000000 1.0
C      1  0.7277940000000  0.4395890000000  0.4713610000000 1.0
C      1  0.6966510000000  0.6104990000000  0.7069770000000 1.0
C      1  0.7086460000000  0.4821150000000  0.6591560000000 1.0
C      1  0.6325250000000  0.3732870000000  0.6777650000000 1.0
C      1  0.5384810000000  0.2765250000000  0.6780110000000 1.0
C      1  0.3983020000000  0.2858740000000  0.7033440000000 1.0
C      1  0.3034480000000  0.3889080000000  0.7064230000000 1.0
C      1  0.2919620000000  0.5178970000000  0.6597710000000 1.0
C      1  0.3673230000000  0.6266150000000  0.6780730000000 1.0
C      1  0.4610530000000  0.7244540000000  0.6774620000000 1.0
C      1  0.6013420000000  0.7129370000000  0.7032570000000 1.0
C      1  0.5822070000000  0.6072720000000  0.4218660000000 1.0
C      1  0.6460890000000  0.5476340000000  0.3742530000000 1.0
C      1  0.6563710000000  0.4461720000000  0.3996500000000 1.0
C      1  0.5960890000000  0.3769190000000  0.4248070000000 1.0
C      1  0.5036960000000  0.3437160000000  0.3903770000000 1.0
C      1  0.4176790000000  0.3935860000000  0.4220800000000 1.0
C      1  0.3536950000000  0.4527710000000  0.3740010000000 1.0
C      1  0.3434840000000  0.5541540000000  0.3989600000000 1.0
C      1  0.4044410000000  0.6226900000000  0.4243910000000 1.0
C      1  0.4963100000000  0.6567940000000  0.3897970000000 1.0
C      1  0.5640310000000  0.7185700000000  0.5344890000000 1.0
C      1  0.7126250000000  0.6118990000000  0.5237450000000 1.0
C      1  0.7634020000000  0.5290270000000  0.4879960000000 1.0
C      1  0.7169220000000  0.3699630000000  0.5352210000000 1.0
C      1  0.5693820000000  0.2678410000000  0.5074410000000 1.0
C      1  0.4365120000000  0.2828330000000  0.5347980000000 1.0
C      1  0.2869160000000  0.3886960000000  0.5234030000000 1.0
C      1  0.2362660000000  0.4715180000000  0.4872700000000 1.0
C      1  0.2834890000000  0.6292690000000  0.5355810000000 1.0
C      1  0.4310830000000  0.7317750000000  0.5074550000000 1.0
END
