TITL C-1525613-7943-7598 1.29659167135274 3375 -7894.49189655694 0 0 60 (C5v) n - 1
REM
REM in /home/nfs/bkarasulu/CARBON/AIRSS/Generating-Clusters/ReaxFF-fromJPCA2015/Units_Real/Try2-Higher-symm/Only-C60
REM
REM
REM
REM
REM
REM ./C.cell (863b2abdce7293c0672fb3ba77bf323a)
REM AIRSS Version 0.9.1 bugfix July 2018 build 013d7b7c2542+ Fri, 06 Jul 2018 19:26:36 +0100
REM compiler GCC version 9.2.1 20190827 (Red Hat 9.2.1-1)
REM options -cpp -mtune=generic -march=x86-64 -g -O0 -fpre-include=/usr/include/finclude/math-vector-fortran.h
REM seed 1404136193 51533816 -770505505 1742320442 1751895179 710198565 559362808 -2072533035 -170592030 -1774633187 867687326 -2033167559 1606302094 -573948157 916674763 -2134836783 -2133084625 -1259471789 1913248625 1374414981 -2081733684 1132203715 -1123419497 298560329 -670251678 1613844058 -2048656933 -1486830390 1704996637 1162712455 365816920 -1759840102 -1436347611
REM
CELL 1.54180   15.00000   15.00000   15.00000   90.00000   90.00000   90.00000
LATT -1
SFAC C  
C      1  0.7160900000000  0.6283800000000  0.4070560000000 1.0
C      1  0.7164520000000  0.4518280000000  0.3491040000000 1.0
C      1  0.7163350000000  0.3416080000000  0.4991950000000 1.0
C      1  0.7163830000000  0.4503570000000  0.6504530000000 1.0
C      1  0.7163560000000  0.6277790000000  0.5935870000000 1.0
C      1  0.7161880000000  0.3722690000000  0.4064360000000 1.0
C      1  0.7165470000000  0.5496050000000  0.3495680000000 1.0
C      1  0.7162820000000  0.6585270000000  0.5006360000000 1.0
C      1  0.7162890000000  0.5484070000000  0.6509150000000 1.0
C      1  0.7161450000000  0.3715740000000  0.5927680000000 1.0
C      1  0.6186860000000  0.6559050000000  0.4993880000000 1.0
C      1  0.6187120000000  0.5473490000000  0.3519110000000 1.0
C      1  0.6183400000000  0.3735660000000  0.4088630000000 1.0
C      1  0.6186480000000  0.3741320000000  0.5921720000000 1.0
C      1  0.6186090000000  0.5487120000000  0.6481820000000 1.0
C      1  0.6187360000000  0.3441070000000  0.5005590000000 1.0
C      1  0.6185300000000  0.4513880000000  0.3520850000000 1.0
C      1  0.6186490000000  0.6255230000000  0.4076840000000 1.0
C      1  0.6185000000000  0.6265720000000  0.5913100000000 1.0
C      1  0.6185770000000  0.4524010000000  0.6485110000000 1.0
C      1  0.5239900000000  0.8079250000000  0.4525040000000 1.0
C      1  0.5241500000000  0.5499570000000  0.1923190000000 1.0
C      1  0.5241120000000  0.2226910000000  0.3575010000000 1.0
C      1  0.5238530000000  0.2789670000000  0.7193580000000 1.0
C      1  0.5237890000000  0.6403420000000  0.7780240000000 1.0
C      1  0.5239950000000  0.1920710000000  0.4524970000000 1.0
C      1  0.5241610000000  0.4500580000000  0.1923200000000 1.0
C      1  0.5240930000000  0.7772890000000  0.3575190000000 1.0
C      1  0.5238690000000  0.7210050000000  0.7193930000000 1.0
C      1  0.5237590000000  0.3596000000000  0.7780030000000 1.0
C      1  0.3042540000000  0.3726340000000  0.5939740000000 1.0
C      1  0.3040510000000  0.5498530000000  0.6501220000000 1.0
C      1  0.3039480000000  0.6582270000000  0.4991070000000 1.0
C      1  0.3032630000000  0.5479790000000  0.3497990000000 1.0
C      1  0.3034030000000  0.3717580000000  0.4080960000000 1.0
C      1  0.3042020000000  0.6273010000000  0.5938680000000 1.0
C      1  0.3040000000000  0.4501780000000  0.6501340000000 1.0
C      1  0.3039530000000  0.3417920000000  0.4991240000000 1.0
C      1  0.3032880000000  0.4520240000000  0.3497930000000 1.0
C      1  0.3034580000000  0.6282350000000  0.4080700000000 1.0
C      1  0.4618490000000  0.3010200000000  0.3854950000000 1.0
C      1  0.4610800000000  0.3295170000000  0.6535390000000 1.0
C      1  0.4610420000000  0.5933950000000  0.7096030000000 1.0
C      1  0.4610060000000  0.7285000000000  0.4760700000000 1.0
C      1  0.4619110000000  0.5476100000000  0.2755190000000 1.0
C      1  0.4618100000000  0.6989640000000  0.3855040000000 1.0
C      1  0.4611640000000  0.6704820000000  0.6535030000000 1.0
C      1  0.4610090000000  0.4066050000000  0.7095880000000 1.0
C      1  0.4610650000000  0.2715360000000  0.4761030000000 1.0
C      1  0.4619480000000  0.4524010000000  0.2755420000000 1.0
C      1  0.3756700000000  0.5890240000000  0.2948350000000 1.0
C      1  0.3755600000000  0.3322400000000  0.3520240000000 1.0
C      1  0.3762020000000  0.3077750000000  0.6121810000000 1.0
C      1  0.3762070000000  0.5471740000000  0.7174090000000 1.0
C      1  0.3760940000000  0.7216460000000  0.5222640000000 1.0
C      1  0.3756430000000  0.4110030000000  0.2948260000000 1.0
C      1  0.3755960000000  0.6677470000000  0.3520290000000 1.0
C      1  0.3761910000000  0.6922910000000  0.6122810000000 1.0
C      1  0.3761430000000  0.4527920000000  0.7174370000000 1.0
C      1  0.3761640000000  0.2784010000000  0.5223400000000 1.0
END
