TITL C-1525613-7943-4404 0.379440859456834 3375 -8752.92751866836 0 0 60 (C1) n - 1
REM
REM in /home/nfs/bkarasulu/CARBON/AIRSS/Generating-Clusters/ReaxFF-fromJPCA2015/Units_Real/Try2-Higher-symm/Only-C60
REM
REM
REM
REM
REM
REM ./C.cell (863b2abdce7293c0672fb3ba77bf323a)
REM AIRSS Version 0.9.1 bugfix July 2018 build 013d7b7c2542+ Fri, 06 Jul 2018 19:26:36 +0100
REM compiler GCC version 9.2.1 20190827 (Red Hat 9.2.1-1)
REM options -cpp -mtune=generic -march=x86-64 -g -O0 -fpre-include=/usr/include/finclude/math-vector-fortran.h
REM seed 1230565160 415386610 -1238881245 -2065078529 1781178093 23550304 -1496590456 1871939596 -2065259049 540506405 1624879937 1445792785 -944075492 778239561 690234136 -689134474 -1220164095 -63706202 -1602536436 383082673 1937735664 -1936920090 -1972693051 -565570330 -2003210954 -225718337 1422370472 644538115 -1899483704 -1856311976 1456439968 1558005146 -1750264500
REM
CELL 1.54180   15.00000   15.00000   15.00000   90.00000   90.00000   90.00000
LATT -1
SFAC C  
C      1  0.4999760000000  0.5911490000000  0.3230000000000 1.0
C      1  0.3321130000000  0.5858120000000  0.4483940000000 1.0
C      1  0.4025390000000  0.5841180000000  0.6410020000000 1.0
C      1  0.6023070000000  0.5850320000000  0.6390970000000 1.0
C      1  0.6635980000000  0.5854210000000  0.4486320000000 1.0
C      1  0.4993670000000  0.4151170000000  0.3252940000000 1.0
C      1  0.3332750000000  0.4157520000000  0.4468820000000 1.0
C      1  0.3991190000000  0.4135780000000  0.6429900000000 1.0
C      1  0.6044120000000  0.4133600000000  0.6399990000000 1.0
C      1  0.6632360000000  0.4147350000000  0.4487950000000 1.0
C      1  0.6012310000000  0.2093060000000  0.5445610000000 1.0
C      1  0.5742010000000  0.2108930000000  0.4171480000000 1.0
C      1  0.4442740000000  0.2112970000000  0.4044840000000 1.0
C      1  0.3909790000000  0.2109000000000  0.5231660000000 1.0
C      1  0.4882590000000  0.2105210000000  0.6100850000000 1.0
C      1  0.5993280000000  0.7904480000000  0.5427450000000 1.0
C      1  0.5729050000000  0.7867790000000  0.4142050000000 1.0
C      1  0.4443030000000  0.7848380000000  0.4014150000000 1.0
C      1  0.3932780000000  0.7881460000000  0.5225460000000 1.0
C      1  0.4883700000000  0.7907530000000  0.6108130000000 1.0
C      1  0.5671210000000  0.7386660000000  0.6144770000000 1.0
C      1  0.6301570000000  0.7376970000000  0.4707170000000 1.0
C      1  0.5135140000000  0.7310520000000  0.3648560000000 1.0
C      1  0.3777030000000  0.7350290000000  0.4463120000000 1.0
C      1  0.4117320000000  0.7366610000000  0.5997000000000 1.0
C      1  0.5674620000000  0.2616650000000  0.6152020000000 1.0
C      1  0.6308700000000  0.2624870000000  0.4721070000000 1.0
C      1  0.5135010000000  0.2636550000000  0.3673290000000 1.0
C      1  0.3776490000000  0.2638520000000  0.4462330000000 1.0
C      1  0.4107540000000  0.2634140000000  0.5993720000000 1.0
C      1  0.5850760000000  0.4521730000000  0.2968390000000 1.0
C      1  0.3315860000000  0.4524060000000  0.3560570000000 1.0
C      1  0.3124120000000  0.4503240000000  0.6172210000000 1.0
C      1  0.5532800000000  0.4515740000000  0.7133120000000 1.0
C      1  0.7169360000000  0.4538720000000  0.5162890000000 1.0
C      1  0.5857440000000  0.5508840000000  0.2974280000000 1.0
C      1  0.3314930000000  0.5510040000000  0.3568630000000 1.0
C      1  0.3156200000000  0.5484760000000  0.6165720000000 1.0
C      1  0.5511510000000  0.5474320000000  0.7081620000000 1.0
C      1  0.7143200000000  0.5471890000000  0.5164990000000 1.0
C      1  0.5038570000000  0.3611930000000  0.4073400000000 1.0
C      1  0.4125560000000  0.3615810000000  0.4679770000000 1.0
C      1  0.4429440000000  0.3606530000000  0.5731610000000 1.0
C      1  0.5533190000000  0.3596630000000  0.5760360000000 1.0
C      1  0.5896560000000  0.3595850000000  0.4755460000000 1.0
C      1  0.5038870000000  0.6358130000000  0.4107810000000 1.0
C      1  0.4122440000000  0.6377680000000  0.4715170000000 1.0
C      1  0.4442810000000  0.6394370000000  0.5749190000000 1.0
C      1  0.5520400000000  0.6403460000000  0.5770630000000 1.0
C      1  0.5906720000000  0.6395420000000  0.4754230000000 1.0
C      1  0.6866670000000  0.5494950000000  0.6084600000000 1.0
C      1  0.6621150000000  0.5492490000000  0.3602140000000 1.0
C      1  0.4128810000000  0.5515630000000  0.2990450000000 1.0
C      1  0.2808330000000  0.5490760000000  0.5233920000000 1.0
C      1  0.4572190000000  0.5480880000000  0.7091450000000 1.0
C      1  0.6889280000000  0.4519140000000  0.6093580000000 1.0
C      1  0.6620300000000  0.4517370000000  0.3594210000000 1.0
C      1  0.4129920000000  0.4531060000000  0.2982470000000 1.0
C      1  0.2812620000000  0.4506320000000  0.5224270000000 1.0
C      1  0.4544670000000  0.4520860000000  0.7137300000000 1.0
END
