TITL C-1525613-7943-7576 0.0181832678831879 3375 -8703.07100733674 0 0 60 (Cs) n - 1
REM
REM in /home/nfs/bkarasulu/CARBON/AIRSS/Generating-Clusters/ReaxFF-fromJPCA2015/Units_Real/Try2-Higher-symm/Only-C60
REM
REM
REM
REM
REM
REM ./C.cell (863b2abdce7293c0672fb3ba77bf323a)
REM AIRSS Version 0.9.1 bugfix July 2018 build 013d7b7c2542+ Fri, 06 Jul 2018 19:26:36 +0100
REM compiler GCC version 9.2.1 20190827 (Red Hat 9.2.1-1)
REM options -cpp -mtune=generic -march=x86-64 -g -O0 -fpre-include=/usr/include/finclude/math-vector-fortran.h
REM seed -633506264 -1755412339 330066724 759415229 687016703 -158501069 -1828708292 -1788140619 265965188 581429316 2006922194 1334631183 -277851768 745502594 840729531 -36372019 -1984706365 -912005665 2117040706 -227999241 -1854885339 1924872294 -1337509016 826282776 1700600435 9674279 172940589 1627667052 -692940972 823419970 -1585857427 -1651599979 662764697
REM
CELL 1.54180   15.00000   15.00000   15.00000   90.00000   90.00000   90.00000
LATT -1
SFAC C  
C      1  0.3878200000000  0.4294230000000  0.6601880000000 1.0
C      1  0.3859990000000  0.6313830000000  0.6175680000000 1.0
C      1  0.3856510000000  0.6530080000000  0.4129420000000 1.0
C      1  0.3870870000000  0.4618320000000  0.3278020000000 1.0
C      1  0.3867370000000  0.3263660000000  0.4816220000000 1.0
C      1  0.6117300000000  0.4293200000000  0.6602590000000 1.0
C      1  0.6143300000000  0.6311630000000  0.6174460000000 1.0
C      1  0.6146190000000  0.6532700000000  0.4125700000000 1.0
C      1  0.6128750000000  0.4633480000000  0.3275920000000 1.0
C      1  0.6131670000000  0.3268480000000  0.4812230000000 1.0
C      1  0.6485500000000  0.3513560000000  0.3995170000000 1.0
C      1  0.6476070000000  0.3605380000000  0.6102940000000 1.0
C      1  0.6481540000000  0.5621590000000  0.6685420000000 1.0
C      1  0.6510890000000  0.6789500000000  0.4934230000000 1.0
C      1  0.6479380000000  0.5485650000000  0.3287720000000 1.0
C      1  0.3517040000000  0.3494650000000  0.3993470000000 1.0
C      1  0.3518780000000  0.3605060000000  0.6104470000000 1.0
C      1  0.3518720000000  0.5623150000000  0.6684440000000 1.0
C      1  0.3492850000000  0.6795930000000  0.4937140000000 1.0
C      1  0.3515780000000  0.5467300000000  0.3303740000000 1.0
C      1  0.2185890000000  0.6222230000000  0.5583550000000 1.0
C      1  0.2188950000000  0.5897210000000  0.3972740000000 1.0
C      1  0.2190370000000  0.4300690000000  0.3758120000000 1.0
C      1  0.2198710000000  0.3689930000000  0.5268290000000 1.0
C      1  0.2186520000000  0.4845070000000  0.6413350000000 1.0
C      1  0.7814250000000  0.6205860000000  0.5576720000000 1.0
C      1  0.7816120000000  0.5914950000000  0.3959880000000 1.0
C      1  0.7809780000000  0.4323280000000  0.3769370000000 1.0
C      1  0.7800930000000  0.3692010000000  0.5279240000000 1.0
C      1  0.7811140000000  0.4834890000000  0.6425710000000 1.0
C      1  0.6913790000000  0.4006380000000  0.3369700000000 1.0
C      1  0.6918530000000  0.3183200000000  0.5435070000000 1.0
C      1  0.6898260000000  0.4850480000000  0.6909170000000 1.0
C      1  0.6942480000000  0.6734980000000  0.5726830000000 1.0
C      1  0.6920450000000  0.6226650000000  0.3556540000000 1.0
C      1  0.3090030000000  0.3984480000000  0.3364640000000 1.0
C      1  0.3078600000000  0.3181480000000  0.5436790000000 1.0
C      1  0.3096160000000  0.4853140000000  0.6902750000000 1.0
C      1  0.3062890000000  0.6744600000000  0.5730730000000 1.0
C      1  0.3082810000000  0.6213260000000  0.3566730000000 1.0
C      1  0.4490390000000  0.4762050000000  0.4127380000000 1.0
C      1  0.4486090000000  0.4119400000000  0.4941510000000 1.0
C      1  0.4487550000000  0.4695920000000  0.5829710000000 1.0
C      1  0.4488090000000  0.5711220000000  0.5572810000000 1.0
C      1  0.4487300000000  0.5776620000000  0.4506570000000 1.0
C      1  0.5508170000000  0.4767300000000  0.4126920000000 1.0
C      1  0.5512170000000  0.4121000000000  0.4941440000000 1.0
C      1  0.5509740000000  0.4694980000000  0.5829270000000 1.0
C      1  0.5513010000000  0.5710620000000  0.5571430000000 1.0
C      1  0.5510780000000  0.5777240000000  0.4506460000000 1.0
C      1  0.8035570000000  0.4066920000000  0.4549940000000 1.0
C      1  0.8063740000000  0.4240740000000  0.5877760000000 1.0
C      1  0.8072920000000  0.5548360000000  0.6054170000000 1.0
C      1  0.8027430000000  0.5972070000000  0.4784630000000 1.0
C      1  0.8069840000000  0.5129910000000  0.3754470000000 1.0
C      1  0.1947540000000  0.4015710000000  0.4520860000000 1.0
C      1  0.1942240000000  0.4273910000000  0.5835290000000 1.0
C      1  0.1927280000000  0.5574790000000  0.6072620000000 1.0
C      1  0.1980210000000  0.5966690000000  0.4795980000000 1.0
C      1  0.1936580000000  0.5108410000000  0.3773990000000 1.0
END
