TITL C-1525613-7943-5867 0.00230075792834755 3375 -9316.00200702173 0 0 60 (D5h) n - 1
REM
REM in /home/nfs/bkarasulu/CARBON/AIRSS/Generating-Clusters/ReaxFF-fromJPCA2015/Units_Real/Try2-Higher-symm/Only-C60
REM
REM
REM
REM
REM
REM ./C.cell (863b2abdce7293c0672fb3ba77bf323a)
REM AIRSS Version 0.9.1 bugfix July 2018 build 013d7b7c2542+ Fri, 06 Jul 2018 19:26:36 +0100
REM compiler GCC version 9.2.1 20190827 (Red Hat 9.2.1-1)
REM options -cpp -mtune=generic -march=x86-64 -g -O0 -fpre-include=/usr/include/finclude/math-vector-fortran.h
REM seed 1171840070 -1860645938 248693371 1405235712 -2051754576 -336754994 1474585619 -86867948 -268482320 -1755311694 -1484624876 170772651 1891291500 2048942835 -146188404 1454153896 -161831023 115526751 1863423636 1881478764 916985206 -1787632726 -553036242 -391441113 1052430022 676235522 251528451 -318232529 -1742769571 1251782660 -1335129916 -889110971 488329956
REM
CELL 1.54180   15.00000   15.00000   15.00000   90.00000   90.00000   90.00000
LATT -1
SFAC C  
C      1  0.4504010000000  0.3791380000000  0.7507220000000 1.0
C      1  0.4504090000000  0.7010980000000  0.6924250000000 1.0
C      1  0.4504300000000  0.7451550000000  0.3681940000000 1.0
C      1  0.4504410000000  0.4504180000000  0.2261120000000 1.0
C      1  0.4504200000000  0.2241880000000  0.4625280000000 1.0
C      1  0.4504010000000  0.6208620000000  0.7507220000000 1.0
C      1  0.4504080000000  0.2989020000000  0.6924250000000 1.0
C      1  0.4504300000000  0.2548450000000  0.3681940000000 1.0
C      1  0.4504410000000  0.5495820000000  0.2261120000000 1.0
C      1  0.4504200000000  0.7758120000000  0.4625280000000 1.0
C      1  0.6139420000000  0.4033510000000  0.2828440000000 1.0
C      1  0.6139370000000  0.2636070000000  0.5248270000000 1.0
C      1  0.6139210000000  0.4505420000000  0.7325090000000 1.0
C      1  0.6139310000000  0.7058370000000  0.6188840000000 1.0
C      1  0.6139440000000  0.6766650000000  0.3409850000000 1.0
C      1  0.6139420000000  0.5966490000000  0.2828440000000 1.0
C      1  0.6139370000000  0.7363930000000  0.5248270000000 1.0
C      1  0.6139210000000  0.5494580000000  0.7325090000000 1.0
C      1  0.6139310000000  0.2941630000000  0.6188840000000 1.0
C      1  0.6139440000000  0.3233350000000  0.3409850000000 1.0
C      1  0.5496930000000  0.7452220000000  0.3681780000000 1.0
C      1  0.5496990000000  0.4504030000000  0.2260460000000 1.0
C      1  0.5496880000000  0.2241220000000  0.4625200000000 1.0
C      1  0.5496650000000  0.3791070000000  0.7507890000000 1.0
C      1  0.5496750000000  0.7011510000000  0.6924860000000 1.0
C      1  0.5496930000000  0.2547780000000  0.3681780000000 1.0
C      1  0.5496990000000  0.5495970000000  0.2260460000000 1.0
C      1  0.5496880000000  0.7758780000000  0.4625200000000 1.0
C      1  0.5496650000000  0.6208930000000  0.7507890000000 1.0
C      1  0.5496750000000  0.2988480000000  0.6924860000000 1.0
C      1  0.3861850000000  0.7056190000000  0.6187800000000 1.0
C      1  0.3862060000000  0.6765250000000  0.3411370000000 1.0
C      1  0.3862060000000  0.4034760000000  0.2830210000000 1.0
C      1  0.3861850000000  0.2638140000000  0.5247530000000 1.0
C      1  0.3861730000000  0.4505610000000  0.7322630000000 1.0
C      1  0.3861850000000  0.2943810000000  0.6187800000000 1.0
C      1  0.3862060000000  0.3234750000000  0.3411370000000 1.0
C      1  0.3862060000000  0.5965240000000  0.2830210000000 1.0
C      1  0.3861850000000  0.7361860000000  0.5247530000000 1.0
C      1  0.3861730000000  0.5494390000000  0.7322630000000 1.0
C      1  0.3293300000000  0.6287830000000  0.4072540000000 1.0
C      1  0.3293430000000  0.4516020000000  0.3488450000000 1.0
C      1  0.3293170000000  0.3412990000000  0.4993170000000 1.0
C      1  0.3293050000000  0.4503210000000  0.6507090000000 1.0
C      1  0.3293260000000  0.6279930000000  0.5938090000000 1.0
C      1  0.3293300000000  0.3712170000000  0.4072540000000 1.0
C      1  0.3293430000000  0.5483980000000  0.3488450000000 1.0
C      1  0.3293170000000  0.6587010000000  0.4993170000000 1.0
C      1  0.3293050000000  0.5496790000000  0.6507090000000 1.0
C      1  0.3293260000000  0.3720070000000  0.5938090000000 1.0
C      1  0.6704350000000  0.5496790000000  0.6507270000000 1.0
C      1  0.6704410000000  0.6586860000000  0.4993510000000 1.0
C      1  0.6704600000000  0.5483980000000  0.3488870000000 1.0
C      1  0.6704540000000  0.3712250000000  0.4072780000000 1.0
C      1  0.6704380000000  0.3720120000000  0.5938220000000 1.0
C      1  0.6704350000000  0.4503210000000  0.6507270000000 1.0
C      1  0.6704410000000  0.3413140000000  0.4993510000000 1.0
C      1  0.6704600000000  0.4516020000000  0.3488870000000 1.0
C      1  0.6704540000000  0.6287750000000  0.4072780000000 1.0
C      1  0.6704380000000  0.6279880000000  0.5938220000000 1.0
END
