TITL C-1525613-7943-3007 -0.141474699572088 3375 -9424.92727289743 0 0 60 (C1) n - 1
REM
REM in /home/nfs/bkarasulu/CARBON/AIRSS/Generating-Clusters/ReaxFF-fromJPCA2015/Units_Real/Try2-Higher-symm/Only-C60
REM
REM
REM
REM
REM
REM ./C.cell (863b2abdce7293c0672fb3ba77bf323a)
REM AIRSS Version 0.9.1 bugfix July 2018 build 013d7b7c2542+ Fri, 06 Jul 2018 19:26:36 +0100
REM compiler GCC version 9.2.1 20190827 (Red Hat 9.2.1-1)
REM options -cpp -mtune=generic -march=x86-64 -g -O0 -fpre-include=/usr/include/finclude/math-vector-fortran.h
REM seed 573382220 1568846669 -1668673866 -1816146140 -730403803 -1685110201 -378939838 -1224185687 -364427785 -840716682 1183148921 -487484258 225722574 263661771 -2004593588 -507686664 2113440513 -379699315 793737615 -854132838 1663819355 -1269716931 713924517 233974541 966114237 1433487174 659041136 -59747486 1099215315 253285274 -526398697 -202765081 644436159
REM
CELL 1.54180   15.00000   15.00000   15.00000   90.00000   90.00000   90.00000
LATT -1
SFAC C  
C      1  0.4609910000000  0.2492780000000  0.5247960000000 1.0
C      1  0.2974260000000  0.3291240000000  0.5233850000000 1.0
C      1  0.2406420000000  0.4736600000000  0.5329280000000 1.0
C      1  0.2971920000000  0.6346540000000  0.5203320000000 1.0
C      1  0.3843790000000  0.7625760000000  0.5118170000000 1.0
C      1  0.5391560000000  0.7521240000000  0.5267190000000 1.0
C      1  0.7004190000000  0.6707340000000  0.5240060000000 1.0
C      1  0.7564680000000  0.5272670000000  0.5314790000000 1.0
C      1  0.7031380000000  0.3669710000000  0.5210150000000 1.0
C      1  0.6149010000000  0.2393150000000  0.5124300000000 1.0
C      1  0.5508650000000  0.2611620000000  0.3731430000000 1.0
C      1  0.3790160000000  0.3261900000000  0.4090060000000 1.0
C      1  0.2690940000000  0.4332550000000  0.3829930000000 1.0
C      1  0.2727590000000  0.5272830000000  0.3938850000000 1.0
C      1  0.3660600000000  0.6960040000000  0.3760660000000 1.0
C      1  0.4519380000000  0.7378170000000  0.3750640000000 1.0
C      1  0.6033580000000  0.6836890000000  0.4048270000000 1.0
C      1  0.7298400000000  0.5668500000000  0.3811880000000 1.0
C      1  0.7288290000000  0.4720130000000  0.3937620000000 1.0
C      1  0.6374190000000  0.3034970000000  0.3768470000000 1.0
C      1  0.3714670000000  0.2749060000000  0.4843910000000 1.0
C      1  0.2545780000000  0.3999860000000  0.4736950000000 1.0
C      1  0.2590260000000  0.5540570000000  0.4843330000000 1.0
C      1  0.3257170000000  0.7050240000000  0.4608200000000 1.0
C      1  0.4684390000000  0.7749360000000  0.4648750000000 1.0
C      1  0.6270300000000  0.7247110000000  0.4831880000000 1.0
C      1  0.7410840000000  0.6012790000000  0.4727120000000 1.0
C      1  0.7400590000000  0.4470990000000  0.4839890000000 1.0
C      1  0.6751590000000  0.2959140000000  0.4625340000000 1.0
C      1  0.5318320000000  0.2262020000000  0.4635440000000 1.0
C      1  0.4884220000000  0.6579910000000  0.3300850000000 1.0
C      1  0.5868920000000  0.6357150000000  0.3301130000000 1.0
C      1  0.6507250000000  0.5580170000000  0.3238670000000 1.0
C      1  0.6497890000000  0.4627010000000  0.3435590000000 1.0
C      1  0.6042110000000  0.3811960000000  0.3351890000000 1.0
C      1  0.5168050000000  0.3394390000000  0.3253240000000 1.0
C      1  0.4195430000000  0.3630940000000  0.3367280000000 1.0
C      1  0.3525350000000  0.4379300000000  0.3298920000000 1.0
C      1  0.3535170000000  0.5354180000000  0.3466600000000 1.0
C      1  0.3984050000000  0.6177930000000  0.3343060000000 1.0
C      1  0.2598960000000  0.4477240000000  0.6197670000000 1.0
C      1  0.3424130000000  0.6452180000000  0.6062480000000 1.0
C      1  0.4018100000000  0.7221740000000  0.5981280000000 1.0
C      1  0.4991420000000  0.7170900000000  0.6078610000000 1.0
C      1  0.7027390000000  0.6413750000000  0.6167360000000 1.0
C      1  0.7392920000000  0.5517390000000  0.6185590000000 1.0
C      1  0.6583950000000  0.3558780000000  0.6071440000000 1.0
C      1  0.5975500000000  0.2800320000000  0.5983420000000 1.0
C      1  0.4999920000000  0.2834120000000  0.6069780000000 1.0
C      1  0.2961110000000  0.3582660000000  0.6174940000000 1.0
C      1  0.5348690000000  0.6453120000000  0.6707000000000 1.0
C      1  0.6279710000000  0.6086670000000  0.6726360000000 1.0
C      1  0.6673830000000  0.5202300000000  0.6735430000000 1.0
C      1  0.6327390000000  0.4259690000000  0.6739180000000 1.0
C      1  0.5452290000000  0.3970930000000  0.6809480000000 1.0
C      1  0.4651910000000  0.3521050000000  0.6731590000000 1.0
C      1  0.3726310000000  0.3903240000000  0.6706080000000 1.0
C      1  0.3323910000000  0.4783160000000  0.6742470000000 1.0
C      1  0.3694010000000  0.5720790000000  0.6696310000000 1.0
C      1  0.4557320000000  0.6001260000000  0.6778610000000 1.0
END
