TITL C-1525613-7943-42 0.0455299201459278 3375 -8841.03577615382 0 0 60 (Cs) n - 1
REM
REM in /home/nfs/bkarasulu/CARBON/AIRSS/Generating-Clusters/ReaxFF-fromJPCA2015/Units_Real/Try2-Higher-symm/Only-C60
REM
REM
REM
REM
REM
REM ./C.cell (863b2abdce7293c0672fb3ba77bf323a)
REM AIRSS Version 0.9.1 bugfix July 2018 build 013d7b7c2542+ Fri, 06 Jul 2018 19:26:36 +0100
REM compiler GCC version 9.2.1 20190827 (Red Hat 9.2.1-1)
REM options -cpp -mtune=generic -march=x86-64 -g -O0 -fpre-include=/usr/include/finclude/math-vector-fortran.h
REM seed -718235361 1722329926 -1085984013 -1070323391 469382274 -512422102 -705751081 935470131 -727776763 -1229372065 -2022081351 1363410396 -1311169975 -689891001 -882119431 -2099748099 1640186 1521764558 -1636689073 -2066608315 -770142173 1044344941 651458828 514582937 -1457590839 1820789043 1049209365 909991962 -1975711929 -1414433463 1984881770 -1887534092 1143035721
REM
CELL 1.54180   15.00000   15.00000   15.00000   90.00000   90.00000   90.00000
LATT -1
SFAC C  
C      1  0.2805150000000  0.5536850000000  0.4355630000000 1.0
C      1  0.2780640000000  0.4570720000000  0.4299020000000 1.0
C      1  0.2775640000000  0.4215100000000  0.5204070000000 1.0
C      1  0.2771640000000  0.4957550000000  0.5833680000000 1.0
C      1  0.2780350000000  0.5775410000000  0.5296850000000 1.0
C      1  0.7193960000000  0.5536530000000  0.4355460000000 1.0
C      1  0.7215930000000  0.4570750000000  0.4299050000000 1.0
C      1  0.7223050000000  0.4215400000000  0.5202710000000 1.0
C      1  0.7228170000000  0.4957890000000  0.5833250000000 1.0
C      1  0.7219710000000  0.5775520000000  0.5297050000000 1.0
C      1  0.3228940000000  0.4147590000000  0.3501900000000 1.0
C      1  0.3247820000000  0.3372780000000  0.5448320000000 1.0
C      1  0.3231680000000  0.4824290000000  0.6704250000000 1.0
C      1  0.3244960000000  0.6586090000000  0.5623250000000 1.0
C      1  0.3318240000000  0.6132260000000  0.3721940000000 1.0
C      1  0.6769600000000  0.4148540000000  0.3501590000000 1.0
C      1  0.6752290000000  0.3372520000000  0.5448060000000 1.0
C      1  0.6768360000000  0.4824380000000  0.6703980000000 1.0
C      1  0.6755140000000  0.6586150000000  0.5623460000000 1.0
C      1  0.6681310000000  0.6130720000000  0.3722050000000 1.0
C      1  0.6001380000000  0.6605090000000  0.4255090000000 1.0
C      1  0.5958890000000  0.4739780000000  0.3272000000000 1.0
C      1  0.5935910000000  0.3194030000000  0.4928530000000 1.0
C      1  0.5986460000000  0.4169710000000  0.6607700000000 1.0
C      1  0.5937900000000  0.6429700000000  0.6143760000000 1.0
C      1  0.3998970000000  0.6605650000000  0.4255540000000 1.0
C      1  0.4033420000000  0.4739750000000  0.3258760000000 1.0
C      1  0.4064490000000  0.3194310000000  0.4928790000000 1.0
C      1  0.4013940000000  0.4169760000000  0.6607650000000 1.0
C      1  0.4061990000000  0.6430060000000  0.6143990000000 1.0
C      1  0.4541420000000  0.6280890000000  0.3051460000000 1.0
C      1  0.4494470000000  0.3826300000000  0.2933690000000 1.0
C      1  0.4498150000000  0.2790080000000  0.5721310000000 1.0
C      1  0.4501920000000  0.4713720000000  0.7359100000000 1.0
C      1  0.4505250000000  0.7205630000000  0.5731870000000 1.0
C      1  0.5459620000000  0.6280100000000  0.3051500000000 1.0
C      1  0.5512220000000  0.3824890000000  0.2925130000000 1.0
C      1  0.5502190000000  0.2789950000000  0.5721240000000 1.0
C      1  0.5498270000000  0.4713730000000  0.7358990000000 1.0
C      1  0.5494940000000  0.7205720000000  0.5731620000000 1.0
C      1  0.6211460000000  0.7173700000000  0.5027880000000 1.0
C      1  0.6193080000000  0.5708790000000  0.3002260000000 1.0
C      1  0.6233180000000  0.3400160000000  0.3301550000000 1.0
C      1  0.6205540000000  0.3218590000000  0.6257140000000 1.0
C      1  0.6238280000000  0.5396220000000  0.7337940000000 1.0
C      1  0.3788670000000  0.7174440000000  0.5028090000000 1.0
C      1  0.3804660000000  0.5715550000000  0.2999260000000 1.0
C      1  0.3767730000000  0.3396890000000  0.3299210000000 1.0
C      1  0.3794840000000  0.3218630000000  0.6257260000000 1.0
C      1  0.3761800000000  0.5396110000000  0.7338040000000 1.0
C      1  0.5521530000000  0.5629030000000  0.5676430000000 1.0
C      1  0.5518370000000  0.5786730000000  0.4627450000000 1.0
C      1  0.5495100000000  0.4878730000000  0.4160120000000 1.0
C      1  0.5536840000000  0.4123210000000  0.4857720000000 1.0
C      1  0.5505210000000  0.4609820000000  0.5773030000000 1.0
C      1  0.4479580000000  0.5629040000000  0.5678570000000 1.0
C      1  0.4484350000000  0.5787140000000  0.4625980000000 1.0
C      1  0.4503620000000  0.4877930000000  0.4157200000000 1.0
C      1  0.4465930000000  0.4122750000000  0.4856610000000 1.0
C      1  0.4495910000000  0.4610640000000  0.5774970000000 1.0
END
