TITL C-1525613-7943-3678 1.46949618892981 3375 -5660.32701735699 0 0 60 (D5) n - 1
REM
REM in /home/nfs/bkarasulu/CARBON/AIRSS/Generating-Clusters/ReaxFF-fromJPCA2015/Units_Real/Try2-Higher-symm/Only-C60
REM
REM
REM
REM
REM
REM ./C.cell (863b2abdce7293c0672fb3ba77bf323a)
REM AIRSS Version 0.9.1 bugfix July 2018 build 013d7b7c2542+ Fri, 06 Jul 2018 19:26:36 +0100
REM compiler GCC version 9.2.1 20190827 (Red Hat 9.2.1-1)
REM options -cpp -mtune=generic -march=x86-64 -g -O0 -fpre-include=/usr/include/finclude/math-vector-fortran.h
REM seed 320277173 293766120 1889191522 -1763676411 -904779965 -1507843294 -450119669 -1063632968 -483526969 -1726086591 591260854 1521007227 235561087 -1147938343 1059855360 -551110949 67949258 -684979514 -1586318328 -1250589444 1955495248 -519406065 1748438080 607224845 -1551310040 396382871 -695173084 1891646614 -761041473 -1176356464 -89437713 1947604733 -408040854
REM
CELL 1.54180   15.00000   15.00000   15.00000   90.00000   90.00000   90.00000
LATT -1
SFAC C  
C      1  0.3790400000000  0.4188210000000  0.3408980000000 1.0
C      1  0.3116610000000  0.4188780000000  0.5658690000000 1.0
C      1  0.5041750000000  0.4187820000000  0.6993740000000 1.0
C      1  0.6912010000000  0.4185880000000  0.5576710000000 1.0
C      1  0.6138000000000  0.4188260000000  0.3356880000000 1.0
C      1  0.3790280000000  0.5811540000000  0.6591130000000 1.0
C      1  0.3116490000000  0.5811450000000  0.4341520000000 1.0
C      1  0.5041820000000  0.5812610000000  0.3006480000000 1.0
C      1  0.6912230000000  0.5813940000000  0.4424100000000 1.0
C      1  0.6137950000000  0.5811150000000  0.6642960000000 1.0
C      1  0.3316810000000  0.3864850000000  0.4184880000000 1.0
C      1  0.3705380000000  0.3864610000000  0.6350750000000 1.0
C      1  0.5883270000000  0.3862540000000  0.6649890000000 1.0
C      1  0.6838870000000  0.3863530000000  0.4670380000000 1.0
C      1  0.5253470000000  0.3866640000000  0.3150670000000 1.0
C      1  0.3316790000000  0.6135290000000  0.5815140000000 1.0
C      1  0.3705690000000  0.6135130000000  0.3649430000000 1.0
C      1  0.5883270000000  0.6138260000000  0.3350550000000 1.0
C      1  0.6838590000000  0.6136610000000  0.5330000000000 1.0
C      1  0.5253390000000  0.6133420000000  0.6850120000000 1.0
C      1  0.5906320000000  0.4861880000000  0.6419440000000 1.0
C      1  0.6631390000000  0.4864100000000  0.4577000000000 1.0
C      1  0.5100310000000  0.4865270000000  0.3319870000000 1.0
C      1  0.3431590000000  0.4861750000000  0.4384870000000 1.0
C      1  0.3932790000000  0.4862640000000  0.6301510000000 1.0
C      1  0.5906020000000  0.5137980000000  0.3580430000000 1.0
C      1  0.6631790000000  0.5135090000000  0.5421530000000 1.0
C      1  0.5100750000000  0.5134760000000  0.6679630000000 1.0
C      1  0.3431380000000  0.5137670000000  0.5615100000000 1.0
C      1  0.3932840000000  0.5137270000000  0.3697690000000 1.0
C      1  0.5741950000000  0.4223600000000  0.5151920000000 1.0
C      1  0.5375530000000  0.4226300000000  0.4345030000000 1.0
C      1  0.4491010000000  0.4220920000000  0.4441630000000 1.0
C      1  0.4315580000000  0.4218580000000  0.5315500000000 1.0
C      1  0.5089940000000  0.4214110000000  0.5750580000000 1.0
C      1  0.5741520000000  0.5776760000000  0.4848320000000 1.0
C      1  0.5375690000000  0.5774810000000  0.5655540000000 1.0
C      1  0.4490530000000  0.5778540000000  0.5558240000000 1.0
C      1  0.4315640000000  0.5781350000000  0.4684830000000 1.0
C      1  0.5090120000000  0.5786140000000  0.4249690000000 1.0
C      1  0.4723820000000  0.5024700000000  0.7492260000000 1.0
C      1  0.7284110000000  0.5027250000000  0.6032600000000 1.0
C      1  0.6688080000000  0.5027880000000  0.3146170000000 1.0
C      1  0.3758080000000  0.5025020000000  0.2819920000000 1.0
C      1  0.2543390000000  0.5025870000000  0.5507330000000 1.0
C      1  0.4723890000000  0.4974600000000  0.2508000000000 1.0
C      1  0.7284400000000  0.4972540000000  0.3966780000000 1.0
C      1  0.6688530000000  0.4972850000000  0.6854050000000 1.0
C      1  0.3757630000000  0.4974950000000  0.7180000000000 1.0
C      1  0.2543560000000  0.4974300000000  0.4492770000000 1.0
C      1  0.4146450000000  0.3257870000000  0.4519400000000 1.0
C      1  0.4279090000000  0.3260170000000  0.5662180000000 1.0
C      1  0.5398970000000  0.3267480000000  0.5891880000000 1.0
C      1  0.5971750000000  0.3263020000000  0.4892270000000 1.0
C      1  0.5192380000000  0.3255450000000  0.4039200000000 1.0
C      1  0.4146840000000  0.6741780000000  0.5480570000000 1.0
C      1  0.4278980000000  0.6739950000000  0.4337470000000 1.0
C      1  0.5399380000000  0.6732470000000  0.4107010000000 1.0
C      1  0.5972370000000  0.6738090000000  0.5107930000000 1.0
C      1  0.5192590000000  0.6743700000000  0.5960900000000 1.0
END
