TITL C-1525613-7943-3815 0.0470288538252682 3375 -8730.2219037426 0 0 60 (C1) n - 1
REM
REM in /home/nfs/bkarasulu/CARBON/AIRSS/Generating-Clusters/ReaxFF-fromJPCA2015/Units_Real/Try2-Higher-symm/Only-C60
REM
REM
REM
REM
REM
REM ./C.cell (863b2abdce7293c0672fb3ba77bf323a)
REM AIRSS Version 0.9.1 bugfix July 2018 build 013d7b7c2542+ Fri, 06 Jul 2018 19:26:36 +0100
REM compiler GCC version 9.2.1 20190827 (Red Hat 9.2.1-1)
REM options -cpp -mtune=generic -march=x86-64 -g -O0 -fpre-include=/usr/include/finclude/math-vector-fortran.h
REM seed -1316953804 1861957492 -2050951302 -2021086230 -1238146005 747942731 2117729826 -1469199579 -405825154 -2135290072 224497169 499719034 -28010299 -774705887 -1031395810 -1498695209 1102885908 -1666783106 -388414239 370843625 1106637528 -934537351 746550906 1276919913 1178165690 680935066 -1431198137 575643666 -1204218921 -913545691 -1412724831 -1622283367 -2103512816
REM
CELL 1.54180   15.00000   15.00000   15.00000   90.00000   90.00000   90.00000
LATT -1
SFAC C  
C      1  0.3400890000000  0.5340440000000  0.6527630000000 1.0
C      1  0.3409710000000  0.3648650000000  0.5903000000000 1.0
C      1  0.3328160000000  0.3889020000000  0.4102670000000 1.0
C      1  0.3374610000000  0.5546670000000  0.3606140000000 1.0
C      1  0.3436730000000  0.6520370000000  0.5090530000000 1.0
C      1  0.6470640000000  0.4588610000000  0.6587900000000 1.0
C      1  0.6601080000000  0.6299270000000  0.5882920000000 1.0
C      1  0.6659100000000  0.6108910000000  0.4078310000000 1.0
C      1  0.6680920000000  0.4463080000000  0.3678420000000 1.0
C      1  0.6574760000000  0.3444550000000  0.5089080000000 1.0
C      1  0.5258930000000  0.3685770000000  0.4001260000000 1.0
C      1  0.5257870000000  0.5482820000000  0.3437210000000 1.0
C      1  0.5271020000000  0.6477240000000  0.4959890000000 1.0
C      1  0.5265600000000  0.5500180000000  0.6493550000000 1.0
C      1  0.5252260000000  0.3818650000000  0.5840330000000 1.0
C      1  0.4754080000000  0.6299960000000  0.4017330000000 1.0
C      1  0.4746080000000  0.4517110000000  0.3435280000000 1.0
C      1  0.4730990000000  0.3519020000000  0.4940630000000 1.0
C      1  0.4760450000000  0.4473700000000  0.6513910000000 1.0
C      1  0.4740470000000  0.6183980000000  0.5911030000000 1.0
C      1  0.5169030000000  0.7475570000000  0.4727540000000 1.0
C      1  0.5142290000000  0.6181100000000  0.7273330000000 1.0
C      1  0.5216340000000  0.3088790000000  0.6607690000000 1.0
C      1  0.4979520000000  0.2739350000000  0.3788080000000 1.0
C      1  0.4986200000000  0.5519350000000  0.2431340000000 1.0
C      1  0.4814170000000  0.2504640000000  0.4713580000000 1.0
C      1  0.5132400000000  0.3817460000000  0.7235460000000 1.0
C      1  0.4841570000000  0.6887390000000  0.6693340000000 1.0
C      1  0.4977070000000  0.7264810000000  0.3802580000000 1.0
C      1  0.4917870000000  0.4536390000000  0.2450090000000 1.0
C      1  0.5374020000000  0.4981190000000  0.7904190000000 1.0
C      1  0.5316460000000  0.2130360000000  0.5463350000000 1.0
C      1  0.5734990000000  0.4004870000000  0.2121810000000 1.0
C      1  0.5717500000000  0.7414650000000  0.3148700000000 1.0
C      1  0.5334580000000  0.7608900000000  0.6266060000000 1.0
C      1  0.4626470000000  0.5593940000000  0.7882280000000 1.0
C      1  0.4676920000000  0.7842270000000  0.5488520000000 1.0
C      1  0.4240300000000  0.6033550000000  0.2168640000000 1.0
C      1  0.4240480000000  0.2566790000000  0.3077380000000 1.0
C      1  0.4681580000000  0.2350290000000  0.6266180000000 1.0
C      1  0.3701780000000  0.5918960000000  0.2792510000000 1.0
C      1  0.3926100000000  0.7302990000000  0.5329660000000 1.0
C      1  0.3728940000000  0.5392960000000  0.7454570000000 1.0
C      1  0.3922220000000  0.2880940000000  0.6121610000000 1.0
C      1  0.3681720000000  0.3241140000000  0.3501050000000 1.0
C      1  0.6356860000000  0.4142510000000  0.2860940000000 1.0
C      1  0.6058170000000  0.2685250000000  0.5320250000000 1.0
C      1  0.5928270000000  0.4366800000000  0.7431300000000 1.0
C      1  0.6094520000000  0.7072220000000  0.6114830000000 1.0
C      1  0.6450570000000  0.6771150000000  0.3381970000000 1.0
C      1  0.6255960000000  0.5361970000000  0.3592520000000 1.0
C      1  0.6249840000000  0.6281790000000  0.4957090000000 1.0
C      1  0.6255680000000  0.5502080000000  0.6384280000000 1.0
C      1  0.6237250000000  0.3999020000000  0.5844840000000 1.0
C      1  0.6248870000000  0.3758060000000  0.4195490000000 1.0
C      1  0.3757820000000  0.4633950000000  0.3644060000000 1.0
C      1  0.3745700000000  0.3689640000000  0.4974540000000 1.0
C      1  0.3772140000000  0.4432490000000  0.6413710000000 1.0
C      1  0.3761780000000  0.6014110000000  0.5875010000000 1.0
C      1  0.3771700000000  0.6202340000000  0.4202590000000 1.0
END
