TITL C-1525613-7943-7805 -0.00137718727638783 3375 -9532.9313354199 0 0 60 (D5d) n - 1
REM
REM in /home/nfs/bkarasulu/CARBON/AIRSS/Generating-Clusters/ReaxFF-fromJPCA2015/Units_Real/Try2-Higher-symm/Only-C60
REM
REM
REM
REM
REM
REM ./C.cell (863b2abdce7293c0672fb3ba77bf323a)
REM AIRSS Version 0.9.1 bugfix July 2018 build 013d7b7c2542+ Fri, 06 Jul 2018 19:26:36 +0100
REM compiler GCC version 9.2.1 20190827 (Red Hat 9.2.1-1)
REM options -cpp -mtune=generic -march=x86-64 -g -O0 -fpre-include=/usr/include/finclude/math-vector-fortran.h
REM seed 1738074542 257638654 1126821923 -1132771916 648225865 -1861623898 -420912827 -1056564929 1829289121 -1863952380 1696587379 1182376922 1488693478 991133859 595724075 1646518472 1639736555 -1934307038 -2082169835 -1146123713 -2077782570 -572879513 -1406205492 931430561 -1772387582 363183563 -2060499572 1111419050 -1426067577 -826205752 1769032739 1855256781 -437965523
REM
CELL 1.54180   15.00000   15.00000   15.00000   90.00000   90.00000   90.00000
LATT -1
SFAC C  
C      1  0.5956990000000  0.7137730000000  0.5409380000000 1.0
C      1  0.7323370000000  0.4749390000000  0.5409500000000 1.0
C      1  0.5479410000000  0.2716760000000  0.5413170000000 1.0
C      1  0.2963570000000  0.3838220000000  0.5403080000000 1.0
C      1  0.3266560000000  0.6571310000000  0.5408010000000 1.0
C      1  0.4042850000000  0.7136700000000  0.5408810000000 1.0
C      1  0.2676400000000  0.4748720000000  0.5408880000000 1.0
C      1  0.4521370000000  0.2716940000000  0.5413050000000 1.0
C      1  0.7036690000000  0.3838680000000  0.5403760000000 1.0
C      1  0.6733470000000  0.6572480000000  0.5408990000000 1.0
C      1  0.4102210000000  0.2962690000000  0.6218590000000 1.0
C      1  0.2782350000000  0.5229420000000  0.6210230000000 1.0
C      1  0.4535080000000  0.7193030000000  0.6215230000000 1.0
C      1  0.6934650000000  0.6114170000000  0.6214760000000 1.0
C      1  0.6675990000000  0.3490690000000  0.6226290000000 1.0
C      1  0.5898170000000  0.2962450000000  0.6218930000000 1.0
C      1  0.7216420000000  0.5230150000000  0.6210710000000 1.0
C      1  0.5463490000000  0.7193480000000  0.6215790000000 1.0
C      1  0.3064030000000  0.6113470000000  0.6214100000000 1.0
C      1  0.3324220000000  0.3490540000000  0.6225650000000 1.0
C      1  0.3730950000000  0.4072040000000  0.6908540000000 1.0
C      1  0.3727640000000  0.5931660000000  0.6894590000000 1.0
C      1  0.5493360000000  0.6503980000000  0.6898400000000 1.0
C      1  0.6567100000000  0.4989790000000  0.6892730000000 1.0
C      1  0.5467760000000  0.3500690000000  0.6870580000000 1.0
C      1  0.6268670000000  0.4071920000000  0.6909150000000 1.0
C      1  0.6270270000000  0.5931850000000  0.6894410000000 1.0
C      1  0.4504630000000  0.6503660000000  0.6897840000000 1.0
C      1  0.3431060000000  0.4989400000000  0.6893080000000 1.0
C      1  0.4532140000000  0.3500990000000  0.6870550000000 1.0
C      1  0.6735010000000  0.3436680000000  0.4590770000000 1.0
C      1  0.4040000000000  0.2871850000000  0.4593410000000 1.0
C      1  0.2672040000000  0.5252180000000  0.4594280000000 1.0
C      1  0.4520200000000  0.7290700000000  0.4590860000000 1.0
C      1  0.7029520000000  0.6166760000000  0.4592250000000 1.0
C      1  0.3265670000000  0.3436200000000  0.4590140000000 1.0
C      1  0.5960990000000  0.2871970000000  0.4593640000000 1.0
C      1  0.7328260000000  0.5253160000000  0.4595240000000 1.0
C      1  0.5480060000000  0.7291270000000  0.4591160000000 1.0
C      1  0.2971290000000  0.6165430000000  0.4591020000000 1.0
C      1  0.6937370000000  0.3882650000000  0.3788690000000 1.0
C      1  0.4536160000000  0.2809940000000  0.3786240000000 1.0
C      1  0.2770900000000  0.4762560000000  0.3783460000000 1.0
C      1  0.4088430000000  0.7042360000000  0.3784420000000 1.0
C      1  0.6663530000000  0.6498590000000  0.3786190000000 1.0
C      1  0.3062810000000  0.3881470000000  0.3787720000000 1.0
C      1  0.5464940000000  0.2810370000000  0.3786370000000 1.0
C      1  0.7229520000000  0.4763670000000  0.3784460000000 1.0
C      1  0.5911960000000  0.7043260000000  0.3785370000000 1.0
C      1  0.3337420000000  0.6496930000000  0.3785360000000 1.0
C      1  0.6273530000000  0.4064400000000  0.3105240000000 1.0
C      1  0.4504700000000  0.3495700000000  0.3100050000000 1.0
C      1  0.3418440000000  0.5002540000000  0.3102290000000 1.0
C      1  0.4518090000000  0.6500720000000  0.3103870000000 1.0
C      1  0.6283440000000  0.5921450000000  0.3104540000000 1.0
C      1  0.3726440000000  0.4062920000000  0.3103910000000 1.0
C      1  0.5495900000000  0.3496350000000  0.3100330000000 1.0
C      1  0.6582140000000  0.5003770000000  0.3103220000000 1.0
C      1  0.5482570000000  0.6501280000000  0.3104890000000 1.0
C      1  0.3717810000000  0.5919880000000  0.3103850000000 1.0
END
