TITL C-1525613-7943-3682 1.76933053493324 3375 -5789.97872692275 0 0 60 (Ci) n - 1
REM
REM in /home/nfs/bkarasulu/CARBON/AIRSS/Generating-Clusters/ReaxFF-fromJPCA2015/Units_Real/Try2-Higher-symm/Only-C60
REM
REM
REM
REM
REM
REM ./C.cell (863b2abdce7293c0672fb3ba77bf323a)
REM AIRSS Version 0.9.1 bugfix July 2018 build 013d7b7c2542+ Fri, 06 Jul 2018 19:26:36 +0100
REM compiler GCC version 9.2.1 20190827 (Red Hat 9.2.1-1)
REM options -cpp -mtune=generic -march=x86-64 -g -O0 -fpre-include=/usr/include/finclude/math-vector-fortran.h
REM seed -126713985 1669928428 -725379239 -1866147820 1846882483 -121616585 1469804156 1890727018 -1956102356 1053344992 -1289389726 1343623655 -62104937 1267705424 844435570 -1824389332 -636530055 -414813272 1526679732 -994500937 1598528931 -1824422263 1166361108 -1884089518 783922900 780972266 119209001 10335003 -1386147280 286605977 -789332263 -641291218 430238430
REM
CELL 1.54180   15.00000   15.00000   15.00000   90.00000   90.00000   90.00000
LATT -1
SFAC C  
C      1  0.4227360000000  0.4875860000000  0.4377560000000 1.0
C      1  0.4324610000000  0.5366290000000  0.5631180000000 1.0
C      1  0.4755050000000  0.5640560000000  0.4563940000000 1.0
C      1  0.5106350000000  0.5757070000000  0.5663490000000 1.0
C      1  0.5634700000000  0.5471520000000  0.4427940000000 1.0
C      1  0.5754540000000  0.5117920000000  0.5631420000000 1.0
C      1  0.5665330000000  0.4646820000000  0.4353910000000 1.0
C      1  0.5246320000000  0.4359040000000  0.5464700000000 1.0
C      1  0.4901250000000  0.4260520000000  0.4322150000000 1.0
C      1  0.4396530000000  0.4523730000000  0.5573640000000 1.0
C      1  0.5383080000000  0.2770760000000  0.5739590000000 1.0
C      1  0.3962430000000  0.2935270000000  0.4363580000000 1.0
C      1  0.2978690000000  0.3933610000000  0.5631230000000 1.0
C      1  0.2741010000000  0.5350130000000  0.4348500000000 1.0
C      1  0.3387310000000  0.6614990000000  0.5600190000000 1.0
C      1  0.4614120000000  0.7231100000000  0.4259780000000 1.0
C      1  0.6037410000000  0.7063620000000  0.5636770000000 1.0
C      1  0.7020130000000  0.6066710000000  0.4367630000000 1.0
C      1  0.7261010000000  0.4647970000000  0.5651290000000 1.0
C      1  0.6612160000000  0.3383540000000  0.4399180000000 1.0
C      1  0.5822620000000  0.6633780000000  0.4909050000000 1.0
C      1  0.6695490000000  0.5773520000000  0.5040070000000 1.0
C      1  0.6800880000000  0.4672950000000  0.4908170000000 1.0
C      1  0.6268460000000  0.3694320000000  0.5157390000000 1.0
C      1  0.5287620000000  0.3022250000000  0.4844200000000 1.0
C      1  0.4173320000000  0.3368490000000  0.5092220000000 1.0
C      1  0.3312450000000  0.4235530000000  0.4960500000000 1.0
C      1  0.3198430000000  0.5329560000000  0.5082290000000 1.0
C      1  0.3730970000000  0.6307550000000  0.4848660000000 1.0
C      1  0.4714260000000  0.6962650000000  0.5149360000000 1.0
C      1  0.6458800000000  0.6205210000000  0.6183040000000 1.0
C      1  0.6861830000000  0.5141740000000  0.3820820000000 1.0
C      1  0.6536970000000  0.3996770000000  0.6116970000000 1.0
C      1  0.5689210000000  0.3215700000000  0.3907080000000 1.0
C      1  0.4578000000000  0.3186450000000  0.6126910000000 1.0
C      1  0.3543950000000  0.3794390000000  0.3813910000000 1.0
C      1  0.3132890000000  0.4858350000000  0.6181090000000 1.0
C      1  0.3481880000000  0.5995620000000  0.3874890000000 1.0
C      1  0.4312620000000  0.6782880000000  0.6097260000000 1.0
C      1  0.5417110000000  0.6806460000000  0.3877630000000 1.0
C      1  0.4324870000000  0.5606920000000  0.3328200000000 1.0
C      1  0.4849340000000  0.5896820000000  0.6648450000000 1.0
C      1  0.5318160000000  0.5818770000000  0.3418190000000 1.0
C      1  0.5810480000000  0.5411350000000  0.6667610000000 1.0
C      1  0.5894170000000  0.4858670000000  0.3351530000000 1.0
C      1  0.5677740000000  0.4386120000000  0.6683330000000 1.0
C      1  0.5149790000000  0.4101260000000  0.3346460000000 1.0
C      1  0.4660010000000  0.4179180000000  0.6591700000000 1.0
C      1  0.4178600000000  0.4608140000000  0.3320310000000 1.0
C      1  0.4108380000000  0.5134810000000  0.6644500000000 1.0
C      1  0.7200770000000  0.4212770000000  0.4345260000000 1.0
C      1  0.6320470000000  0.3076430000000  0.5670180000000 1.0
C      1  0.4890370000000  0.2655450000000  0.4212960000000 1.0
C      1  0.3582900000000  0.3120460000000  0.5683320000000 1.0
C      1  0.2779200000000  0.4326020000000  0.4350790000000 1.0
C      1  0.2801830000000  0.5787490000000  0.5653330000000 1.0
C      1  0.3681640000000  0.6920190000000  0.4330140000000 1.0
C      1  0.5108560000000  0.7343340000000  0.5786550000000 1.0
C      1  0.6417050000000  0.6879500000000  0.4316730000000 1.0
C      1  0.7218550000000  0.5675140000000  0.5651270000000 1.0
END
