TITL C-1525613-7943-5804 0.148036939410915 3375 -8975.2456568792 0 0 60 (C1) n - 1
REM
REM in /home/nfs/bkarasulu/CARBON/AIRSS/Generating-Clusters/ReaxFF-fromJPCA2015/Units_Real/Try2-Higher-symm/Only-C60
REM
REM
REM
REM
REM
REM ./C.cell (863b2abdce7293c0672fb3ba77bf323a)
REM AIRSS Version 0.9.1 bugfix July 2018 build 013d7b7c2542+ Fri, 06 Jul 2018 19:26:36 +0100
REM compiler GCC version 9.2.1 20190827 (Red Hat 9.2.1-1)
REM options -cpp -mtune=generic -march=x86-64 -g -O0 -fpre-include=/usr/include/finclude/math-vector-fortran.h
REM seed 948219217 439727342 1876871850 73087159 -2002296284 1876775628 2037180880 68199842 1169329183 -658348321 1956809548 -1584444569 717029034 -577686054 1137150401 -1149378491 -528264199 1067600620 73111033 2048402173 -1287279672 -1698008399 1812803772 1972817503 1238521610 579428866 -410571961 524854669 1362144828 662469251 -726226299 781770470 -1389785782
REM
CELL 1.54180   15.00000   15.00000   15.00000   90.00000   90.00000   90.00000
LATT -1
SFAC C  
C      1  0.7872360000000  0.4870710000000  0.4729060000000 1.0
C      1  0.8084120000000  0.4971930000000  0.5674490000000 1.0
C      1  0.7506560000000  0.4764400000000  0.6925830000000 1.0
C      1  0.5184390000000  0.4543580000000  0.7408200000000 1.0
C      1  0.3440880000000  0.4643880000000  0.6925500000000 1.0
C      1  0.2429290000000  0.5023130000000  0.5519910000000 1.0
C      1  0.2059350000000  0.5057800000000  0.4037010000000 1.0
C      1  0.2909280000000  0.4744680000000  0.3061930000000 1.0
C      1  0.4811170000000  0.4535800000000  0.2321960000000 1.0
C      1  0.6707150000000  0.4595140000000  0.3395990000000 1.0
C      1  0.6014700000000  0.3115080000000  0.3934130000000 1.0
C      1  0.6067750000000  0.3086780000000  0.4822550000000 1.0
C      1  0.6313730000000  0.3179200000000  0.5685290000000 1.0
C      1  0.5760590000000  0.3012770000000  0.6538990000000 1.0
C      1  0.4820670000000  0.2973160000000  0.6691030000000 1.0
C      1  0.4011340000000  0.3242360000000  0.6090240000000 1.0
C      1  0.3942000000000  0.3181420000000  0.5191870000000 1.0
C      1  0.3686680000000  0.3273140000000  0.4320680000000 1.0
C      1  0.4273560000000  0.3220990000000  0.3470660000000 1.0
C      1  0.5211520000000  0.3070620000000  0.3338410000000 1.0
C      1  0.3437370000000  0.6705550000000  0.5887010000000 1.0
C      1  0.3296680000000  0.6786510000000  0.4912780000000 1.0
C      1  0.4052610000000  0.6758100000000  0.4361180000000 1.0
C      1  0.4771650000000  0.6690480000000  0.3941240000000 1.0
C      1  0.5611020000000  0.6569960000000  0.3537890000000 1.0
C      1  0.6432850000000  0.6680640000000  0.4070380000000 1.0
C      1  0.6558240000000  0.6793100000000  0.5040520000000 1.0
C      1  0.5807080000000  0.6744740000000  0.5586520000000 1.0
C      1  0.5086800000000  0.6668980000000  0.6010940000000 1.0
C      1  0.4250920000000  0.6567970000000  0.6408970000000 1.0
C      1  0.2926630000000  0.3854810000000  0.4505170000000 1.0
C      1  0.2509360000000  0.4372750000000  0.3831990000000 1.0
C      1  0.4803720000000  0.3933650000000  0.3084670000000 1.0
C      1  0.6804890000000  0.3807210000000  0.3824070000000 1.0
C      1  0.7327560000000  0.4062880000000  0.4657470000000 1.0
C      1  0.7137460000000  0.3707440000000  0.5532480000000 1.0
C      1  0.7716660000000  0.4203730000000  0.6195660000000 1.0
C      1  0.5353760000000  0.3563630000000  0.7229880000000 1.0
C      1  0.3344050000000  0.3957640000000  0.6240550000000 1.0
C      1  0.2746240000000  0.4165440000000  0.5457970000000 1.0
C      1  0.2450620000000  0.6364020000000  0.4684180000000 1.0
C      1  0.2761620000000  0.5731500000000  0.3103800000000 1.0
C      1  0.4240070000000  0.5276440000000  0.2324180000000 1.0
C      1  0.5780430000000  0.5866640000000  0.2883540000000 1.0
C      1  0.7087800000000  0.6083170000000  0.3730240000000 1.0
C      1  0.7399330000000  0.6307150000000  0.5252570000000 1.0
C      1  0.7405900000000  0.5699040000000  0.6974810000000 1.0
C      1  0.5882990000000  0.5147870000000  0.7415090000000 1.0
C      1  0.4016120000000  0.5898370000000  0.7125500000000 1.0
C      1  0.2719390000000  0.6194900000000  0.6277570000000 1.0
C      1  0.7641600000000  0.5790550000000  0.4465310000000 1.0
C      1  0.7721200000000  0.5821540000000  0.6017080000000 1.0
C      1  0.6529150000000  0.5571810000000  0.7357660000000 1.0
C      1  0.4325140000000  0.4966370000000  0.7224250000000 1.0
C      1  0.3102680000000  0.5596560000000  0.6958300000000 1.0
C      1  0.2143970000000  0.5898490000000  0.5506300000000 1.0
C      1  0.2244550000000  0.5873230000000  0.3914940000000 1.0
C      1  0.3638070000000  0.5330000000000  0.3017570000000 1.0
C      1  0.5163060000000  0.5421720000000  0.2303110000000 1.0
C      1  0.6663690000000  0.5458890000000  0.3062950000000 1.0
END
