TITL C-1525613-7943-7046 0.107112711962631 3375 -9092.36452682289 0 0 60 (D5) n - 1
REM
REM in /home/nfs/bkarasulu/CARBON/AIRSS/Generating-Clusters/ReaxFF-fromJPCA2015/Units_Real/Try2-Higher-symm/Only-C60
REM
REM
REM
REM
REM
REM ./C.cell (863b2abdce7293c0672fb3ba77bf323a)
REM AIRSS Version 0.9.1 bugfix July 2018 build 013d7b7c2542+ Fri, 06 Jul 2018 19:26:36 +0100
REM compiler GCC version 9.2.1 20190827 (Red Hat 9.2.1-1)
REM options -cpp -mtune=generic -march=x86-64 -g -O0 -fpre-include=/usr/include/finclude/math-vector-fortran.h
REM seed -529883094 -1909010409 94157038 -962176990 -608242860 -327471008 1311901541 1217276913 -635926610 -1062556171 -1013275027 -1992881395 1468859775 -2037060697 -188130994 -225898295 445622235 922680264 -259756170 1426953702 -118242332 1543052017 1772068195 -200878032 -1817964979 2018350215 975087291 592606997 1896117422 -22732553 -1183406218 -1123804323 845711867
REM
CELL 1.54180   15.00000   15.00000   15.00000   90.00000   90.00000   90.00000
LATT -1
SFAC C  
C      1  0.6825340000000  0.4378840000000  0.3859510000000 1.0
C      1  0.4973440000000  0.3073230000000  0.3859530000000 1.0
C      1  0.3160250000000  0.4430100000000  0.3859300000000 1.0
C      1  0.3889090000000  0.6574620000000  0.3860020000000 1.0
C      1  0.6154080000000  0.6543310000000  0.3859770000000 1.0
C      1  0.6825340000000  0.5621160000000  0.6140490000000 1.0
C      1  0.4973440000000  0.6926770000000  0.6140470000000 1.0
C      1  0.3160250000000  0.5569900000000  0.6140700000000 1.0
C      1  0.3889090000000  0.3425380000000  0.6139980000000 1.0
C      1  0.6154080000000  0.3456690000000  0.6140230000000 1.0
C      1  0.4269140000000  0.5376180000000  0.7523560000000 1.0
C      1  0.5131300000000  0.5811090000000  0.7523730000000 1.0
C      1  0.5811590000000  0.5125410000000  0.7522320000000 1.0
C      1  0.5369340000000  0.4266930000000  0.7522470000000 1.0
C      1  0.4416430000000  0.4421610000000  0.7522630000000 1.0
C      1  0.4269140000000  0.4623820000000  0.2476440000000 1.0
C      1  0.5131300000000  0.4188910000000  0.2476270000000 1.0
C      1  0.5811590000000  0.4874590000000  0.2477680000000 1.0
C      1  0.5369340000000  0.5733070000000  0.2477530000000 1.0
C      1  0.4416430000000  0.5578390000000  0.2477370000000 1.0
C      1  0.5318290000000  0.3323210000000  0.2941900000000 1.0
C      1  0.3503680000000  0.4178220000000  0.2941720000000 1.0
C      1  0.3756720000000  0.6169750000000  0.2942390000000 1.0
C      1  0.5727660000000  0.6543980000000  0.2942370000000 1.0
C      1  0.6693040000000  0.4784210000000  0.2941730000000 1.0
C      1  0.5318290000000  0.6676790000000  0.7058100000000 1.0
C      1  0.3503680000000  0.5821780000000  0.7058280000000 1.0
C      1  0.3756720000000  0.3830250000000  0.7057610000000 1.0
C      1  0.5727660000000  0.3456020000000  0.7057630000000 1.0
C      1  0.6693040000000  0.5215790000000  0.7058270000000 1.0
C      1  0.4002290000000  0.6956510000000  0.5909180000000 1.0
C      1  0.6552300000000  0.6553360000000  0.5909180000000 1.0
C      1  0.6956770000000  0.4003960000000  0.5909020000000 1.0
C      1  0.4657200000000  0.2830770000000  0.5908550000000 1.0
C      1  0.2831620000000  0.4655820000000  0.5908490000000 1.0
C      1  0.4002290000000  0.3043490000000  0.4090820000000 1.0
C      1  0.6552300000000  0.3446640000000  0.4090820000000 1.0
C      1  0.6956770000000  0.5996040000000  0.4090980000000 1.0
C      1  0.4657200000000  0.7169230000000  0.4091450000000 1.0
C      1  0.2831620000000  0.5344180000000  0.4091510000000 1.0
C      1  0.3740300000000  0.3316820000000  0.3237590000000 1.0
C      1  0.3010310000000  0.5678020000000  0.3238390000000 1.0
C      1  0.5029630000000  0.7102100000000  0.3237940000000 1.0
C      1  0.7007130000000  0.5620920000000  0.3237690000000 1.0
C      1  0.6211070000000  0.3282360000000  0.3237660000000 1.0
C      1  0.3740300000000  0.6683180000000  0.6762410000000 1.0
C      1  0.3010310000000  0.4321980000000  0.6761610000000 1.0
C      1  0.5029630000000  0.2897900000000  0.6762060000000 1.0
C      1  0.7007130000000  0.4379080000000  0.6762310000000 1.0
C      1  0.6211070000000  0.6717640000000  0.6762340000000 1.0
C      1  0.5526960000000  0.3105290000000  0.5474050000000 1.0
C      1  0.3361550000000  0.3913930000000  0.5473930000000 1.0
C      1  0.3460830000000  0.6222860000000  0.5474420000000 1.0
C      1  0.5687230000000  0.6842230000000  0.5474460000000 1.0
C      1  0.6965420000000  0.4915700000000  0.5474090000000 1.0
C      1  0.5526960000000  0.6894710000000  0.4525950000000 1.0
C      1  0.3361550000000  0.6086070000000  0.4526070000000 1.0
C      1  0.3460830000000  0.3777140000000  0.4525580000000 1.0
C      1  0.5687230000000  0.3157770000000  0.4525540000000 1.0
C      1  0.6965420000000  0.5084300000000  0.4525910000000 1.0
END
