TITL C-1525613-7943-6764 -0.32320388443186 3375 -9455.28238588597 0 0 60 (C5v) n - 1
REM
REM in /home/nfs/bkarasulu/CARBON/AIRSS/Generating-Clusters/ReaxFF-fromJPCA2015/Units_Real/Try2-Higher-symm/Only-C60
REM
REM
REM
REM
REM
REM ./C.cell (863b2abdce7293c0672fb3ba77bf323a)
REM AIRSS Version 0.9.1 bugfix July 2018 build 013d7b7c2542+ Fri, 06 Jul 2018 19:26:36 +0100
REM compiler GCC version 9.2.1 20190827 (Red Hat 9.2.1-1)
REM options -cpp -mtune=generic -march=x86-64 -g -O0 -fpre-include=/usr/include/finclude/math-vector-fortran.h
REM seed 1550707255 -5886863 -1247897651 1273225319 1766213601 6859517 936690075 -778060307 1548890308 422010300 1031475772 1094407026 616443504 684093538 -1190267755 853288665 1931799832 -1096456487 -1543223963 1144554560 71059474 -908083137 -1525346067 -2106062113 -49211280 -794298904 1660030738 -819664419 -537160050 376130389 603222366 311725854 -1721868033
REM
CELL 1.54180   15.00000   15.00000   15.00000   90.00000   90.00000   90.00000
LATT -1
SFAC C  
C      1  0.3033430000000  0.2783510000000  0.5389840000000 1.0
C      1  0.3043840000000  0.3952040000000  0.3009370000000 1.0
C      1  0.3031610000000  0.6562290000000  0.3382230000000 1.0
C      1  0.3054780000000  0.7012950000000  0.5998990000000 1.0
C      1  0.3035410000000  0.4683840000000  0.7228690000000 1.0
C      1  0.3049620000000  0.2782430000000  0.4620410000000 1.0
C      1  0.3044350000000  0.3952280000000  0.6990700000000 1.0
C      1  0.3025300000000  0.6560790000000  0.6620790000000 1.0
C      1  0.3049930000000  0.7015170000000  0.4004020000000 1.0
C      1  0.3035360000000  0.4684190000000  0.2772350000000 1.0
C      1  0.4596030000000  0.6610790000000  0.6774560000000 1.0
C      1  0.4599370000000  0.3807630000000  0.7080610000000 1.0
C      1  0.4600450000000  0.2651050000000  0.4508720000000 1.0
C      1  0.4598160000000  0.4740680000000  0.2617250000000 1.0
C      1  0.4600500000000  0.7189420000000  0.4016510000000 1.0
C      1  0.4597190000000  0.6610100000000  0.3224790000000 1.0
C      1  0.4599730000000  0.3808020000000  0.2918360000000 1.0
C      1  0.4598620000000  0.2653190000000  0.5489150000000 1.0
C      1  0.4597070000000  0.4740990000000  0.7382620000000 1.0
C      1  0.4600770000000  0.7189480000000  0.5983190000000 1.0
C      1  0.3764830000000  0.3377870000000  0.6793510000000 1.0
C      1  0.3765760000000  0.2789430000000  0.4010250000000 1.0
C      1  0.3763190000000  0.5256760000000  0.2597780000000 1.0
C      1  0.3765760000000  0.7369910000000  0.4501100000000 1.0
C      1  0.3761290000000  0.6204560000000  0.7092920000000 1.0
C      1  0.3764350000000  0.3377960000000  0.3203650000000 1.0
C      1  0.3763550000000  0.2794180000000  0.5985510000000 1.0
C      1  0.3762670000000  0.5258300000000  0.7402850000000 1.0
C      1  0.3766600000000  0.7370550000000  0.5498680000000 1.0
C      1  0.3762510000000  0.6204140000000  0.2905890000000 1.0
C      1  0.6267180000000  0.6482920000000  0.3320960000000 1.0
C      1  0.6268280000000  0.7055150000000  0.5892420000000 1.0
C      1  0.6268150000000  0.4786890000000  0.7231030000000 1.0
C      1  0.6267310000000  0.2813910000000  0.5485850000000 1.0
C      1  0.6267800000000  0.3861540000000  0.3070040000000 1.0
C      1  0.6267880000000  0.6483070000000  0.6679090000000 1.0
C      1  0.6269100000000  0.7055150000000  0.4107330000000 1.0
C      1  0.6266260000000  0.4787100000000  0.2770150000000 1.0
C      1  0.6269020000000  0.2812980000000  0.4512620000000 1.0
C      1  0.6267410000000  0.3861880000000  0.6929480000000 1.0
C      1  0.6911490000000  0.5004070000000  0.6525310000000 1.0
C      1  0.6912210000000  0.3550490000000  0.5473430000000 1.0
C      1  0.6912740000000  0.4102100000000  0.3767750000000 1.0
C      1  0.6912990000000  0.5893200000000  0.3763880000000 1.0
C      1  0.6912360000000  0.6450470000000  0.5468680000000 1.0
C      1  0.6911030000000  0.5002710000000  0.3474600000000 1.0
C      1  0.6913470000000  0.3551390000000  0.4526150000000 1.0
C      1  0.6912500000000  0.4101210000000  0.6231270000000 1.0
C      1  0.6913280000000  0.5894560000000  0.6235860000000 1.0
C      1  0.6911820000000  0.6449890000000  0.4531880000000 1.0
C      1  0.5414540000000  0.6180430000000  0.7062670000000 1.0
C      1  0.5417100000000  0.3400920000000  0.6760400000000 1.0
C      1  0.5418230000000  0.2830690000000  0.4023510000000 1.0
C      1  0.5415450000000  0.5258540000000  0.2635540000000 1.0
C      1  0.5417910000000  0.7330230000000  0.4514510000000 1.0
C      1  0.5414940000000  0.6181360000000  0.2936190000000 1.0
C      1  0.5417420000000  0.3401470000000  0.3238720000000 1.0
C      1  0.5416210000000  0.2830710000000  0.5975010000000 1.0
C      1  0.5415220000000  0.5258920000000  0.7365360000000 1.0
C      1  0.5418680000000  0.7331560000000  0.5484990000000 1.0
END
