TITL C-1525613-7943-3524 -0.328618567240945 3375 -8953.67775127089 0 0 60 (Cs) n - 1
REM
REM in /home/nfs/bkarasulu/CARBON/AIRSS/Generating-Clusters/ReaxFF-fromJPCA2015/Units_Real/Try2-Higher-symm/Only-C60
REM
REM
REM
REM
REM
REM ./C.cell (863b2abdce7293c0672fb3ba77bf323a)
REM AIRSS Version 0.9.1 bugfix July 2018 build 013d7b7c2542+ Fri, 06 Jul 2018 19:26:36 +0100
REM compiler GCC version 9.2.1 20190827 (Red Hat 9.2.1-1)
REM options -cpp -mtune=generic -march=x86-64 -g -O0 -fpre-include=/usr/include/finclude/math-vector-fortran.h
REM seed -973191206 244082708 -367283973 -774175818 -812542718 442467858 -646534451 1812074606 -785779852 -2105580207 -211509018 486859452 639065192 553516645 -851333300 1226193485 -2130542206 406520423 115960655 -1406165543 1556128156 1034756429 1671528880 1254050977 -1677564331 -249592785 -849956938 1558243463 -559771780 -757315409 -1403400974 1894208525 918920287
REM
CELL 1.54180   15.00000   15.00000   15.00000   90.00000   90.00000   90.00000
LATT -1
SFAC C  
C      1  0.3544520000000  0.4504760000000  0.6605290000000 1.0
C      1  0.3033200000000  0.4484690000000  0.4105470000000 1.0
C      1  0.5220360000000  0.4501910000000  0.2837650000000 1.0
C      1  0.7131310000000  0.4497800000000  0.4575830000000 1.0
C      1  0.6061040000000  0.4489500000000  0.6877400000000 1.0
C      1  0.3544520000000  0.5495240000000  0.6605290000000 1.0
C      1  0.3033210000000  0.5515310000000  0.4105460000000 1.0
C      1  0.5220360000000  0.5498090000000  0.2837640000000 1.0
C      1  0.7131310000000  0.5502200000000  0.4575810000000 1.0
C      1  0.6061030000000  0.5510510000000  0.6877400000000 1.0
C      1  0.6361860000000  0.2942650000000  0.4228220000000 1.0
C      1  0.6161900000000  0.2942720000000  0.6054970000000 1.0
C      1  0.4358480000000  0.2948010000000  0.6422760000000 1.0
C      1  0.3438200000000  0.2951100000000  0.4825390000000 1.0
C      1  0.4685470000000  0.2946820000000  0.3468330000000 1.0
C      1  0.6361870000000  0.7057340000000  0.4228220000000 1.0
C      1  0.6161900000000  0.7057270000000  0.6054970000000 1.0
C      1  0.4358480000000  0.7051980000000  0.6422760000000 1.0
C      1  0.3438200000000  0.7048900000000  0.4825390000000 1.0
C      1  0.4685460000000  0.7053180000000  0.3468330000000 1.0
C      1  0.4146110000000  0.2725400000000  0.4219340000000 1.0
C      1  0.5483470000000  0.2713410000000  0.3940460000000 1.0
C      1  0.6158030000000  0.2712330000000  0.5127920000000 1.0
C      1  0.5235810000000  0.2720690000000  0.6133240000000 1.0
C      1  0.3989950000000  0.2719390000000  0.5573120000000 1.0
C      1  0.4146110000000  0.7274600000000  0.4219340000000 1.0
C      1  0.5483470000000  0.7286590000000  0.3940450000000 1.0
C      1  0.6158030000000  0.7287670000000  0.5127920000000 1.0
C      1  0.5235810000000  0.7279310000000  0.6133240000000 1.0
C      1  0.3989950000000  0.7280610000000  0.5573120000000 1.0
C      1  0.5926800000000  0.5715080000000  0.3504410000000 1.0
C      1  0.6731720000000  0.5738070000000  0.5444590000000 1.0
C      1  0.5116020000000  0.5739270000000  0.6798820000000 1.0
C      1  0.3391670000000  0.5726030000000  0.5636240000000 1.0
C      1  0.3848850000000  0.5742070000000  0.3622390000000 1.0
C      1  0.5926760000000  0.4284930000000  0.3504390000000 1.0
C      1  0.6731700000000  0.4261930000000  0.5444570000000 1.0
C      1  0.5116020000000  0.4260730000000  0.6798820000000 1.0
C      1  0.3391680000000  0.4273970000000  0.5636240000000 1.0
C      1  0.3848860000000  0.4257930000000  0.3622400000000 1.0
C      1  0.2964460000000  0.3876230000000  0.4853940000000 1.0
C      1  0.4494910000000  0.3882280000000  0.3028300000000 1.0
C      1  0.6708570000000  0.3894730000000  0.3929090000000 1.0
C      1  0.6557380000000  0.3875470000000  0.6307680000000 1.0
C      1  0.4241360000000  0.3886990000000  0.6886110000000 1.0
C      1  0.2964470000000  0.6123770000000  0.4853940000000 1.0
C      1  0.4494900000000  0.6117720000000  0.3028310000000 1.0
C      1  0.6708520000000  0.6105260000000  0.3929090000000 1.0
C      1  0.6557370000000  0.6124530000000  0.6307670000000 1.0
C      1  0.4241370000000  0.6113000000000  0.6886110000000 1.0
C      1  0.5436400000000  0.5779730000000  0.4313250000000 1.0
C      1  0.5782410000000  0.5608760000000  0.5192180000000 1.0
C      1  0.5032090000000  0.5547120000000  0.5805650000000 1.0
C      1  0.4262790000000  0.5730590000000  0.5295040000000 1.0
C      1  0.4494880000000  0.5557130000000  0.4386980000000 1.0
C      1  0.5436340000000  0.4220300000000  0.4313290000000 1.0
C      1  0.5782400000000  0.4391230000000  0.5192160000000 1.0
C      1  0.5032110000000  0.4452880000000  0.5805630000000 1.0
C      1  0.4262790000000  0.4269410000000  0.5295030000000 1.0
C      1  0.4494910000000  0.4442860000000  0.4386980000000 1.0
END
