TITL C-1525613-7943-6058 0.0289580351297117 3375 -8659.82921118537 0 0 60 (S10) n - 1
REM
REM in /home/nfs/bkarasulu/CARBON/AIRSS/Generating-Clusters/ReaxFF-fromJPCA2015/Units_Real/Try2-Higher-symm/Only-C60
REM
REM
REM
REM
REM
REM ./C.cell (863b2abdce7293c0672fb3ba77bf323a)
REM AIRSS Version 0.9.1 bugfix July 2018 build 013d7b7c2542+ Fri, 06 Jul 2018 19:26:36 +0100
REM compiler GCC version 9.2.1 20190827 (Red Hat 9.2.1-1)
REM options -cpp -mtune=generic -march=x86-64 -g -O0 -fpre-include=/usr/include/finclude/math-vector-fortran.h
REM seed 1384371556 454794667 -1096193645 1380455509 1510760023 1378926795 -1172689188 1846962867 1758601235 1174540392 1564385895 -1201000048 1455006181 -2146534488 -873514444 -839132601 533073826 -1952952865 -20386248 -1200259743 771620909 -1101363081 399599246 -499221656 799361573 1816710505 -1756969890 -1578429922 -1321668991 1426893362 1561242885 1442412948 1649728428
REM
CELL 1.54180   15.00000   15.00000   15.00000   90.00000   90.00000   90.00000
LATT -1
SFAC C  
C      1  0.5574830000000  0.5365200000000  0.7150590000000 1.0
C      1  0.4201410000000  0.4636080000000  0.7076820000000 1.0
C      1  0.3132910000000  0.5365380000000  0.6212240000000 1.0
C      1  0.2776720000000  0.4634990000000  0.4881210000000 1.0
C      1  0.3270540000000  0.5364690000000  0.3597580000000 1.0
C      1  0.4425170000000  0.4634800000000  0.2849410000000 1.0
C      1  0.5798590000000  0.5363920000000  0.2923180000000 1.0
C      1  0.6867090000000  0.4634620000000  0.3787760000000 1.0
C      1  0.7223280000000  0.5365010000000  0.5118790000000 1.0
C      1  0.6729460000000  0.4635310000000  0.6402420000000 1.0
C      1  0.6316490000000  0.3860000000000  0.6735490000000 1.0
C      1  0.5045570000000  0.6140450000000  0.7176970000000 1.0
C      1  0.3756830000000  0.3859980000000  0.6788660000000 1.0
C      1  0.2942620000000  0.6139560000000  0.5716600000000 1.0
C      1  0.2913750000000  0.3859760000000  0.4367530000000 1.0
C      1  0.3683510000000  0.6140000000000  0.3264510000000 1.0
C      1  0.4954430000000  0.3859550000000  0.2823030000000 1.0
C      1  0.6243170000000  0.6140020000000  0.3211340000000 1.0
C      1  0.7057380000000  0.3860440000000  0.4283400000000 1.0
C      1  0.7086250000000  0.6140240000000  0.5632470000000 1.0
C      1  0.5968130000000  0.4490830000000  0.3424170000000 1.0
C      1  0.6712190000000  0.5509350000000  0.4292100000000 1.0
C      1  0.6798950000000  0.4490960000000  0.5433940000000 1.0
C      1  0.6201260000000  0.5509810000000  0.6408810000000 1.0
C      1  0.5144000000000  0.4489880000000  0.6849130000000 1.0
C      1  0.4031870000000  0.5509170000000  0.6575830000000 1.0
C      1  0.3287810000000  0.4490650000000  0.5707900000000 1.0
C      1  0.3201050000000  0.5509040000000  0.4566060000000 1.0
C      1  0.3798740000000  0.4490190000000  0.3591190000000 1.0
C      1  0.4856000000000  0.5510120000000  0.3150870000000 1.0
C      1  0.5700560000000  0.7200410000000  0.5457290000000 1.0
C      1  0.5298690000000  0.2799920000000  0.5781880000000 1.0
C      1  0.4783210000000  0.7199090000000  0.5807660000000 1.0
C      1  0.4349260000000  0.2799300000000  0.5526250000000 1.0
C      1  0.4165780000000  0.7201690000000  0.5041480000000 1.0
C      1  0.4299440000000  0.2799590000000  0.4542710000000 1.0
C      1  0.4701310000000  0.7200080000000  0.4218120000000 1.0
C      1  0.5216790000000  0.2800910000000  0.4192340000000 1.0
C      1  0.5650740000000  0.7200710000000  0.4473750000000 1.0
C      1  0.5834220000000  0.2798310000000  0.4958520000000 1.0
C      1  0.5555830000000  0.5692380000000  0.5621950000000 1.0
C      1  0.5087160000000  0.4303560000000  0.5829600000000 1.0
C      1  0.4584030000000  0.5697530000000  0.5719380000000 1.0
C      1  0.4238030000000  0.4300560000000  0.5336570000000 1.0
C      1  0.4186930000000  0.5691440000000  0.4825260000000 1.0
C      1  0.4444170000000  0.4307620000000  0.4378050000000 1.0
C      1  0.4912840000000  0.5696440000000  0.4170400000000 1.0
C      1  0.5415970000000  0.4302470000000  0.4280620000000 1.0
C      1  0.5761970000000  0.5699440000000  0.4663430000000 1.0
C      1  0.5813070000000  0.4308560000000  0.5174740000000 1.0
C      1  0.4633030000000  0.6735370000000  0.6633500000000 1.0
C      1  0.3742180000000  0.3263080000000  0.6107280000000 1.0
C      1  0.3335820000000  0.6734520000000  0.5156260000000 1.0
C      1  0.3561020000000  0.3265040000000  0.4146170000000 1.0
C      1  0.4336020000000  0.6736540000000  0.3463220000000 1.0
C      1  0.5366970000000  0.3264630000000  0.3366500000000 1.0
C      1  0.6257820000000  0.6736920000000  0.3892720000000 1.0
C      1  0.6664180000000  0.3265480000000  0.4843740000000 1.0
C      1  0.6438980000000  0.6734960000000  0.5853830000000 1.0
C      1  0.5663980000000  0.3263460000000  0.6536780000000 1.0
END
