TITL C-1525613-7943-6604 0.12792464429609 3375 -8780.5817886165 0 0 60 (Ci) n - 1
REM
REM in /home/nfs/bkarasulu/CARBON/AIRSS/Generating-Clusters/ReaxFF-fromJPCA2015/Units_Real/Try2-Higher-symm/Only-C60
REM
REM
REM
REM
REM
REM ./C.cell (863b2abdce7293c0672fb3ba77bf323a)
REM AIRSS Version 0.9.1 bugfix July 2018 build 013d7b7c2542+ Fri, 06 Jul 2018 19:26:36 +0100
REM compiler GCC version 9.2.1 20190827 (Red Hat 9.2.1-1)
REM options -cpp -mtune=generic -march=x86-64 -g -O0 -fpre-include=/usr/include/finclude/math-vector-fortran.h
REM seed -766378482 1901411920 1645316924 -876167402 -874353025 792790640 1719648436 -1064957132 1697255085 431380460 717593417 -871027254 112726057 -23695472 -601667059 1653809362 1132921432 -91276860 -151860005 -428110591 309008887 1819332908 -403468778 2012417974 -111090458 1896348240 645635420 -245878701 1068073994 -582169546 -1013338865 371583771 1387250009
REM
CELL 1.54180   15.00000   15.00000   15.00000   90.00000   90.00000   90.00000
LATT -1
SFAC C  
C      1  0.3418600000000  0.5096150000000  0.6820520000000 1.0
C      1  0.3770870000000  0.6051030000000  0.3130790000000 1.0
C      1  0.4643190000000  0.6543970000000  0.6834050000000 1.0
C      1  0.5634160000000  0.6487460000000  0.3150620000000 1.0
C      1  0.6371950000000  0.5861220000000  0.6836860000000 1.0
C      1  0.6581400000000  0.4903850000000  0.3179480000000 1.0
C      1  0.6229130000000  0.3948970000000  0.6869210000000 1.0
C      1  0.5356810000000  0.3456030000000  0.3165950000000 1.0
C      1  0.4365840000000  0.3512540000000  0.6849380000000 1.0
C      1  0.3628050000000  0.4138780000000  0.3163140000000 1.0
C      1  0.3742970000000  0.3196410000000  0.4554490000000 1.0
C      1  0.2942420000000  0.4269390000000  0.5438480000000 1.0
C      1  0.2935300000000  0.5616760000000  0.4546960000000 1.0
C      1  0.3700770000000  0.6711690000000  0.5441770000000 1.0
C      1  0.4955700000000  0.7165820000000  0.4560330000000 1.0
C      1  0.6257030000000  0.6803590000000  0.5445510000000 1.0
C      1  0.7057580000000  0.5730610000000  0.4561520000000 1.0
C      1  0.7064700000000  0.4383240000000  0.5453040000000 1.0
C      1  0.6299230000000  0.3288310000000  0.4558230000000 1.0
C      1  0.5044300000000  0.2834180000000  0.5439670000000 1.0
C      1  0.4346220000000  0.4533990000000  0.5646270000000 1.0
C      1  0.4167240000000  0.5099630000000  0.4116830000000 1.0
C      1  0.4428970000000  0.5499080000000  0.5753260000000 1.0
C      1  0.4765510000000  0.5801470000000  0.4128410000000 1.0
C      1  0.5368060000000  0.5717240000000  0.5663330000000 1.0
C      1  0.5653780000000  0.5466010000000  0.4353730000000 1.0
C      1  0.5832760000000  0.4900370000000  0.5883170000000 1.0
C      1  0.5571030000000  0.4500920000000  0.4246740000000 1.0
C      1  0.5234490000000  0.4198530000000  0.5871590000000 1.0
C      1  0.4631940000000  0.4282760000000  0.4336670000000 1.0
C      1  0.4485760000000  0.7002050000000  0.5987790000000 1.0
C      1  0.5754660000000  0.6940120000000  0.4007270000000 1.0
C      1  0.6773900000000  0.6143860000000  0.5993550000000 1.0
C      1  0.7082470000000  0.4893790000000  0.4017670000000 1.0
C      1  0.6600280000000  0.3692160000000  0.6005770000000 1.0
C      1  0.5514240000000  0.2997950000000  0.4012210000000 1.0
C      1  0.4245340000000  0.3059880000000  0.5992730000000 1.0
C      1  0.3226100000000  0.3856140000000  0.4006450000000 1.0
C      1  0.2917530000000  0.5106210000000  0.5982330000000 1.0
C      1  0.3399720000000  0.6307840000000  0.3994230000000 1.0
C      1  0.3053200000000  0.5925920000000  0.5430190000000 1.0
C      1  0.3973210000000  0.6900300000000  0.4559060000000 1.0
C      1  0.5301050000000  0.7160070000000  0.5439990000000 1.0
C      1  0.6514970000000  0.6594970000000  0.4561860000000 1.0
C      1  0.7138990000000  0.5399670000000  0.5442250000000 1.0
C      1  0.6946800000000  0.4074080000000  0.4569810000000 1.0
C      1  0.6026790000000  0.3099700000000  0.5440940000000 1.0
C      1  0.4698950000000  0.2839930000000  0.4560010000000 1.0
C      1  0.3485030000000  0.3405030000000  0.5438140000000 1.0
C      1  0.2861010000000  0.4600330000000  0.4557750000000 1.0
C      1  0.3888910000000  0.4297810000000  0.6536050000000 1.0
C      1  0.3595670000000  0.5108400000000  0.3319680000000 1.0
C      1  0.4011000000000  0.5839190000000  0.6584830000000 1.0
C      1  0.4677510000000  0.6373480000000  0.3331870000000 1.0
C      1  0.5508560000000  0.6206850000000  0.6546240000000 1.0
C      1  0.6111090000000  0.5702190000000  0.3463950000000 1.0
C      1  0.6404330000000  0.4891600000000  0.6680320000000 1.0
C      1  0.5989000000000  0.4160810000000  0.3415170000000 1.0
C      1  0.5322490000000  0.3626520000000  0.6668130000000 1.0
C      1  0.4491440000000  0.3793150000000  0.3453760000000 1.0
END
