TITL C-1525613-7943-5687 0.0933597846952909 3375 -8942.49967010935 0 0 60 (C10) n - 1
REM
REM in /home/nfs/bkarasulu/CARBON/AIRSS/Generating-Clusters/ReaxFF-fromJPCA2015/Units_Real/Try2-Higher-symm/Only-C60
REM
REM
REM
REM
REM
REM ./C.cell (863b2abdce7293c0672fb3ba77bf323a)
REM AIRSS Version 0.9.1 bugfix July 2018 build 013d7b7c2542+ Fri, 06 Jul 2018 19:26:36 +0100
REM compiler GCC version 9.2.1 20190827 (Red Hat 9.2.1-1)
REM options -cpp -mtune=generic -march=x86-64 -g -O0 -fpre-include=/usr/include/finclude/math-vector-fortran.h
REM seed -273595401 -1930578914 -392302684 427160732 2126836044 -2135597609 -342792042 -456733541 -2060178989 -582006017 1154994428 1671364776 1040923222 -1803798000 1364534253 -200313588 -1848831236 -1923169168 -219467120 -1874951569 -1188112021 454172502 1222077821 1653793096 259267286 -1637024932 1076975134 -1112501682 -65928093 1466246638 1879768083 -935589429 143536874
REM
CELL 1.54180   15.00000   15.00000   15.00000   90.00000   90.00000   90.00000
LATT -1
SFAC C  
C      1  0.7019770000000  0.6456420000000  0.6239490000000 1.0
C      1  0.5778420000000  0.7372300000000  0.6241190000000 1.0
C      1  0.4236580000000  0.7378720000000  0.6238670000000 1.0
C      1  0.2985680000000  0.6477920000000  0.6239640000000 1.0
C      1  0.2509420000000  0.5008060000000  0.6240190000000 1.0
C      1  0.2980230000000  0.3543580000000  0.6239490000000 1.0
C      1  0.4221580000000  0.2627690000000  0.6241190000000 1.0
C      1  0.5763410000000  0.2621280000000  0.6238670000000 1.0
C      1  0.7014320000000  0.3522070000000  0.6239640000000 1.0
C      1  0.7490590000000  0.4991950000000  0.6240190000000 1.0
C      1  0.7522150000000  0.4169070000000  0.4788020000000 1.0
C      1  0.7528770000000  0.5812720000000  0.4786280000000 1.0
C      1  0.6569770000000  0.7146670000000  0.4789620000000 1.0
C      1  0.5010310000000  0.7661580000000  0.4787800000000 1.0
C      1  0.3440370000000  0.7160030000000  0.4785650000000 1.0
C      1  0.2477850000000  0.5830930000000  0.4788020000000 1.0
C      1  0.2471240000000  0.4187280000000  0.4786280000000 1.0
C      1  0.3430230000000  0.2853340000000  0.4789620000000 1.0
C      1  0.4989690000000  0.2338420000000  0.4787800000000 1.0
C      1  0.6559630000000  0.2839970000000  0.4785650000000 1.0
C      1  0.3637000000000  0.3166290000000  0.3901520000000 1.0
C      1  0.4975220000000  0.2701630000000  0.3894950000000 1.0
C      1  0.6325580000000  0.3128140000000  0.3895940000000 1.0
C      1  0.7165370000000  0.4271430000000  0.3897930000000 1.0
C      1  0.7187410000000  0.5684000000000  0.3892610000000 1.0
C      1  0.6363000000000  0.6833710000000  0.3901520000000 1.0
C      1  0.5024780000000  0.7298370000000  0.3894950000000 1.0
C      1  0.3674420000000  0.6871860000000  0.3895940000000 1.0
C      1  0.2834630000000  0.5728570000000  0.3897930000000 1.0
C      1  0.2812590000000  0.4316000000000  0.3892610000000 1.0
C      1  0.2950770000000  0.4342310000000  0.6583010000000 1.0
C      1  0.3727920000000  0.3259110000000  0.6580360000000 1.0
C      1  0.4994060000000  0.2837180000000  0.6581980000000 1.0
C      1  0.6264910000000  0.3243470000000  0.6581500000000 1.0
C      1  0.7049300000000  0.4323220000000  0.6577460000000 1.0
C      1  0.7049210000000  0.5657720000000  0.6583010000000 1.0
C      1  0.6272080000000  0.6740880000000  0.6580360000000 1.0
C      1  0.5005960000000  0.7162820000000  0.6581980000000 1.0
C      1  0.3735080000000  0.6756520000000  0.6581490000000 1.0
C      1  0.2950700000000  0.5676780000000  0.6577450000000 1.0
C      1  0.5834440000000  0.7542570000000  0.5284150000000 1.0
C      1  0.4181560000000  0.7545220000000  0.5281140000000 1.0
C      1  0.2842600000000  0.6580600000000  0.5282380000000 1.0
C      1  0.2329560000000  0.5008720000000  0.5282490000000 1.0
C      1  0.2834150000000  0.3437660000000  0.5283010000000 1.0
C      1  0.4165560000000  0.2457430000000  0.5284140000000 1.0
C      1  0.5818440000000  0.2454770000000  0.5281140000000 1.0
C      1  0.7157390000000  0.3419410000000  0.5282370000000 1.0
C      1  0.7670440000000  0.4991270000000  0.5282490000000 1.0
C      1  0.7165860000000  0.6562340000000  0.5283010000000 1.0
C      1  0.6057420000000  0.3678540000000  0.3210140000000 1.0
C      1  0.6621740000000  0.4556310000000  0.3212830000000 1.0
C      1  0.6570140000000  0.5594820000000  0.3213870000000 1.0
C      1  0.5919140000000  0.6410860000000  0.3216520000000 1.0
C      1  0.4915820000000  0.6693030000000  0.3209690000000 1.0
C      1  0.3942580000000  0.6321460000000  0.3210140000000 1.0
C      1  0.3378260000000  0.5443680000000  0.3212830000000 1.0
C      1  0.3429860000000  0.4405170000000  0.3213870000000 1.0
C      1  0.4080850000000  0.3589140000000  0.3216520000000 1.0
C      1  0.5084180000000  0.3306970000000  0.3209690000000 1.0
END
