TITL C-1525613-7943-1127 0.000725997280422389 3375 -9643.90457050097 0 0 60 (C1) n - 1
REM
REM in /home/nfs/bkarasulu/CARBON/AIRSS/Generating-Clusters/ReaxFF-fromJPCA2015/Units_Real/Try2-Higher-symm/Only-C60
REM
REM
REM
REM
REM
REM ./C.cell (863b2abdce7293c0672fb3ba77bf323a)
REM AIRSS Version 0.9.1 bugfix July 2018 build 013d7b7c2542+ Fri, 06 Jul 2018 19:26:36 +0100
REM compiler GCC version 9.2.1 20190827 (Red Hat 9.2.1-1)
REM options -cpp -mtune=generic -march=x86-64 -g -O0 -fpre-include=/usr/include/finclude/math-vector-fortran.h
REM seed -1104924734 -141526303 570706685 -1878690734 -1157129639 -1815860704 -272039529 -105469936 -1033812679 831605645 234142902 -904573263 977962175 155872308 1312600307 -975423890 -1827774834 163894441 1857586005 -124744657 700609701 2132171892 464405562 -442655052 1623988519 580038352 -1261379274 1501541574 -961114 -2138156996 1190349793 -536387153 714541874
REM
CELL 1.54180   15.00000   15.00000   15.00000   90.00000   90.00000   90.00000
LATT -1
SFAC C  
C      1  0.7119030000000  0.6440780000000  0.5490810000000 1.0
C      1  0.7063270000000  0.3436850000000  0.5484360000000 1.0
C      1  0.4159810000000  0.2565070000000  0.5463280000000 1.0
C      1  0.2423920000000  0.5062950000000  0.5474610000000 1.0
C      1  0.4284620000000  0.7471580000000  0.5497310000000 1.0
C      1  0.7103540000000  0.6460540000000  0.4546710000000 1.0
C      1  0.7021160000000  0.3433430000000  0.4513720000000 1.0
C      1  0.4130620000000  0.2582670000000  0.4493210000000 1.0
C      1  0.2402240000000  0.5064150000000  0.4491130000000 1.0
C      1  0.4246390000000  0.7479650000000  0.4528050000000 1.0
C      1  0.6854010000000  0.4117580000000  0.6157530000000 1.0
C      1  0.4749640000000  0.2982410000000  0.6126800000000 1.0
C      1  0.3006540000000  0.4625590000000  0.6122240000000 1.0
C      1  0.4054240000000  0.6809000000000  0.6121540000000 1.0
C      1  0.6433650000000  0.6473890000000  0.6133080000000 1.0
C      1  0.6824480000000  0.4101940000000  0.3881850000000 1.0
C      1  0.4699630000000  0.2973520000000  0.3858560000000 1.0
C      1  0.2966990000000  0.4630740000000  0.3829320000000 1.0
C      1  0.4016420000000  0.6788830000000  0.3870740000000 1.0
C      1  0.6388970000000  0.6475450000000  0.3893630000000 1.0
C      1  0.5535690000000  0.4404470000000  0.2892880000000 1.0
C      1  0.4584380000000  0.4295210000000  0.2861590000000 1.0
C      1  0.4196730000000  0.5180790000000  0.2860360000000 1.0
C      1  0.4921070000000  0.5807520000000  0.2890910000000 1.0
C      1  0.5728770000000  0.5325160000000  0.2909080000000 1.0
C      1  0.5550260000000  0.4393450000000  0.7137070000000 1.0
C      1  0.4591770000000  0.4302380000000  0.7122810000000 1.0
C      1  0.4218460000000  0.5181350000000  0.7097690000000 1.0
C      1  0.4919300000000  0.5807790000000  0.7106540000000 1.0
C      1  0.5752030000000  0.5335980000000  0.7136370000000 1.0
C      1  0.5612300000000  0.6947600000000  0.6128630000000 1.0
C      1  0.7067940000000  0.5041260000000  0.6167950000000 1.0
C      1  0.5691100000000  0.3076920000000  0.6140770000000 1.0
C      1  0.3386320000000  0.3755410000000  0.6119670000000 1.0
C      1  0.3348260000000  0.6170970000000  0.6106080000000 1.0
C      1  0.5571560000000  0.6961940000000  0.3878130000000 1.0
C      1  0.7031270000000  0.5028810000000  0.3877460000000 1.0
C      1  0.5640120000000  0.3075730000000  0.3874630000000 1.0
C      1  0.3354770000000  0.3765510000000  0.3840100000000 1.0
C      1  0.3306630000000  0.6160060000000  0.3865560000000 1.0
C      1  0.3421210000000  0.5344360000000  0.3388780000000 1.0
C      1  0.4830560000000  0.6582490000000  0.3418930000000 1.0
C      1  0.6437520000000  0.5634660000000  0.3435150000000 1.0
C      1  0.6042890000000  0.3814970000000  0.3424280000000 1.0
C      1  0.4180000000000  0.3614850000000  0.3391970000000 1.0
C      1  0.3465370000000  0.5338100000000  0.6564910000000 1.0
C      1  0.4855520000000  0.6582100000000  0.6579450000000 1.0
C      1  0.6482150000000  0.5651020000000  0.6609330000000 1.0
C      1  0.6073250000000  0.3809920000000  0.6604980000000 1.0
C      1  0.4204510000000  0.3620330000000  0.6580270000000 1.0
C      1  0.6326170000000  0.2804110000000  0.5506600000000 1.0
C      1  0.3326590000000  0.3064630000000  0.5486150000000 1.0
C      1  0.2651580000000  0.6014650000000  0.5451750000000 1.0
C      1  0.5250050000000  0.7580050000000  0.5472110000000 1.0
C      1  0.7536830000000  0.5578500000000  0.5507140000000 1.0
C      1  0.6301570000000  0.2781140000000  0.4536250000000 1.0
C      1  0.3284080000000  0.3058890000000  0.4515310000000 1.0
C      1  0.2641160000000  0.5991810000000  0.4507480000000 1.0
C      1  0.5214400000000  0.7565020000000  0.4502630000000 1.0
C      1  0.7516670000000  0.5573460000000  0.4523790000000 1.0
END
