TITL C-1525613-7943-1062 0.0643660055596938 3375 -8736.81583417757 0 0 60 (C5) n - 1
REM
REM in /home/nfs/bkarasulu/CARBON/AIRSS/Generating-Clusters/ReaxFF-fromJPCA2015/Units_Real/Try2-Higher-symm/Only-C60
REM
REM
REM
REM
REM
REM ./C.cell (863b2abdce7293c0672fb3ba77bf323a)
REM AIRSS Version 0.9.1 bugfix July 2018 build 013d7b7c2542+ Fri, 06 Jul 2018 19:26:36 +0100
REM compiler GCC version 9.2.1 20190827 (Red Hat 9.2.1-1)
REM options -cpp -mtune=generic -march=x86-64 -g -O0 -fpre-include=/usr/include/finclude/math-vector-fortran.h
REM seed 1858676714 -480563265 -1520497440 -226109749 750606453 -395384158 1836673252 1826795599 -1759019375 -1978427485 1900327296 764216622 2073041370 -671665278 -168158072 -1531947234 -474952139 -357301563 617456277 1887424147 1321623829 2053576100 -925351529 -1337890119 1149725925 -1216902695 -1230808833 1091662575 -2018421147 1206591922 762775842 -28220527 734197914
REM
CELL 1.54180   15.00000   15.00000   15.00000   90.00000   90.00000   90.00000
LATT -1
SFAC C  
C      1  0.6099830000000  0.5241490000000  0.2873620000000 1.0
C      1  0.6098660000000  0.3053820000000  0.4114490000000 1.0
C      1  0.6097530000000  0.3555310000000  0.6577590000000 1.0
C      1  0.6097280000000  0.6054200000000  0.6861380000000 1.0
C      1  0.6099300000000  0.7098060000000  0.4572860000000 1.0
C      1  0.3900170000000  0.5241490000000  0.2873620000000 1.0
C      1  0.3901340000000  0.3053820000000  0.4114490000000 1.0
C      1  0.3902470000000  0.3555310000000  0.6577590000000 1.0
C      1  0.3902720000000  0.6054200000000  0.6861380000000 1.0
C      1  0.3900700000000  0.7098060000000  0.4572860000000 1.0
C      1  0.4481920000000  0.4694650000000  0.4203600000000 1.0
C      1  0.4481860000000  0.4146630000000  0.5049000000000 1.0
C      1  0.4488830000000  0.4784860000000  0.5825960000000 1.0
C      1  0.4493260000000  0.5716380000000  0.5464470000000 1.0
C      1  0.4488740000000  0.5665080000000  0.4466320000000 1.0
C      1  0.5518080000000  0.4694650000000  0.4203600000000 1.0
C      1  0.5518140000000  0.4146630000000  0.5049000000000 1.0
C      1  0.5511170000000  0.4784860000000  0.5825960000000 1.0
C      1  0.5506740000000  0.5716380000000  0.5464470000000 1.0
C      1  0.5511260000000  0.5665080000000  0.4466320000000 1.0
C      1  0.3091710000000  0.4710880000000  0.6535480000000 1.0
C      1  0.3094780000000  0.6370810000000  0.5749020000000 1.0
C      1  0.3092260000000  0.6137640000000  0.3927000000000 1.0
C      1  0.3089190000000  0.4331210000000  0.3584550000000 1.0
C      1  0.3088290000000  0.3448150000000  0.5199030000000 1.0
C      1  0.6908290000000  0.4710880000000  0.6535480000000 1.0
C      1  0.6905220000000  0.6370810000000  0.5749020000000 1.0
C      1  0.6907740000000  0.6137640000000  0.3927000000000 1.0
C      1  0.6910810000000  0.4331210000000  0.3584550000000 1.0
C      1  0.6911710000000  0.3448150000000  0.5199030000000 1.0
C      1  0.3083760000000  0.3592140000000  0.4230170000000 1.0
C      1  0.3085100000000  0.3832870000000  0.6102190000000 1.0
C      1  0.3085830000000  0.5686870000000  0.6450470000000 1.0
C      1  0.3083020000000  0.6593210000000  0.4794690000000 1.0
C      1  0.3083260000000  0.5297360000000  0.3422550000000 1.0
C      1  0.6916240000000  0.3592140000000  0.4230170000000 1.0
C      1  0.6914900000000  0.3832870000000  0.6102190000000 1.0
C      1  0.6914170000000  0.5686870000000  0.6450470000000 1.0
C      1  0.6916980000000  0.6593210000000  0.4794690000000 1.0
C      1  0.6916740000000  0.5297360000000  0.3422550000000 1.0
C      1  0.4061160000000  0.6559340000000  0.5976880000000 1.0
C      1  0.4057050000000  0.6417270000000  0.3815160000000 1.0
C      1  0.4052010000000  0.4308060000000  0.3280230000000 1.0
C      1  0.4049280000000  0.3147010000000  0.5129110000000 1.0
C      1  0.4057920000000  0.4553010000000  0.6790440000000 1.0
C      1  0.5938840000000  0.6559340000000  0.5976880000000 1.0
C      1  0.5942950000000  0.6417270000000  0.3815160000000 1.0
C      1  0.5947990000000  0.4308060000000  0.3280230000000 1.0
C      1  0.5950720000000  0.3147010000000  0.5129110000000 1.0
C      1  0.5942080000000  0.4553010000000  0.6790440000000 1.0
C      1  0.5476680000000  0.5404010000000  0.7223060000000 1.0
C      1  0.5476860000000  0.7236660000000  0.5302020000000 1.0
C      1  0.5476330000000  0.5978010000000  0.2968620000000 1.0
C      1  0.5476860000000  0.3371300000000  0.3441820000000 1.0
C      1  0.5476640000000  0.3013700000000  0.6068210000000 1.0
C      1  0.4523320000000  0.5404010000000  0.7223060000000 1.0
C      1  0.4523140000000  0.7236660000000  0.5302020000000 1.0
C      1  0.4523670000000  0.5978010000000  0.2968620000000 1.0
C      1  0.4523140000000  0.3371300000000  0.3441820000000 1.0
C      1  0.4523360000000  0.3013700000000  0.6068210000000 1.0
END
