TITL C-1525613-7943-5772 0.00103852016974869 3375 -9387.82812887733 0 0 60 (C2) n - 1
REM
REM in /home/nfs/bkarasulu/CARBON/AIRSS/Generating-Clusters/ReaxFF-fromJPCA2015/Units_Real/Try2-Higher-symm/Only-C60
REM
REM
REM
REM
REM
REM ./C.cell (863b2abdce7293c0672fb3ba77bf323a)
REM AIRSS Version 0.9.1 bugfix July 2018 build 013d7b7c2542+ Fri, 06 Jul 2018 19:26:36 +0100
REM compiler GCC version 9.2.1 20190827 (Red Hat 9.2.1-1)
REM options -cpp -mtune=generic -march=x86-64 -g -O0 -fpre-include=/usr/include/finclude/math-vector-fortran.h
REM seed 566048020 760768025 471237938 -1203150346 828721451 768760835 178668396 802752312 -1213158597 -24096583 -484081037 -1256667620 1395555922 1456983930 -1851765069 -747567259 -1680292745 395756996 -564801785 1273012759 -1999570301 385927905 -1093463707 -2054394713 -1452271047 1323330724 1387850185 2143957578 849418333 -1777396661 -1211333049 1865285505 973742165
REM
CELL 1.54180   15.00000   15.00000   15.00000   90.00000   90.00000   90.00000
LATT -1
SFAC C  
C      1  0.3425380000000  0.4203140000000  0.3712660000000 1.0
C      1  0.3343770000000  0.3559770000000  0.4439590000000 1.0
C      1  0.3411730000000  0.3540100000000  0.5412080000000 1.0
C      1  0.3194540000000  0.4004120000000  0.6240250000000 1.0
C      1  0.3189400000000  0.4906410000000  0.6587810000000 1.0
C      1  0.3415260000000  0.5801860000000  0.6278480000000 1.0
C      1  0.3343050000000  0.6444510000000  0.5550720000000 1.0
C      1  0.3420910000000  0.6463210000000  0.4578470000000 1.0
C      1  0.3204990000000  0.6006930000000  0.3745640000000 1.0
C      1  0.3199090000000  0.5095590000000  0.3394490000000 1.0
C      1  0.7184050000000  0.4543720000000  0.6407790000000 1.0
C      1  0.7166180000000  0.5357480000000  0.5924720000000 1.0
C      1  0.6836010000000  0.6179940000000  0.5754340000000 1.0
C      1  0.6891500000000  0.6732290000000  0.4874360000000 1.0
C      1  0.6893210000000  0.6385340000000  0.3968820000000 1.0
C      1  0.7181950000000  0.5455500000000  0.3589210000000 1.0
C      1  0.7162350000000  0.4638950000000  0.4069260000000 1.0
C      1  0.6837310000000  0.3815560000000  0.4245150000000 1.0
C      1  0.6893920000000  0.3263700000000  0.5126610000000 1.0
C      1  0.6895840000000  0.3611380000000  0.6031360000000 1.0
C      1  0.6102750000000  0.6307550000000  0.6417030000000 1.0
C      1  0.6103740000000  0.7283290000000  0.4685570000000 1.0
C      1  0.6053600000000  0.6845730000000  0.3764400000000 1.0
C      1  0.6538790000000  0.5127710000000  0.2978350000000 1.0
C      1  0.6006080000000  0.4400990000000  0.2860950000000 1.0
C      1  0.6101980000000  0.3693930000000  0.3585490000000 1.0
C      1  0.6105460000000  0.2713240000000  0.5316040000000 1.0
C      1  0.6057070000000  0.3149520000000  0.6236250000000 1.0
C      1  0.6544490000000  0.4878020000000  0.7019310000000 1.0
C      1  0.6009660000000  0.5603910000000  0.7141400000000 1.0
C      1  0.5056620000000  0.5919020000000  0.2586480000000 1.0
C      1  0.5235920000000  0.4954490000000  0.2522520000000 1.0
C      1  0.5440830000000  0.3030720000000  0.3770880000000 1.0
C      1  0.5409290000000  0.2586150000000  0.4647320000000 1.0
C      1  0.5262560000000  0.3377560000000  0.6766620000000 1.0
C      1  0.5087910000000  0.4072180000000  0.7438050000000 1.0
C      1  0.5238180000000  0.5045010000000  0.7474040000000 1.0
C      1  0.5439130000000  0.6967650000000  0.6230600000000 1.0
C      1  0.5409900000000  0.7414660000000  0.5355310000000 1.0
C      1  0.5259020000000  0.6626150000000  0.3233760000000 1.0
C      1  0.4395730000000  0.2968510000000  0.6547010000000 1.0
C      1  0.4133750000000  0.3983300000000  0.7650130000000 1.0
C      1  0.4362720000000  0.5480330000000  0.7540920000000 1.0
C      1  0.4512570000000  0.6943760000000  0.6576100000000 1.0
C      1  0.4471910000000  0.7560840000000  0.5133300000000 1.0
C      1  0.4405380000000  0.7066990000000  0.3452790000000 1.0
C      1  0.4097400000000  0.6000040000000  0.2395550000000 1.0
C      1  0.4371640000000  0.4495200000000  0.2435640000000 1.0
C      1  0.4514600000000  0.3050290000000  0.3423390000000 1.0
C      1  0.4471370000000  0.2444910000000  0.4871020000000 1.0
C      1  0.4044400000000  0.7182680000000  0.4348260000000 1.0
C      1  0.3676730000000  0.6550500000000  0.3073620000000 1.0
C      1  0.3657330000000  0.5144280000000  0.2524270000000 1.0
C      1  0.4057500000000  0.3823300000000  0.3065230000000 1.0
C      1  0.3928680000000  0.2823240000000  0.4158370000000 1.0
C      1  0.4041770000000  0.2828180000000  0.5653250000000 1.0
C      1  0.3669770000000  0.3490500000000  0.6951490000000 1.0
C      1  0.3652180000000  0.4809830000000  0.7466100000000 1.0
C      1  0.4053170000000  0.6169140000000  0.6929320000000 1.0
C      1  0.3927950000000  0.7177180000000  0.5842060000000 1.0
END
