TITL C-1525613-7943-3960 0.00234685535705461 3375 -8770.80083105112 0 0 60 (Cs) n - 1
REM
REM in /home/nfs/bkarasulu/CARBON/AIRSS/Generating-Clusters/ReaxFF-fromJPCA2015/Units_Real/Try2-Higher-symm/Only-C60
REM
REM
REM
REM
REM
REM ./C.cell (863b2abdce7293c0672fb3ba77bf323a)
REM AIRSS Version 0.9.1 bugfix July 2018 build 013d7b7c2542+ Fri, 06 Jul 2018 19:26:36 +0100
REM compiler GCC version 9.2.1 20190827 (Red Hat 9.2.1-1)
REM options -cpp -mtune=generic -march=x86-64 -g -O0 -fpre-include=/usr/include/finclude/math-vector-fortran.h
REM seed 1405661891 1210526816 2095606491 -853997344 -654896436 1174671740 356181198 -1901122132 2136466479 1734943424 229423238 -1680511621 750695257 -828256246 2095377033 -1388617357 616149545 -470196373 -89200702 -972995657 1559870126 1724634877 -1689497309 93045408 -722610549 -245933685 1999608886 2115422687 -259332189 -183445457 -780296537 -1484837060 1302839799
REM
CELL 1.54180   15.00000   15.00000   15.00000   90.00000   90.00000   90.00000
LATT -1
SFAC C  
C      1  0.2857100000000  0.3805470000000  0.5478530000000 1.0
C      1  0.3202430000000  0.6668280000000  0.5477970000000 1.0
C      1  0.6032510000000  0.7224760000000  0.5478620000000 1.0
C      1  0.7436670000000  0.4704770000000  0.5480730000000 1.0
C      1  0.5472980000000  0.2592070000000  0.5479650000000 1.0
C      1  0.7142820000000  0.3805450000000  0.5478450000000 1.0
C      1  0.6797580000000  0.6668190000000  0.5477880000000 1.0
C      1  0.3967600000000  0.7224720000000  0.5478510000000 1.0
C      1  0.2563380000000  0.4704820000000  0.5480660000000 1.0
C      1  0.4527000000000  0.2592140000000  0.5479570000000 1.0
C      1  0.3413750000000  0.4994440000000  0.6944800000000 1.0
C      1  0.4504570000000  0.6506770000000  0.6943780000000 1.0
C      1  0.6279560000000  0.5936450000000  0.6943020000000 1.0
C      1  0.6286040000000  0.4072410000000  0.6943180000000 1.0
C      1  0.4515190000000  0.3489710000000  0.6944220000000 1.0
C      1  0.6586260000000  0.4994450000000  0.6944840000000 1.0
C      1  0.5495430000000  0.6506780000000  0.6943830000000 1.0
C      1  0.3720420000000  0.5936460000000  0.6943070000000 1.0
C      1  0.3713950000000  0.4072390000000  0.6943210000000 1.0
C      1  0.5484810000000  0.3489700000000  0.6944270000000 1.0
C      1  0.5482230000000  0.3515710000000  0.2865190000000 1.0
C      1  0.3738210000000  0.4082070000000  0.2850910000000 1.0
C      1  0.3737400000000  0.5916580000000  0.2850610000000 1.0
C      1  0.5480840000000  0.6484410000000  0.2864090000000 1.0
C      1  0.6555670000000  0.5000580000000  0.2881000000000 1.0
C      1  0.4517650000000  0.3515560000000  0.2863620000000 1.0
C      1  0.6261690000000  0.4081990000000  0.2849990000000 1.0
C      1  0.6262490000000  0.5916580000000  0.2849650000000 1.0
C      1  0.4519080000000  0.6484630000000  0.2862260000000 1.0
C      1  0.3444120000000  0.5000630000000  0.2879920000000 1.0
C      1  0.5924750000000  0.2883880000000  0.6289960000000 1.0
C      1  0.3274270000000  0.3466280000000  0.6289030000000 1.0
C      1  0.3008530000000  0.6166860000000  0.6288650000000 1.0
C      1  0.5495260000000  0.7254780000000  0.6288820000000 1.0
C      1  0.7298300000000  0.5225220000000  0.6290590000000 1.0
C      1  0.4075230000000  0.2883930000000  0.6289900000000 1.0
C      1  0.6725700000000  0.3466280000000  0.6288990000000 1.0
C      1  0.6991470000000  0.6166810000000  0.6288610000000 1.0
C      1  0.4504790000000  0.7254750000000  0.6288750000000 1.0
C      1  0.2701730000000  0.5225260000000  0.6290530000000 1.0
C      1  0.6322220000000  0.5969100000000  0.3852700000000 1.0
C      1  0.6328750000000  0.4041870000000  0.3853120000000 1.0
C      1  0.4498920000000  0.3450400000000  0.3864300000000 1.0
C      1  0.3376890000000  0.4996770000000  0.3873810000000 1.0
C      1  0.4489760000000  0.6549710000000  0.3862310000000 1.0
C      1  0.3678150000000  0.5968750000000  0.3853560000000 1.0
C      1  0.3671780000000  0.4041950000000  0.3853950000000 1.0
C      1  0.5501150000000  0.3450950000000  0.3865130000000 1.0
C      1  0.6622650000000  0.4996910000000  0.3874510000000 1.0
C      1  0.5510110000000  0.6549190000000  0.3863240000000 1.0
C      1  0.5526780000000  0.7440720000000  0.4563960000000 1.0
C      1  0.7483070000000  0.5253310000000  0.4566430000000 1.0
C      1  0.6008180000000  0.2717120000000  0.4564800000000 1.0
C      1  0.3137120000000  0.3332670000000  0.4563620000000 1.0
C      1  0.2837480000000  0.6256890000000  0.4563260000000 1.0
C      1  0.4473230000000  0.7440670000000  0.4563800000000 1.0
C      1  0.2516890000000  0.5253280000000  0.4566330000000 1.0
C      1  0.3991880000000  0.2717130000000  0.4564650000000 1.0
C      1  0.6862940000000  0.3332670000000  0.4563510000000 1.0
C      1  0.7162600000000  0.6256910000000  0.4563160000000 1.0
END
