TITL C-1525613-7943-7525 0.00535314977534716 3375 -9228.43665187969 0 0 60 (C1) n - 1
REM
REM in /home/nfs/bkarasulu/CARBON/AIRSS/Generating-Clusters/ReaxFF-fromJPCA2015/Units_Real/Try2-Higher-symm/Only-C60
REM
REM
REM
REM
REM
REM ./C.cell (863b2abdce7293c0672fb3ba77bf323a)
REM AIRSS Version 0.9.1 bugfix July 2018 build 013d7b7c2542+ Fri, 06 Jul 2018 19:26:36 +0100
REM compiler GCC version 9.2.1 20190827 (Red Hat 9.2.1-1)
REM options -cpp -mtune=generic -march=x86-64 -g -O0 -fpre-include=/usr/include/finclude/math-vector-fortran.h
REM seed -645728875 1529602499 917572440 -1863160993 -1306363220 1346017216 -556075062 -1674570298 -923362149 -496937975 1611429019 -1148918754 568652757 -701313191 -1146479621 1110228534 -726359863 -264473004 -1071008083 1982746494 1800867988 -1387456183 1372283384 2145397794 -1307890085 -704899478 1653830915 -1201756747 -1694472676 1703080693 356674595 1954147704 1548301598
REM
CELL 1.54180   15.00000   15.00000   15.00000   90.00000   90.00000   90.00000
LATT -1
SFAC C  
C      1  0.6479060000000  0.3173740000000  0.4545650000000 1.0
C      1  0.5966370000000  0.3180060000000  0.3709080000000 1.0
C      1  0.5039390000000  0.3173970000000  0.3418600000000 1.0
C      1  0.4112720000000  0.3193150000000  0.3743230000000 1.0
C      1  0.3433480000000  0.3118670000000  0.4459480000000 1.0
C      1  0.3498960000000  0.3130020000000  0.5455550000000 1.0
C      1  0.4026470000000  0.3158090000000  0.6291650000000 1.0
C      1  0.4942070000000  0.3162440000000  0.6639500000000 1.0
C      1  0.5859090000000  0.3158740000000  0.6296570000000 1.0
C      1  0.6493200000000  0.3032910000000  0.5535220000000 1.0
C      1  0.7461650000000  0.4605850000000  0.5867080000000 1.0
C      1  0.7352580000000  0.4674000000000  0.4738840000000 1.0
C      1  0.6232790000000  0.4648490000000  0.2828140000000 1.0
C      1  0.5328300000000  0.4618760000000  0.2539990000000 1.0
C      1  0.3473220000000  0.4658320000000  0.3389250000000 1.0
C      1  0.2777240000000  0.4681380000000  0.4090520000000 1.0
C      1  0.2762860000000  0.4648450000000  0.5190620000000 1.0
C      1  0.3708450000000  0.4626720000000  0.7181550000000 1.0
C      1  0.4617020000000  0.4638930000000  0.7510770000000 1.0
C      1  0.6682570000000  0.4656570000000  0.6653850000000 1.0
C      1  0.6895820000000  0.5979300000000  0.3686400000000 1.0
C      1  0.5684010000000  0.6123250000000  0.2753960000000 1.0
C      1  0.4347620000000  0.5869180000000  0.2853150000000 1.0
C      1  0.3163850000000  0.6162650000000  0.3480590000000 1.0
C      1  0.2570550000000  0.6168040000000  0.4850200000000 1.0
C      1  0.3070800000000  0.5951860000000  0.6261960000000 1.0
C      1  0.4186270000000  0.6148320000000  0.7217520000000 1.0
C      1  0.5658530000000  0.5963190000000  0.7138350000000 1.0
C      1  0.6936190000000  0.6202920000000  0.6407170000000 1.0
C      1  0.7441100000000  0.6197030000000  0.5086960000000 1.0
C      1  0.7052260000000  0.3931380000000  0.4211910000000 1.0
C      1  0.6551570000000  0.3894240000000  0.3353070000000 1.0
C      1  0.4802980000000  0.3879260000000  0.2784630000000 1.0
C      1  0.3937280000000  0.3905540000000  0.3131450000000 1.0
C      1  0.2619700000000  0.3624900000000  0.4269780000000 1.0
C      1  0.2943490000000  0.3891710000000  0.5763190000000 1.0
C      1  0.3428630000000  0.3869980000000  0.6637680000000 1.0
C      1  0.5189100000000  0.3885090000000  0.7280500000000 1.0
C      1  0.6111880000000  0.3917720000000  0.6893150000000 1.0
C      1  0.7133450000000  0.3713220000000  0.5721080000000 1.0
C      1  0.3673700000000  0.6617210000000  0.5868440000000 1.0
C      1  0.4450950000000  0.6706420000000  0.6459010000000 1.0
C      1  0.5421560000000  0.6588740000000  0.6421330000000 1.0
C      1  0.6244360000000  0.6745520000000  0.5923630000000 1.0
C      1  0.6608770000000  0.6760730000000  0.5028250000000 1.0
C      1  0.6344650000000  0.6653360000000  0.4108670000000 1.0
C      1  0.5520460000000  0.6728690000000  0.3551860000000 1.0
C      1  0.4648090000000  0.6772870000000  0.3850120000000 1.0
C      1  0.3754050000000  0.6766260000000  0.4069870000000 1.0
C      1  0.3341460000000  0.6758610000000  0.4970890000000 1.0
C      1  0.7529170000000  0.5677920000000  0.5877250000000 1.0
C      1  0.7474640000000  0.5535860000000  0.4347960000000 1.0
C      1  0.6455870000000  0.5582390000000  0.2935250000000 1.0
C      1  0.5034480000000  0.5531160000000  0.2473980000000 1.0
C      1  0.3592770000000  0.5502800000000  0.2985670000000 1.0
C      1  0.2548040000000  0.5677890000000  0.4032160000000 1.0
C      1  0.2541170000000  0.5499980000000  0.5571840000000 1.0
C      1  0.3425520000000  0.5562180000000  0.7066460000000 1.0
C      1  0.4889060000000  0.5582680000000  0.7574260000000 1.0
C      1  0.6528680000000  0.5530630000000  0.7015240000000 1.0
END
