TITL C-1525613-7943-6775 -0.0566719859776365 3375 -8113.21126825832 0 0 60 (D5) n - 1
REM
REM in /home/nfs/bkarasulu/CARBON/AIRSS/Generating-Clusters/ReaxFF-fromJPCA2015/Units_Real/Try2-Higher-symm/Only-C60
REM
REM
REM
REM
REM
REM ./C.cell (863b2abdce7293c0672fb3ba77bf323a)
REM AIRSS Version 0.9.1 bugfix July 2018 build 013d7b7c2542+ Fri, 06 Jul 2018 19:26:36 +0100
REM compiler GCC version 9.2.1 20190827 (Red Hat 9.2.1-1)
REM options -cpp -mtune=generic -march=x86-64 -g -O0 -fpre-include=/usr/include/finclude/math-vector-fortran.h
REM seed 280431396 750500295 -358558507 537919356 -265859747 -1388864429 1786453259 -1408139395 1297167272 -387209506 -486021488 -937856371 1422918848 -1248149704 1135714226 616896610 -586148893 1690053651 -20605316 1586321425 -2084820392 1789750154 1965184011 -445558150 221387113 925880107 784169600 557279182 -1898444114 -701974571 447687342 -1240459871 -2133329019
REM
CELL 1.54180   15.00000   15.00000   15.00000   90.00000   90.00000   90.00000
LATT -1
SFAC C  
C      1  0.3657440000000  0.4859000000000  0.3965170000000 1.0
C      1  0.5568380000000  0.4858120000000  0.3403860000000 1.0
C      1  0.6694520000000  0.4858690000000  0.5047220000000 1.0
C      1  0.5477980000000  0.4858940000000  0.6626550000000 1.0
C      1  0.3601630000000  0.4857360000000  0.5956440000000 1.0
C      1  0.6342560000000  0.5141000000000  0.3965170000000 1.0
C      1  0.4431620000000  0.5141880000000  0.3403860000000 1.0
C      1  0.3305480000000  0.5141310000000  0.5047220000000 1.0
C      1  0.4522020000000  0.5141060000000  0.6626550000000 1.0
C      1  0.6398370000000  0.5142640000000  0.5956440000000 1.0
C      1  0.5666100000000  0.6215710000000  0.6617030000000 1.0
C      1  0.3668310000000  0.6215900000000  0.6135800000000 1.0
C      1  0.3511900000000  0.6216450000000  0.4082110000000 1.0
C      1  0.5410350000000  0.6215990000000  0.3298620000000 1.0
C      1  0.6743810000000  0.6216740000000  0.4866910000000 1.0
C      1  0.4333900000000  0.3784290000000  0.6617030000000 1.0
C      1  0.6331690000000  0.3784100000000  0.6135800000000 1.0
C      1  0.6488100000000  0.3783550000000  0.4082110000000 1.0
C      1  0.4589650000000  0.3784010000000  0.3298620000000 1.0
C      1  0.3256190000000  0.3783260000000  0.4866910000000 1.0
C      1  0.2953090000000  0.6035610000000  0.4861840000000 1.0
C      1  0.4496370000000  0.6036220000000  0.3010680000000 1.0
C      1  0.6736680000000  0.6035600000000  0.3908430000000 1.0
C      1  0.6576270000000  0.6035790000000  0.6313370000000 1.0
C      1  0.4238430000000  0.6035830000000  0.6905590000000 1.0
C      1  0.7046910000000  0.3964390000000  0.4861840000000 1.0
C      1  0.5503630000000  0.3963780000000  0.3010680000000 1.0
C      1  0.3263320000000  0.3964400000000  0.3908430000000 1.0
C      1  0.3423730000000  0.3964210000000  0.6313370000000 1.0
C      1  0.5761570000000  0.3964170000000  0.6905590000000 1.0
C      1  0.6660090000000  0.3039970000000  0.4689120000000 1.0
C      1  0.5808120000000  0.3039140000000  0.6484050000000 1.0
C      1  0.3839800000000  0.3039770000000  0.6226710000000 1.0
C      1  0.3474470000000  0.3039480000000  0.4275450000000 1.0
C      1  0.5218070000000  0.3039250000000  0.3324920000000 1.0
C      1  0.3339910000000  0.6960030000000  0.4689120000000 1.0
C      1  0.4191880000000  0.6960860000000  0.6484050000000 1.0
C      1  0.6160200000000  0.6960230000000  0.6226710000000 1.0
C      1  0.6525530000000  0.6960520000000  0.4275450000000 1.0
C      1  0.4781930000000  0.6960750000000  0.3324920000000 1.0
C      1  0.4766800000000  0.4039840000000  0.5742940000000 1.0
C      1  0.4220030000000  0.4039270000000  0.5009950000000 1.0
C      1  0.4750140000000  0.4037630000000  0.4263460000000 1.0
C      1  0.5625490000000  0.4039300000000  0.4533950000000 1.0
C      1  0.5634920000000  0.4036520000000  0.5450070000000 1.0
C      1  0.5233200000000  0.5960160000000  0.5742940000000 1.0
C      1  0.5779970000000  0.5960730000000  0.5009950000000 1.0
C      1  0.5249860000000  0.5962370000000  0.4263460000000 1.0
C      1  0.4374510000000  0.5960700000000  0.4533950000000 1.0
C      1  0.4365080000000  0.5963480000000  0.5450070000000 1.0
C      1  0.4870040000000  0.7452360000000  0.4167790000000 1.0
C      1  0.5751430000000  0.7452480000000  0.4619010000000 1.0
C      1  0.5594100000000  0.7452320000000  0.5596820000000 1.0
C      1  0.4615580000000  0.7452050000000  0.5749920000000 1.0
C      1  0.4167990000000  0.7452410000000  0.4866240000000 1.0
C      1  0.5129960000000  0.2547640000000  0.4167790000000 1.0
C      1  0.4248570000000  0.2547520000000  0.4619010000000 1.0
C      1  0.4405900000000  0.2547680000000  0.5596820000000 1.0
C      1  0.5384420000000  0.2547950000000  0.5749920000000 1.0
C      1  0.5832010000000  0.2547590000000  0.4866240000000 1.0
END
