TITL C-1525613-7943-942 0.0962231707366203 3375 -8922.89281804512 0 0 60 (C1) n - 1
REM
REM in /home/nfs/bkarasulu/CARBON/AIRSS/Generating-Clusters/ReaxFF-fromJPCA2015/Units_Real/Try2-Higher-symm/Only-C60
REM
REM
REM
REM
REM
REM ./C.cell (863b2abdce7293c0672fb3ba77bf323a)
REM AIRSS Version 0.9.1 bugfix July 2018 build 013d7b7c2542+ Fri, 06 Jul 2018 19:26:36 +0100
REM compiler GCC version 9.2.1 20190827 (Red Hat 9.2.1-1)
REM options -cpp -mtune=generic -march=x86-64 -g -O0 -fpre-include=/usr/include/finclude/math-vector-fortran.h
REM seed 1169472449 29820857 -1668081225 -1998200464 -978139052 559935951 -1158717972 -218222026 1791412958 1921910767 1146114228 -1684355421 1039155456 -90053689 -1478468144 1101973366 340077017 1742105440 -477025370 -168878074 -895827096 -326943743 92407960 -590887474 -1609276940 565467509 -665525886 1482868751 99884570 -564588519 -1884001277 441023990 630223521
REM
CELL 1.54180   15.00000   15.00000   15.00000   90.00000   90.00000   90.00000
LATT -1
SFAC C  
C      1  0.7221620000000  0.5369390000000  0.3237890000000 1.0
C      1  0.7670850000000  0.6672700000000  0.4895320000000 1.0
C      1  0.7668510000000  0.5422150000000  0.6614210000000 1.0
C      1  0.7224890000000  0.3618540000000  0.6069000000000 1.0
C      1  0.7561850000000  0.3376180000000  0.3901360000000 1.0
C      1  0.2700680000000  0.5292360000000  0.3100070000000 1.0
C      1  0.2507980000000  0.6551670000000  0.4629690000000 1.0
C      1  0.2567310000000  0.5607990000000  0.6272130000000 1.0
C      1  0.2844350000000  0.3823220000000  0.6012710000000 1.0
C      1  0.2383830000000  0.3312790000000  0.3922870000000 1.0
C      1  0.7016340000000  0.6014740000000  0.7044230000000 1.0
C      1  0.6933780000000  0.3203970000000  0.6651160000000 1.0
C      1  0.6878970000000  0.2700620000000  0.3872750000000 1.0
C      1  0.6736060000000  0.5511360000000  0.2655140000000 1.0
C      1  0.6972820000000  0.7316400000000  0.4641640000000 1.0
C      1  0.3137690000000  0.5841360000000  0.6724980000000 1.0
C      1  0.3113220000000  0.3413900000000  0.6612130000000 1.0
C      1  0.3107460000000  0.2683150000000  0.3971090000000 1.0
C      1  0.3237770000000  0.5457710000000  0.2569880000000 1.0
C      1  0.3078470000000  0.7061950000000  0.4643130000000 1.0
C      1  0.5477140000000  0.7072410000000  0.3790860000000 1.0
C      1  0.5521360000000  0.6640650000000  0.6396110000000 1.0
C      1  0.5537680000000  0.4145280000000  0.7205110000000 1.0
C      1  0.5509350000000  0.2801760000000  0.4926140000000 1.0
C      1  0.5458410000000  0.4708780000000  0.3593910000000 1.0
C      1  0.4501930000000  0.7078780000000  0.3816040000000 1.0
C      1  0.4546120000000  0.6632910000000  0.6411640000000 1.0
C      1  0.4567240000000  0.4160060000000  0.7227290000000 1.0
C      1  0.4520910000000  0.2830080000000  0.4934540000000 1.0
C      1  0.4471270000000  0.4711290000000  0.3591740000000 1.0
C      1  0.5493750000000  0.6990970000000  0.5445070000000 1.0
C      1  0.5548030000000  0.5151600000000  0.7158340000000 1.0
C      1  0.5506170000000  0.3189800000000  0.5854000000000 1.0
C      1  0.6060390000000  0.4113440000000  0.4034940000000 1.0
C      1  0.5448500000000  0.6371000000000  0.3073700000000 1.0
C      1  0.4529530000000  0.6975880000000  0.5468130000000 1.0
C      1  0.4575460000000  0.5158350000000  0.7192570000000 1.0
C      1  0.4557610000000  0.3219720000000  0.5857860000000 1.0
C      1  0.3862700000000  0.4113990000000  0.4014890000000 1.0
C      1  0.4480220000000  0.6382910000000  0.3097310000000 1.0
C      1  0.4060840000000  0.3487000000000  0.6671890000000 1.0
C      1  0.3994290000000  0.3183580000000  0.4196960000000 1.0
C      1  0.4073760000000  0.5474720000000  0.3038460000000 1.0
C      1  0.4017790000000  0.7215060000000  0.4667120000000 1.0
C      1  0.4058310000000  0.5958560000000  0.6937100000000 1.0
C      1  0.5993140000000  0.3415040000000  0.6686810000000 1.0
C      1  0.5987470000000  0.3165400000000  0.4163260000000 1.0
C      1  0.5854990000000  0.5464530000000  0.3029040000000 1.0
C      1  0.5986430000000  0.7141450000000  0.4628370000000 1.0
C      1  0.6029810000000  0.5941520000000  0.6846700000000 1.0
C      1  0.2548420000000  0.4328890000000  0.5288350000000 1.0
C      1  0.2809630000000  0.4224330000000  0.4284620000000 1.0
C      1  0.2335740000000  0.5050800000000  0.3936940000000 1.0
C      1  0.2107070000000  0.5687880000000  0.4638650000000 1.0
C      1  0.2183010000000  0.5199780000000  0.5495580000000 1.0
C      1  0.7362340000000  0.4242310000000  0.5369030000000 1.0
C      1  0.7098590000000  0.4220660000000  0.4358070000000 1.0
C      1  0.7506620000000  0.5112720000000  0.4103400000000 1.0
C      1  0.7655000000000  0.5674660000000  0.4870710000000 1.0
C      1  0.7598560000000  0.5109310000000  0.5657370000000 1.0
END
