TITL C-1525613-7943-5747 -0.00074059173549923 3375 -9099.57392093423 0 0 60 (D5d) n - 1
REM
REM in /home/nfs/bkarasulu/CARBON/AIRSS/Generating-Clusters/ReaxFF-fromJPCA2015/Units_Real/Try2-Higher-symm/Only-C60
REM
REM
REM
REM
REM
REM ./C.cell (863b2abdce7293c0672fb3ba77bf323a)
REM AIRSS Version 0.9.1 bugfix July 2018 build 013d7b7c2542+ Fri, 06 Jul 2018 19:26:36 +0100
REM compiler GCC version 9.2.1 20190827 (Red Hat 9.2.1-1)
REM options -cpp -mtune=generic -march=x86-64 -g -O0 -fpre-include=/usr/include/finclude/math-vector-fortran.h
REM seed 279019616 -1197296550 893982089 -1115907754 715989004 -992667536 -797957707 1179694318 1132314341 1881179648 155789997 1618238431 1838908754 224212278 -7133274 -1604953813 1003959476 948759330 -233741788 -826335791 208972881 213925301 -1240652852 -904354668 448482880 -571490834 -315480670 -1810981604 -2044758936 -758486854 -734286319 -1858645121 -1615628360
REM
CELL 1.54180   15.00000   15.00000   15.00000   90.00000   90.00000   90.00000
LATT -1
SFAC C  
C      1  0.5504140000000  0.7695140000000  0.4341480000000 1.0
C      1  0.5021080000000  0.2305070000000  0.4170220000000 1.0
C      1  0.4529020000000  0.7695050000000  0.4317000000000 1.0
C      1  0.4217810000000  0.2304930000000  0.4723580000000 1.0
C      1  0.4204420000000  0.7694920000000  0.5236830000000 1.0
C      1  0.4495860000000  0.2304860000000  0.5658520000000 1.0
C      1  0.4978920000000  0.7694930000000  0.5829780000000 1.0
C      1  0.5470980000000  0.2304950000000  0.5683000000000 1.0
C      1  0.5782190000000  0.7695070000000  0.5276420000000 1.0
C      1  0.5795580000000  0.2305080000000  0.4763170000000 1.0
C      1  0.3161020000000  0.6553320000000  0.6053200000000 1.0
C      1  0.4131460000000  0.3446080000000  0.6932580000000 1.0
C      1  0.5433110000000  0.6553420000000  0.7074410000000 1.0
C      1  0.6569870000000  0.3446380000000  0.6423260000000 1.0
C      1  0.7106450000000  0.6553790000000  0.5229090000000 1.0
C      1  0.6838980000000  0.3446680000000  0.3946800000000 1.0
C      1  0.5868540000000  0.6553920000000  0.3067420000000 1.0
C      1  0.4566890000000  0.3446580000000  0.2925590000000 1.0
C      1  0.3430130000000  0.6553620000000  0.3576740000000 1.0
C      1  0.2893550000000  0.3446210000000  0.4770910000000 1.0
C      1  0.5851900000000  0.4808090000000  0.3887280000000 1.0
C      1  0.5035150000000  0.5192280000000  0.3599110000000 1.0
C      1  0.4205030000000  0.4807930000000  0.3845950000000 1.0
C      1  0.3678500000000  0.5192040000000  0.4533670000000 1.0
C      1  0.3656800000000  0.4807700000000  0.5399440000000 1.0
C      1  0.4148100000000  0.5191910000000  0.6112720000000 1.0
C      1  0.4964850000000  0.4807720000000  0.6400890000000 1.0
C      1  0.5794970000000  0.5192070000000  0.6154050000000 1.0
C      1  0.6321500000000  0.4807960000000  0.5466330000000 1.0
C      1  0.6343200000000  0.5192300000000  0.4600560000000 1.0
C      1  0.5045980000000  0.6026210000000  0.3164110000000 1.0
C      1  0.3958210000000  0.3974070000000  0.3487440000000 1.0
C      1  0.3268000000000  0.6025900000000  0.4388930000000 1.0
C      1  0.3239720000000  0.3973770000000  0.5523410000000 1.0
C      1  0.3883440000000  0.6025730000000  0.6458390000000 1.0
C      1  0.4954020000000  0.3973790000000  0.6835890000000 1.0
C      1  0.6041790000000  0.6025930000000  0.6512560000000 1.0
C      1  0.6732000000000  0.3974100000000  0.5611070000000 1.0
C      1  0.6760280000000  0.6026230000000  0.4476590000000 1.0
C      1  0.6116560000000  0.3974270000000  0.3541610000000 1.0
C      1  0.4229210000000  0.6553760000000  0.3026270000000 1.0
C      1  0.3216460000000  0.3446340000000  0.3855870000000 1.0
C      1  0.2884420000000  0.6553390000000  0.5123120000000 1.0
C      1  0.3361000000000  0.3446080000000  0.6342710000000 1.0
C      1  0.4463080000000  0.6553330000000  0.7050060000000 1.0
C      1  0.5770790000000  0.3446240000000  0.6973730000000 1.0
C      1  0.6783540000000  0.6553660000000  0.6144130000000 1.0
C      1  0.7115580000000  0.3446610000000  0.4876880000000 1.0
C      1  0.6639000000000  0.6553920000000  0.3657290000000 1.0
C      1  0.5536920000000  0.3446670000000  0.2949940000000 1.0
C      1  0.6675480000000  0.2656240000000  0.4501530000000 1.0
C      1  0.6062230000000  0.7344240000000  0.3612520000000 1.0
C      1  0.5044080000000  0.2656220000000  0.3252530000000 1.0
C      1  0.4008270000000  0.7344050000000  0.3560960000000 1.0
C      1  0.3352080000000  0.2655920000000  0.4418110000000 1.0
C      1  0.3324520000000  0.7343760000000  0.5498470000000 1.0
C      1  0.3937770000000  0.2655760000000  0.6387480000000 1.0
C      1  0.4955920000000  0.7343780000000  0.6747470000000 1.0
C      1  0.5991730000000  0.2655950000000  0.6439040000000 1.0
C      1  0.6647920000000  0.7344080000000  0.5581890000000 1.0
END
