TITL C-1525613-7943-679 0.0674066736341157 3375 -8508.99133594112 0 0 60 (C1) n - 1
REM
REM in /home/nfs/bkarasulu/CARBON/AIRSS/Generating-Clusters/ReaxFF-fromJPCA2015/Units_Real/Try2-Higher-symm/Only-C60
REM
REM
REM
REM
REM
REM ./C.cell (863b2abdce7293c0672fb3ba77bf323a)
REM AIRSS Version 0.9.1 bugfix July 2018 build 013d7b7c2542+ Fri, 06 Jul 2018 19:26:36 +0100
REM compiler GCC version 9.2.1 20190827 (Red Hat 9.2.1-1)
REM options -cpp -mtune=generic -march=x86-64 -g -O0 -fpre-include=/usr/include/finclude/math-vector-fortran.h
REM seed -1761229860 1873969426 -1074029881 -1537022667 1262818051 -787906625 2045954559 -1169607031 -1772079828 2097518283 612197193 -646267550 -668029916 536662406 905962904 -948761321 726302213 -723358580 1553971697 485663848 1007121404 -13162800 1973017705 503904236 1851023242 -1685830639 -584797969 1668401158 398678569 -2008351345 938451391 -423197057 1356514650
REM
CELL 1.54180   15.00000   15.00000   15.00000   90.00000   90.00000   90.00000
LATT -1
SFAC C  
C      1  0.6098880000000  0.3771150000000  0.3758110000000 1.0
C      1  0.6674700000000  0.3860630000000  0.5711090000000 1.0
C      1  0.4732880000000  0.3599470000000  0.6795820000000 1.0
C      1  0.3425580000000  0.3342620000000  0.5404110000000 1.0
C      1  0.4319000000000  0.3309910000000  0.3475650000000 1.0
C      1  0.6102650000000  0.6172330000000  0.3663880000000 1.0
C      1  0.6662760000000  0.6150740000000  0.5708990000000 1.0
C      1  0.4738340000000  0.6405120000000  0.6780470000000 1.0
C      1  0.3437260000000  0.6651940000000  0.5367450000000 1.0
C      1  0.4213930000000  0.6741820000000  0.3488630000000 1.0
C      1  0.5596400000000  0.3068790000000  0.4560910000000 1.0
C      1  0.5829600000000  0.3160330000000  0.5461410000000 1.0
C      1  0.4985310000000  0.3094870000000  0.5861910000000 1.0
C      1  0.4266210000000  0.2920160000000  0.5213450000000 1.0
C      1  0.4701520000000  0.2921310000000  0.4286980000000 1.0
C      1  0.5633660000000  0.6848550000000  0.4453270000000 1.0
C      1  0.5803950000000  0.6814830000000  0.5382390000000 1.0
C      1  0.4990020000000  0.6897560000000  0.5859080000000 1.0
C      1  0.4286550000000  0.7069690000000  0.5206440000000 1.0
C      1  0.4716590000000  0.7031460000000  0.4278750000000 1.0
C      1  0.6921550000000  0.4503170000000  0.6492380000000 1.0
C      1  0.4215840000000  0.4427640000000  0.7070210000000 1.0
C      1  0.2626050000000  0.4468890000000  0.5044430000000 1.0
C      1  0.4032980000000  0.4552560000000  0.2870830000000 1.0
C      1  0.6863050000000  0.4454840000000  0.3499780000000 1.0
C      1  0.6909560000000  0.5497370000000  0.6494990000000 1.0
C      1  0.4217750000000  0.5575460000000  0.7063170000000 1.0
C      1  0.2639640000000  0.5512060000000  0.5042160000000 1.0
C      1  0.3957100000000  0.5502540000000  0.2846210000000 1.0
C      1  0.6902320000000  0.5424320000000  0.3620870000000 1.0
C      1  0.4167680000000  0.4511120000000  0.5291220000000 1.0
C      1  0.4481290000000  0.4483090000000  0.4350200000000 1.0
C      1  0.5493160000000  0.4474540000000  0.4379700000000 1.0
C      1  0.5833110000000  0.4493980000000  0.5332430000000 1.0
C      1  0.4998020000000  0.4514580000000  0.5865690000000 1.0
C      1  0.4199550000000  0.5530450000000  0.5283200000000 1.0
C      1  0.4522080000000  0.5466820000000  0.4354560000000 1.0
C      1  0.5529850000000  0.5484050000000  0.4358610000000 1.0
C      1  0.5849490000000  0.5478280000000  0.5315000000000 1.0
C      1  0.5018600000000  0.5485670000000  0.5851010000000 1.0
C      1  0.6241990000000  0.5818340000000  0.7005270000000 1.0
C      1  0.3496430000000  0.5788330000000  0.6563360000000 1.0
C      1  0.3025650000000  0.5800650000000  0.4278830000000 1.0
C      1  0.4631640000000  0.6270010000000  0.2706490000000 1.0
C      1  0.7417380000000  0.5810910000000  0.4299360000000 1.0
C      1  0.6251830000000  0.4181340000000  0.7004980000000 1.0
C      1  0.3491250000000  0.4218590000000  0.6568460000000 1.0
C      1  0.3039040000000  0.4201950000000  0.4284760000000 1.0
C      1  0.4806540000000  0.3878730000000  0.2806320000000 1.0
C      1  0.7428810000000  0.4106370000000  0.4221920000000 1.0
C      1  0.7337850000000  0.6077990000000  0.5015110000000 1.0
C      1  0.5466760000000  0.6052890000000  0.7236430000000 1.0
C      1  0.2896370000000  0.6074470000000  0.5891400000000 1.0
C      1  0.3450620000000  0.6100350000000  0.3484170000000 1.0
C      1  0.5528800000000  0.6196280000000  0.2937380000000 1.0
C      1  0.7296540000000  0.3925250000000  0.4947020000000 1.0
C      1  0.5470850000000  0.3949220000000  0.7232770000000 1.0
C      1  0.2878250000000  0.3925740000000  0.5906940000000 1.0
C      1  0.3531130000000  0.3932550000000  0.3506380000000 1.0
C      1  0.5717830000000  0.4015360000000  0.2957200000000 1.0
END
