TITL C-1525613-7943-1221 0.591662791058828 3375 -8335.39371839405 0 0 60 (C1) n - 1
REM
REM in /home/nfs/bkarasulu/CARBON/AIRSS/Generating-Clusters/ReaxFF-fromJPCA2015/Units_Real/Try2-Higher-symm/Only-C60
REM
REM
REM
REM
REM
REM ./C.cell (863b2abdce7293c0672fb3ba77bf323a)
REM AIRSS Version 0.9.1 bugfix July 2018 build 013d7b7c2542+ Fri, 06 Jul 2018 19:26:36 +0100
REM compiler GCC version 9.2.1 20190827 (Red Hat 9.2.1-1)
REM options -cpp -mtune=generic -march=x86-64 -g -O0 -fpre-include=/usr/include/finclude/math-vector-fortran.h
REM seed 53965184 220140380 -1333886789 -420172784 -809630602 57067675 501350734 1065167368 -854072315 -1557713910 607644575 1479133784 -2044979558 -1756212839 -1753118272 1484025002 -46951230 1232647514 -2018434822 1357707581 -2102974958 -109396329 768203704 -225108450 -517275123 -110404543 899043694 1565160187 -1080913973 -711877491 1341993333 1316317044 434954745
REM
CELL 1.54180   15.00000   15.00000   15.00000   90.00000   90.00000   90.00000
LATT -1
SFAC C  
C      1  0.5198940000000  0.5599360000000  0.4479180000000 1.0
C      1  0.4741310000000  0.5662210000000  0.5930210000000 1.0
C      1  0.4289750000000  0.5297560000000  0.4294470000000 1.0
C      1  0.4324060000000  0.4824790000000  0.6141590000000 1.0
C      1  0.4411770000000  0.4402540000000  0.4618300000000 1.0
C      1  0.4740650000000  0.4266930000000  0.5483750000000 1.0
C      1  0.5167250000000  0.4180040000000  0.4102290000000 1.0
C      1  0.5668880000000  0.4532000000000  0.5617210000000 1.0
C      1  0.5673120000000  0.4917600000000  0.3973880000000 1.0
C      1  0.5515570000000  0.5466500000000  0.5381800000000 1.0
C      1  0.6134010000000  0.3715820000000  0.3341600000000 1.0
C      1  0.6571060000000  0.4661740000000  0.6666440000000 1.0
C      1  0.6523660000000  0.5714050000000  0.3302660000000 1.0
C      1  0.5840650000000  0.6313020000000  0.6677350000000 1.0
C      1  0.4931000000000  0.6670370000000  0.3319350000000 1.0
C      1  0.3790010000000  0.6331050000000  0.6673780000000 1.0
C      1  0.3645350000000  0.5501330000000  0.3466740000000 1.0
C      1  0.3479660000000  0.4626580000000  0.6643110000000 1.0
C      1  0.4123090000000  0.3640190000000  0.3331770000000 1.0
C      1  0.5041830000000  0.3394920000000  0.6680130000000 1.0
C      1  0.5249980000000  0.2690510000000  0.6109260000000 1.0
C      1  0.6698620000000  0.3082740000000  0.3784180000000 1.0
C      1  0.7333830000000  0.4561240000000  0.6124280000000 1.0
C      1  0.7180140000000  0.6038910000000  0.3879900000000 1.0
C      1  0.6154040000000  0.6967180000000  0.6110010000000 1.0
C      1  0.4887430000000  0.7369660000000  0.3928690000000 1.0
C      1  0.3297650000000  0.6986650000000  0.6142010000000 1.0
C      1  0.2788650000000  0.5397670000000  0.3879860000000 1.0
C      1  0.2947420000000  0.4001590000000  0.6158580000000 1.0
C      1  0.3838410000000  0.2970700000000  0.3897240000000 1.0
C      1  0.5087760000000  0.2722180000000  0.4430410000000 1.0
C      1  0.6357230000000  0.3250530000000  0.5504510000000 1.0
C      1  0.7094660000000  0.4405720000000  0.4471940000000 1.0
C      1  0.7054550000000  0.5767940000000  0.5550850000000 1.0
C      1  0.6232650000000  0.6845320000000  0.4437320000000 1.0
C      1  0.4928470000000  0.7252190000000  0.5567730000000 1.0
C      1  0.3703600000000  0.6801540000000  0.4443220000000 1.0
C      1  0.2885720000000  0.5668700000000  0.5505700000000 1.0
C      1  0.2912710000000  0.4180910000000  0.4470260000000 1.0
C      1  0.3760190000000  0.3071400000000  0.5566020000000 1.0
C      1  0.7042160000000  0.6378770000000  0.4753740000000 1.0
C      1  0.5843480000000  0.7291710000000  0.5265100000000 1.0
C      1  0.4404100000000  0.7424850000000  0.4753810000000 1.0
C      1  0.3157270000000  0.6539910000000  0.5216280000000 1.0
C      1  0.2563250000000  0.5093030000000  0.4739230000000 1.0
C      1  0.2949760000000  0.3598300000000  0.5313540000000 1.0
C      1  0.4179860000000  0.2639270000000  0.4711620000000 1.0
C      1  0.5659720000000  0.2620840000000  0.5238320000000 1.0
C      1  0.6871940000000  0.3513680000000  0.4734710000000 1.0
C      1  0.7451090000000  0.4910390000000  0.5247140000000 1.0
C      1  0.6555990000000  0.4678140000000  0.3652500000000 1.0
C      1  0.6513160000000  0.5647480000000  0.6385070000000 1.0
C      1  0.5891850000000  0.6455110000000  0.3597830000000 1.0
C      1  0.4830640000000  0.6561810000000  0.6362570000000 1.0
C      1  0.3956150000000  0.6436390000000  0.3548860000000 1.0
C      1  0.3194630000000  0.5567620000000  0.6437410000000 1.0
C      1  0.3426290000000  0.4213570000000  0.3656130000000 1.0
C      1  0.4141130000000  0.3417420000000  0.6364790000000 1.0
C      1  0.5183970000000  0.3389370000000  0.3632150000000 1.0
C      1  0.5978170000000  0.3870500000000  0.6301590000000 1.0
END
