TITL C-1525613-7943-5768 0.339880235121115 3375 -8297.11627350075 0 0 60 (C1) n - 1
REM
REM in /home/nfs/bkarasulu/CARBON/AIRSS/Generating-Clusters/ReaxFF-fromJPCA2015/Units_Real/Try2-Higher-symm/Only-C60
REM
REM
REM
REM
REM
REM ./C.cell (863b2abdce7293c0672fb3ba77bf323a)
REM AIRSS Version 0.9.1 bugfix July 2018 build 013d7b7c2542+ Fri, 06 Jul 2018 19:26:36 +0100
REM compiler GCC version 9.2.1 20190827 (Red Hat 9.2.1-1)
REM options -cpp -mtune=generic -march=x86-64 -g -O0 -fpre-include=/usr/include/finclude/math-vector-fortran.h
REM seed -627568717 -999548480 -573811677 -2077953347 1427724226 -250413471 -773065906 3026572 -877474375 2000901824 1649124024 -651027925 -1051858108 -1259131323 -922879131 147758439 841906057 -233560131 930637744 551425043 -1287321943 -33630591 -113800889 2055830974 -1590875458 1410092821 863432270 -118127550 993456479 1668123236 -527032747 1864733492 -1521198007
REM
CELL 1.54180   15.00000   15.00000   15.00000   90.00000   90.00000   90.00000
LATT -1
SFAC C  
C      1  0.4621960000000  0.4685020000000  0.6825520000000 1.0
C      1  0.4560250000000  0.5780960000000  0.6953510000000 1.0
C      1  0.4674620000000  0.6955340000000  0.5545420000000 1.0
C      1  0.4592730000000  0.6776320000000  0.4440870000000 1.0
C      1  0.5080480000000  0.6149890000000  0.3700270000000 1.0
C      1  0.4614430000000  0.5315760000000  0.3177700000000 1.0
C      1  0.4565210000000  0.4218580000000  0.3039350000000 1.0
C      1  0.4666000000000  0.3055270000000  0.4447620000000 1.0
C      1  0.4594770000000  0.3224810000000  0.5553120000000 1.0
C      1  0.5083480000000  0.3851110000000  0.6298210000000 1.0
C      1  0.3295270000000  0.3523450000000  0.6691050000000 1.0
C      1  0.3645300000000  0.4377890000000  0.6998800000000 1.0
C      1  0.3720970000000  0.6280120000000  0.6805080000000 1.0
C      1  0.3811180000000  0.6879670000000  0.6031870000000 1.0
C      1  0.3612170000000  0.6898690000000  0.4109270000000 1.0
C      1  0.3290960000000  0.6447610000000  0.3306230000000 1.0
C      1  0.3648710000000  0.5589340000000  0.3006090000000 1.0
C      1  0.3719090000000  0.3738920000000  0.3191880000000 1.0
C      1  0.3802980000000  0.3142140000000  0.3964780000000 1.0
C      1  0.3617810000000  0.3086820000000  0.5880710000000 1.0
C      1  0.6994670000000  0.6650700000000  0.3841450000000 1.0
C      1  0.6999500000000  0.5808790000000  0.3283210000000 1.0
C      1  0.6939740000000  0.4408620000000  0.3050480000000 1.0
C      1  0.6958560000000  0.3590840000000  0.3631700000000 1.0
C      1  0.6730060000000  0.2961620000000  0.4840850000000 1.0
C      1  0.6996150000000  0.3349320000000  0.6158660000000 1.0
C      1  0.6999790000000  0.4191040000000  0.6717120000000 1.0
C      1  0.6942500000000  0.5592280000000  0.6952130000000 1.0
C      1  0.6959830000000  0.6408190000000  0.6368070000000 1.0
C      1  0.6732080000000  0.7039600000000  0.5159150000000 1.0
C      1  0.5545360000000  0.3313910000000  0.6983590000000 1.0
C      1  0.5497980000000  0.4719540000000  0.7334660000000 1.0
C      1  0.5347360000000  0.6293720000000  0.7155350000000 1.0
C      1  0.5512220000000  0.7101280000000  0.5823020000000 1.0
C      1  0.5350090000000  0.7406040000000  0.4265150000000 1.0
C      1  0.5544680000000  0.6682270000000  0.3013420000000 1.0
C      1  0.5495160000000  0.5278800000000  0.2668370000000 1.0
C      1  0.5350090000000  0.3701180000000  0.2838420000000 1.0
C      1  0.5507490000000  0.2905300000000  0.4177480000000 1.0
C      1  0.5352100000000  0.2595560000000  0.5735320000000 1.0
C      1  0.6476490000000  0.5213500000000  0.2713040000000 1.0
C      1  0.6132850000000  0.4037780000000  0.3442100000000 1.0
C      1  0.6452390000000  0.2771370000000  0.3955900000000 1.0
C      1  0.6366130000000  0.2753630000000  0.5654070000000 1.0
C      1  0.6577240000000  0.3368830000000  0.7016640000000 1.0
C      1  0.6481190000000  0.4786880000000  0.7292120000000 1.0
C      1  0.6135590000000  0.5959840000000  0.6557920000000 1.0
C      1  0.6455640000000  0.7228550000000  0.6044990000000 1.0
C      1  0.6364190000000  0.7245790000000  0.4346940000000 1.0
C      1  0.6576590000000  0.6630370000000  0.2982530000000 1.0
C      1  0.2993780000000  0.3543980000000  0.4366300000000 1.0
C      1  0.2942950000000  0.3514540000000  0.5335340000000 1.0
C      1  0.2614340000000  0.4005860000000  0.6147600000000 1.0
C      1  0.2981540000000  0.4874160000000  0.6491520000000 1.0
C      1  0.2936530000000  0.5845010000000  0.6387820000000 1.0
C      1  0.2997990000000  0.6488000000000  0.5629090000000 1.0
C      1  0.2938600000000  0.6477910000000  0.4654710000000 1.0
C      1  0.2628610000000  0.5948130000000  0.3863270000000 1.0
C      1  0.3006350000000  0.5129330000000  0.3524490000000 1.0
C      1  0.2967220000000  0.4200240000000  0.3628670000000 1.0
END
