TITL C-1525613-7943-5098 1.08605201754136 3375 -7992.62303142754 0 0 60 (C1) n - 1
REM
REM in /home/nfs/bkarasulu/CARBON/AIRSS/Generating-Clusters/ReaxFF-fromJPCA2015/Units_Real/Try2-Higher-symm/Only-C60
REM
REM
REM
REM
REM
REM ./C.cell (863b2abdce7293c0672fb3ba77bf323a)
REM AIRSS Version 0.9.1 bugfix July 2018 build 013d7b7c2542+ Fri, 06 Jul 2018 19:26:36 +0100
REM compiler GCC version 9.2.1 20190827 (Red Hat 9.2.1-1)
REM options -cpp -mtune=generic -march=x86-64 -g -O0 -fpre-include=/usr/include/finclude/math-vector-fortran.h
REM seed -1677050524 1397823090 342286391 -1691400247 680720617 891278955 -1380466399 -396463184 -190189421 1125998225 65723888 116196029 -396196489 -2142647455 804494105 516910699 -1264683734 1972747444 -958277400 -751193012 -361070671 1757878897 -169360914 2077988260 -1673846389 849873991 342954698 -1627356475 -2117580360 813006749 -1955735628 -1760143520 385807713
REM
CELL 1.54180   15.00000   15.00000   15.00000   90.00000   90.00000   90.00000
LATT -1
SFAC C  
C      1  0.6719680000000  0.5013100000000  0.3419480000000 1.0
C      1  0.6697400000000  0.6518260000000  0.4516080000000 1.0
C      1  0.6705500000000  0.5936670000000  0.6286370000000 1.0
C      1  0.6729450000000  0.4071160000000  0.6273560000000 1.0
C      1  0.6731740000000  0.3492820000000  0.4506910000000 1.0
C      1  0.6718360000000  0.5002270000000  0.6579920000000 1.0
C      1  0.6696440000000  0.6515760000000  0.5496020000000 1.0
C      1  0.6706860000000  0.5945020000000  0.3721380000000 1.0
C      1  0.6727690000000  0.4077330000000  0.3721570000000 1.0
C      1  0.6731060000000  0.3489370000000  0.5484340000000 1.0
C      1  0.4516090000000  0.2217650000000  0.5481620000000 1.0
C      1  0.4504260000000  0.3677250000000  0.2503970000000 1.0
C      1  0.4527650000000  0.6956820000000  0.2970610000000 1.0
C      1  0.4514970000000  0.7532530000000  0.6257790000000 1.0
C      1  0.4497270000000  0.4587300000000  0.7809510000000 1.0
C      1  0.4515720000000  0.2216880000000  0.4519040000000 1.0
C      1  0.4505670000000  0.3677310000000  0.7494660000000 1.0
C      1  0.4528810000000  0.6956240000000  0.7028320000000 1.0
C      1  0.4515480000000  0.7533880000000  0.3740460000000 1.0
C      1  0.4494680000000  0.4588130000000  0.2192550000000 1.0
C      1  0.4106380000000  0.3600450000000  0.3389320000000 1.0
C      1  0.4186170000000  0.6070810000000  0.3204650000000 1.0
C      1  0.4118810000000  0.7092800000000  0.5477810000000 1.0
C      1  0.4096710000000  0.5176440000000  0.7147860000000 1.0
C      1  0.4140910000000  0.3051790000000  0.5822340000000 1.0
C      1  0.4102480000000  0.3599050000000  0.6612290000000 1.0
C      1  0.4186500000000  0.6070960000000  0.6792750000000 1.0
C      1  0.4123660000000  0.7088570000000  0.4520450000000 1.0
C      1  0.4089640000000  0.5180040000000  0.2850150000000 1.0
C      1  0.4139580000000  0.3049080000000  0.4176120000000 1.0
C      1  0.5752260000000  0.4070900000000  0.3740070000000 1.0
C      1  0.5731760000000  0.5910700000000  0.3730330000000 1.0
C      1  0.5721320000000  0.6481220000000  0.5477080000000 1.0
C      1  0.5743410000000  0.5000170000000  0.6562230000000 1.0
C      1  0.5757830000000  0.3504860000000  0.5489500000000 1.0
C      1  0.5753430000000  0.4080490000000  0.6266050000000 1.0
C      1  0.5730940000000  0.5917370000000  0.6262590000000 1.0
C      1  0.5724020000000  0.6478700000000  0.4511770000000 1.0
C      1  0.5743590000000  0.4990870000000  0.3435710000000 1.0
C      1  0.5758080000000  0.3502140000000  0.4519940000000 1.0
C      1  0.3472260000000  0.5886800000000  0.3819740000000 1.0
C      1  0.3416800000000  0.6427840000000  0.5461740000000 1.0
C      1  0.3364760000000  0.5009420000000  0.6516290000000 1.0
C      1  0.3434080000000  0.3582550000000  0.5442400000000 1.0
C      1  0.3388360000000  0.4123350000000  0.3790110000000 1.0
C      1  0.3464310000000  0.5885920000000  0.6185400000000 1.0
C      1  0.3430650000000  0.6426110000000  0.4533370000000 1.0
C      1  0.3367080000000  0.5011190000000  0.3488780000000 1.0
C      1  0.3434850000000  0.3582590000000  0.4556590000000 1.0
C      1  0.3379940000000  0.4119710000000  0.6213960000000 1.0
C      1  0.5477260000000  0.4508640000000  0.8126940000000 1.0
C      1  0.5489570000000  0.1880090000000  0.5503190000000 1.0
C      1  0.5481450000000  0.3558770000000  0.2190950000000 1.0
C      1  0.5493780000000  0.7233950000000  0.2747580000000 1.0
C      1  0.5485690000000  0.7828140000000  0.6438520000000 1.0
C      1  0.5474830000000  0.4511240000000  0.1875000000000 1.0
C      1  0.5489230000000  0.1878850000000  0.4497730000000 1.0
C      1  0.5482840000000  0.3557420000000  0.7807440000000 1.0
C      1  0.5494440000000  0.7235550000000  0.7251590000000 1.0
C      1  0.5485560000000  0.7828720000000  0.3559530000000 1.0
END
