TITL C-1525613-7943-7259 0.101756032784 3375 -8423.62339020821 0 0 60 (Ci) n - 1
REM
REM in /home/nfs/bkarasulu/CARBON/AIRSS/Generating-Clusters/ReaxFF-fromJPCA2015/Units_Real/Try2-Higher-symm/Only-C60
REM
REM
REM
REM
REM
REM ./C.cell (863b2abdce7293c0672fb3ba77bf323a)
REM AIRSS Version 0.9.1 bugfix July 2018 build 013d7b7c2542+ Fri, 06 Jul 2018 19:26:36 +0100
REM compiler GCC version 9.2.1 20190827 (Red Hat 9.2.1-1)
REM options -cpp -mtune=generic -march=x86-64 -g -O0 -fpre-include=/usr/include/finclude/math-vector-fortran.h
REM seed 1637267229 -147991379 -918832156 -662546153 976990223 1896962555 -1436174815 1932423239 1556818191 -1788665172 -24054676 976813177 1734522783 -324603200 -1925810116 -1489560970 1305802515 792194405 1973571196 -1439089002 1523295658 1075938493 226026155 -1738452327 605558395 -1014193719 1672260125 -1260116746 1453391375 -1250608036 -2008960667 -952506778 416453810
REM
CELL 1.54180   15.00000   15.00000   15.00000   90.00000   90.00000   90.00000
LATT -1
SFAC C  
C      1  0.2895270000000  0.4167950000000  0.5127320000000 1.0
C      1  0.7050950000000  0.4317510000000  0.4603170000000 1.0
C      1  0.2734000000000  0.4634290000000  0.4225140000000 1.0
C      1  0.7108800000000  0.5146450000000  0.4112510000000 1.0
C      1  0.2839450000000  0.5564520000000  0.4427270000000 1.0
C      1  0.7106840000000  0.5831170000000  0.4871320000000 1.0
C      1  0.2947780000000  0.5684530000000  0.5394860000000 1.0
C      1  0.7267750000000  0.5365900000000  0.5773100000000 1.0
C      1  0.2890930000000  0.4855450000000  0.5886180000000 1.0
C      1  0.7160360000000  0.4436640000000  0.5571000000000 1.0
C      1  0.6052870000000  0.6255730000000  0.3324380000000 1.0
C      1  0.3679160000000  0.7017090000000  0.4147890000000 1.0
C      1  0.6093750000000  0.7049250000000  0.5506490000000 1.0
C      1  0.3838970000000  0.6245420000000  0.6668920000000 1.0
C      1  0.6154190000000  0.5090220000000  0.7276850000000 1.0
C      1  0.3951100000000  0.3744310000000  0.6671240000000 1.0
C      1  0.6319600000000  0.2983480000000  0.5847380000000 1.0
C      1  0.3904270000000  0.2951010000000  0.4496790000000 1.0
C      1  0.6162810000000  0.3758810000000  0.3328270000000 1.0
C      1  0.3849310000000  0.4907640000000  0.2724010000000 1.0
C      1  0.5909360000000  0.5188890000000  0.5717110000000 1.0
C      1  0.4507410000000  0.4928220000000  0.5704520000000 1.0
C      1  0.5324430000000  0.4437220000000  0.5582920000000 1.0
C      1  0.3959060000000  0.4412050000000  0.5105710000000 1.0
C      1  0.5307440000000  0.4144660000000  0.4628680000000 1.0
C      1  0.4091690000000  0.4811560000000  0.4287910000000 1.0
C      1  0.5488310000000  0.5068240000000  0.4304440000000 1.0
C      1  0.4675200000000  0.5563930000000  0.4422660000000 1.0
C      1  0.6039800000000  0.5587920000000  0.4897140000000 1.0
C      1  0.4693450000000  0.5851280000000  0.5377930000000 1.0
C      1  0.4660000000000  0.3140050000000  0.6278650000000 1.0
C      1  0.5371850000000  0.2852300000000  0.5667820000000 1.0
C      1  0.4732000000000  0.3438560000000  0.4205140000000 1.0
C      1  0.5324800000000  0.4120690000000  0.2808920000000 1.0
C      1  0.4777100000000  0.4854430000000  0.2772610000000 1.0
C      1  0.5336760000000  0.6855220000000  0.3714590000000 1.0
C      1  0.4627680000000  0.7145320000000  0.4327900000000 1.0
C      1  0.5268450000000  0.6559420000000  0.5800170000000 1.0
C      1  0.4673920000000  0.5876980000000  0.7198830000000 1.0
C      1  0.5227190000000  0.5149030000000  0.7229320000000 1.0
C      1  0.3937800000000  0.7043680000000  0.5064300000000 1.0
C      1  0.6072820000000  0.6542120000000  0.6329090000000 1.0
C      1  0.3812220000000  0.5401110000000  0.7137620000000 1.0
C      1  0.6157680000000  0.4269710000000  0.6889070000000 1.0
C      1  0.3708330000000  0.3012190000000  0.6083730000000 1.0
C      1  0.6062530000000  0.2957060000000  0.4930120000000 1.0
C      1  0.3930710000000  0.3458020000000  0.3673660000000 1.0
C      1  0.6184430000000  0.4604360000000  0.2859590000000 1.0
C      1  0.3840130000000  0.5728910000000  0.3110320000000 1.0
C      1  0.6287050000000  0.6987470000000  0.3915520000000 1.0
C      1  0.3306900000000  0.3214080000000  0.5214960000000 1.0
C      1  0.6480280000000  0.3569220000000  0.4240490000000 1.0
C      1  0.3432660000000  0.4339180000000  0.3558180000000 1.0
C      1  0.6521270000000  0.5395780000000  0.3389120000000 1.0
C      1  0.3327940000000  0.6159270000000  0.3755280000000 1.0
C      1  0.6689390000000  0.6786670000000  0.4785250000000 1.0
C      1  0.3521110000000  0.6432440000000  0.5756780000000 1.0
C      1  0.6570510000000  0.5660410000000  0.6443160000000 1.0
C      1  0.3483560000000  0.4604520000000  0.6604040000000 1.0
C      1  0.6668590000000  0.3840450000000  0.6242670000000 1.0
END
