TITL C-1525613-7943-5862 0.060451868976674 3375 -8458.90167872531 0 0 60 (C1) n - 1
REM
REM in /home/nfs/bkarasulu/CARBON/AIRSS/Generating-Clusters/ReaxFF-fromJPCA2015/Units_Real/Try2-Higher-symm/Only-C60
REM
REM
REM
REM
REM
REM ./C.cell (863b2abdce7293c0672fb3ba77bf323a)
REM AIRSS Version 0.9.1 bugfix July 2018 build 013d7b7c2542+ Fri, 06 Jul 2018 19:26:36 +0100
REM compiler GCC version 9.2.1 20190827 (Red Hat 9.2.1-1)
REM options -cpp -mtune=generic -march=x86-64 -g -O0 -fpre-include=/usr/include/finclude/math-vector-fortran.h
REM seed -1466875242 215209345 1830035477 2068963570 1319823702 -2115083764 973463360 -1675744043 1431498135 -1828201751 644667472 1723548694 1660725689 -1075403098 1643696486 1022435063 513055836 -562962900 966728638 1079693985 -157983426 -1838431160 2048028219 1629203291 -2022841215 148433013 674711477 -966147519 1261457121 -501253465 1909635971 -212240166 -686209656
REM
CELL 1.54180   15.00000   15.00000   15.00000   90.00000   90.00000   90.00000
LATT -1
SFAC C  
C      1  0.4582290000000  0.5486570000000  0.2646670000000 1.0
C      1  0.2546020000000  0.5492360000000  0.4656450000000 1.0
C      1  0.3918620000000  0.5441600000000  0.7179460000000 1.0
C      1  0.6748910000000  0.5477630000000  0.6655570000000 1.0
C      1  0.7150170000000  0.5505890000000  0.3853410000000 1.0
C      1  0.4581090000000  0.4514050000000  0.2650430000000 1.0
C      1  0.2540450000000  0.4514060000000  0.4649240000000 1.0
C      1  0.3937670000000  0.4522730000000  0.7155680000000 1.0
C      1  0.6738170000000  0.4495380000000  0.6675060000000 1.0
C      1  0.7176170000000  0.4518140000000  0.3844020000000 1.0
C      1  0.3801980000000  0.6116100000000  0.2930870000000 1.0
C      1  0.2649160000000  0.6137500000000  0.5505100000000 1.0
C      1  0.4670170000000  0.6092050000000  0.7453260000000 1.0
C      1  0.7227670000000  0.6126540000000  0.6017550000000 1.0
C      1  0.6641820000000  0.6134740000000  0.3212430000000 1.0
C      1  0.3799820000000  0.3880150000000  0.2928930000000 1.0
C      1  0.2628380000000  0.3862350000000  0.5494600000000 1.0
C      1  0.4698840000000  0.3892350000000  0.7407450000000 1.0
C      1  0.7207050000000  0.3863890000000  0.5974710000000 1.0
C      1  0.6668240000000  0.3868610000000  0.3219350000000 1.0
C      1  0.5663120000000  0.7136030000000  0.4467030000000 1.0
C      1  0.4721600000000  0.7119650000000  0.4222610000000 1.0
C      1  0.4190470000000  0.7130410000000  0.5050590000000 1.0
C      1  0.4813210000000  0.7131170000000  0.5819930000000 1.0
C      1  0.5726150000000  0.7168070000000  0.5448310000000 1.0
C      1  0.5655870000000  0.2862100000000  0.4488200000000 1.0
C      1  0.4714410000000  0.2875220000000  0.4227330000000 1.0
C      1  0.4179210000000  0.2873610000000  0.5050790000000 1.0
C      1  0.4792890000000  0.2880480000000  0.5830820000000 1.0
C      1  0.5708080000000  0.2865260000000  0.5471760000000 1.0
C      1  0.5529720000000  0.5877550000000  0.7190820000000 1.0
C      1  0.7300620000000  0.5881130000000  0.5142090000000 1.0
C      1  0.5841520000000  0.5867220000000  0.2872670000000 1.0
C      1  0.3111800000000  0.5859800000000  0.3497260000000 1.0
C      1  0.3050280000000  0.5854580000000  0.6280720000000 1.0
C      1  0.5557760000000  0.4138480000000  0.7195360000000 1.0
C      1  0.7383170000000  0.4142260000000  0.5112250000000 1.0
C      1  0.5849320000000  0.4118400000000  0.2901970000000 1.0
C      1  0.3118330000000  0.4140640000000  0.3498700000000 1.0
C      1  0.3037150000000  0.4135410000000  0.6268350000000 1.0
C      1  0.3355200000000  0.3376320000000  0.4995480000000 1.0
C      1  0.4490900000000  0.3402990000000  0.6571140000000 1.0
C      1  0.6341250000000  0.3369130000000  0.5985790000000 1.0
C      1  0.6337410000000  0.3381590000000  0.4019960000000 1.0
C      1  0.4512790000000  0.3400080000000  0.3440300000000 1.0
C      1  0.3367700000000  0.6625780000000  0.4998590000000 1.0
C      1  0.4532940000000  0.6588150000000  0.6569220000000 1.0
C      1  0.6371510000000  0.6650890000000  0.5958080000000 1.0
C      1  0.6344290000000  0.6609280000000  0.4033850000000 1.0
C      1  0.4515850000000  0.6594730000000  0.3435760000000 1.0
C      1  0.6623580000000  0.5828780000000  0.4525830000000 1.0
C      1  0.5046230000000  0.5817050000000  0.3328860000000 1.0
C      1  0.3430980000000  0.5829590000000  0.4373340000000 1.0
C      1  0.3972450000000  0.5794530000000  0.6307420000000 1.0
C      1  0.5888470000000  0.5828050000000  0.6324130000000 1.0
C      1  0.6617540000000  0.4185570000000  0.4585620000000 1.0
C      1  0.5041210000000  0.4180910000000  0.3343080000000 1.0
C      1  0.3428800000000  0.4179180000000  0.4378130000000 1.0
C      1  0.3966620000000  0.4197630000000  0.6303300000000 1.0
C      1  0.5956940000000  0.4159580000000  0.6374310000000 1.0
END
