TITL C-1525613-7943-1355 0.230352480723925 3375 -8873.30265020491 0 0 60 (C1) n - 1
REM
REM in /home/nfs/bkarasulu/CARBON/AIRSS/Generating-Clusters/ReaxFF-fromJPCA2015/Units_Real/Try2-Higher-symm/Only-C60
REM
REM
REM
REM
REM
REM ./C.cell (863b2abdce7293c0672fb3ba77bf323a)
REM AIRSS Version 0.9.1 bugfix July 2018 build 013d7b7c2542+ Fri, 06 Jul 2018 19:26:36 +0100
REM compiler GCC version 9.2.1 20190827 (Red Hat 9.2.1-1)
REM options -cpp -mtune=generic -march=x86-64 -g -O0 -fpre-include=/usr/include/finclude/math-vector-fortran.h
REM seed 16468668 -1298945675 673766120 812929541 534421807 129574540 880316861 1709126865 1349561665 -1804764285 656825110 728853481 -525095082 -814536595 -201618168 460739901 1619754682 1234601718 -1957828066 -218703463 -194597920 280471738 221741092 -50233637 -1676714072 -593147147 -70631936 -919515680 -918830891 379352166 1032985280 -748812059 400059671
REM
CELL 1.54180   15.00000   15.00000   15.00000   90.00000   90.00000   90.00000
LATT -1
SFAC C  
C      1  0.6583430000000  0.4775580000000  0.3568210000000 1.0
C      1  0.6594300000000  0.6316830000000  0.4336570000000 1.0
C      1  0.6580260000000  0.6044540000000  0.6024500000000 1.0
C      1  0.6530780000000  0.4342900000000  0.6331590000000 1.0
C      1  0.6565300000000  0.3569280000000  0.4778830000000 1.0
C      1  0.3417360000000  0.5220620000000  0.3581430000000 1.0
C      1  0.3409510000000  0.3679860000000  0.4341570000000 1.0
C      1  0.3421790000000  0.3951140000000  0.6036510000000 1.0
C      1  0.3447420000000  0.5651460000000  0.6281630000000 1.0
C      1  0.3427020000000  0.6451930000000  0.4775020000000 1.0
C      1  0.4790820000000  0.3860560000000  0.7632360000000 1.0
C      1  0.4751240000000  0.2118160000000  0.4739650000000 1.0
C      1  0.4753930000000  0.4357570000000  0.2215240000000 1.0
C      1  0.4768260000000  0.7462100000000  0.3518900000000 1.0
C      1  0.4756460000000  0.7197420000000  0.6875040000000 1.0
C      1  0.5211780000000  0.6134320000000  0.7626290000000 1.0
C      1  0.5261400000000  0.7888550000000  0.4737180000000 1.0
C      1  0.5232800000000  0.5652710000000  0.2217500000000 1.0
C      1  0.5240890000000  0.2538860000000  0.3516490000000 1.0
C      1  0.5249700000000  0.2803000000000  0.6876630000000 1.0
C      1  0.3733100000000  0.7303550000000  0.4633120000000 1.0
C      1  0.3722570000000  0.6057440000000  0.7050260000000 1.0
C      1  0.3722490000000  0.3341090000000  0.6646900000000 1.0
C      1  0.3711590000000  0.2916570000000  0.3939100000000 1.0
C      1  0.3703810000000  0.5360350000000  0.2723370000000 1.0
C      1  0.6259330000000  0.2713170000000  0.4659000000000 1.0
C      1  0.6307560000000  0.3879590000000  0.7097340000000 1.0
C      1  0.6284920000000  0.6650610000000  0.6647010000000 1.0
C      1  0.6295130000000  0.7079810000000  0.3930950000000 1.0
C      1  0.6286750000000  0.4646560000000  0.2712070000000 1.0
C      1  0.3794750000000  0.3438810000000  0.5253140000000 1.0
C      1  0.3810500000000  0.4287020000000  0.3647070000000 1.0
C      1  0.3812120000000  0.6089000000000  0.3908430000000 1.0
C      1  0.3848690000000  0.6373780000000  0.5683210000000 1.0
C      1  0.3822910000000  0.4749780000000  0.6522080000000 1.0
C      1  0.6211270000000  0.6566020000000  0.5245710000000 1.0
C      1  0.6188640000000  0.5709060000000  0.3645140000000 1.0
C      1  0.6187600000000  0.3912430000000  0.3900270000000 1.0
C      1  0.6142090000000  0.3654050000000  0.5684620000000 1.0
C      1  0.6142020000000  0.5259610000000  0.6481590000000 1.0
C      1  0.4636580000000  0.6915130000000  0.5948760000000 1.0
C      1  0.4631180000000  0.4652810000000  0.7083270000000 1.0
C      1  0.4606400000000  0.2876150000000  0.5336480000000 1.0
C      1  0.4615880000000  0.4034920000000  0.3125590000000 1.0
C      1  0.4624700000000  0.6496580000000  0.3510070000000 1.0
C      1  0.5371340000000  0.3089600000000  0.5952700000000 1.0
C      1  0.5358360000000  0.5344150000000  0.7068120000000 1.0
C      1  0.5400810000000  0.7128610000000  0.5332860000000 1.0
C      1  0.5379890000000  0.5964030000000  0.3130610000000 1.0
C      1  0.5376660000000  0.3505060000000  0.3500500000000 1.0
C      1  0.5677340000000  0.7780780000000  0.3828730000000 1.0
C      1  0.5657940000000  0.6959990000000  0.7276670000000 1.0
C      1  0.5685830000000  0.3379950000000  0.7579450000000 1.0
C      1  0.5663770000000  0.2078050000000  0.4304710000000 1.0
C      1  0.5662080000000  0.4767860000000  0.2021110000000 1.0
C      1  0.4333390000000  0.2220490000000  0.3829600000000 1.0
C      1  0.4348580000000  0.3030390000000  0.7275380000000 1.0
C      1  0.4315100000000  0.6593180000000  0.7544960000000 1.0
C      1  0.4347810000000  0.7932180000000  0.4301630000000 1.0
C      1  0.4324060000000  0.5244420000000  0.2027310000000 1.0
END
