TITL C-1525613-7943-5807 -0.164928026780902 3375 -9145.93844864575 0 0 60 (D5) n - 1
REM
REM in /home/nfs/bkarasulu/CARBON/AIRSS/Generating-Clusters/ReaxFF-fromJPCA2015/Units_Real/Try2-Higher-symm/Only-C60
REM
REM
REM
REM
REM
REM ./C.cell (863b2abdce7293c0672fb3ba77bf323a)
REM AIRSS Version 0.9.1 bugfix July 2018 build 013d7b7c2542+ Fri, 06 Jul 2018 19:26:36 +0100
REM compiler GCC version 9.2.1 20190827 (Red Hat 9.2.1-1)
REM options -cpp -mtune=generic -march=x86-64 -g -O0 -fpre-include=/usr/include/finclude/math-vector-fortran.h
REM seed 168417191 1338263597 -1371582601 -335318516 124630581 -342584628 -1463721338 -1228392100 -1874783930 380309318 -2012887495 1958792920 254730329 -1413418642 -502847653 1818395641 -1788434058 -1588703170 -1812604716 1314863682 2079431036 -612033382 785955394 599730740 -1461924932 2025114542 -1061024423 -774559939 -893607532 1760607618 -547845054 -549393723 914722801
REM
CELL 1.54180   15.00000   15.00000   15.00000   90.00000   90.00000   90.00000
LATT -1
SFAC C  
C      1  0.5921540000000  0.5086020000000  0.2873820000000 1.0
C      1  0.5922470000000  0.3003960000000  0.4260860000000 1.0
C      1  0.5921140000000  0.3681550000000  0.6668850000000 1.0
C      1  0.5923080000000  0.6180450000000  0.6771750000000 1.0
C      1  0.5921150000000  0.7047920000000  0.4423840000000 1.0
C      1  0.4078460000000  0.5086020000000  0.7126180000000 1.0
C      1  0.4077530000000  0.3003960000000  0.5739140000000 1.0
C      1  0.4078860000000  0.3681550000000  0.3331150000000 1.0
C      1  0.4076920000000  0.6180450000000  0.3228250000000 1.0
C      1  0.4078850000000  0.7047920000000  0.5576160000000 1.0
C      1  0.5841270000000  0.6000140000000  0.3302110000000 1.0
C      1  0.5841290000000  0.3694080000000  0.3522510000000 1.0
C      1  0.5840540000000  0.3193330000000  0.5786030000000 1.0
C      1  0.5841430000000  0.5187930000000  0.6963430000000 1.0
C      1  0.5840320000000  0.6923310000000  0.5427080000000 1.0
C      1  0.4158730000000  0.6000140000000  0.6697890000000 1.0
C      1  0.4158710000000  0.3694080000000  0.6477490000000 1.0
C      1  0.4159460000000  0.3193330000000  0.4213970000000 1.0
C      1  0.4158570000000  0.5187930000000  0.3036570000000 1.0
C      1  0.4159680000000  0.6923310000000  0.4572920000000 1.0
C      1  0.6948430000000  0.4160110000000  0.4995310000000 1.0
C      1  0.6948520000000  0.4735030000000  0.5798040000000 1.0
C      1  0.6948300000000  0.5676660000000  0.5498270000000 1.0
C      1  0.6948170000000  0.5682920000000  0.4509590000000 1.0
C      1  0.6948520000000  0.4745380000000  0.4198870000000 1.0
C      1  0.3051570000000  0.4160110000000  0.5004690000000 1.0
C      1  0.3051480000000  0.4735030000000  0.4201960000000 1.0
C      1  0.3051700000000  0.5676660000000  0.4501730000000 1.0
C      1  0.3051830000000  0.5682920000000  0.5490410000000 1.0
C      1  0.3051480000000  0.4745380000000  0.5801130000000 1.0
C      1  0.4496780000000  0.5207290000000  0.4177190000000 1.0
C      1  0.4499190000000  0.4276680000000  0.4547410000000 1.0
C      1  0.4498030000000  0.4346360000000  0.5544340000000 1.0
C      1  0.4497440000000  0.5318510000000  0.5787700000000 1.0
C      1  0.4500130000000  0.5852110000000  0.4942270000000 1.0
C      1  0.5503220000000  0.5207290000000  0.5822810000000 1.0
C      1  0.5500810000000  0.4276680000000  0.5452590000000 1.0
C      1  0.5501970000000  0.4346360000000  0.4455660000000 1.0
C      1  0.5502560000000  0.5318510000000  0.4212300000000 1.0
C      1  0.5499870000000  0.5852110000000  0.5057730000000 1.0
C      1  0.3532860000000  0.4469740000000  0.6612260000000 1.0
C      1  0.3532960000000  0.6368770000000  0.6003030000000 1.0
C      1  0.3533480000000  0.6376220000000  0.4007910000000 1.0
C      1  0.3532260000000  0.4481780000000  0.3383810000000 1.0
C      1  0.3532810000000  0.3303140000000  0.4993730000000 1.0
C      1  0.6467140000000  0.4469740000000  0.3387740000000 1.0
C      1  0.6467040000000  0.6368770000000  0.3996970000000 1.0
C      1  0.6466520000000  0.6376220000000  0.5992090000000 1.0
C      1  0.6467740000000  0.4481780000000  0.6616190000000 1.0
C      1  0.6467190000000  0.3303140000000  0.5006270000000 1.0
C      1  0.5030760000000  0.7125310000000  0.4039430000000 1.0
C      1  0.5029760000000  0.4744050000000  0.2682520000000 1.0
C      1  0.5030550000000  0.2715680000000  0.4526800000000 1.0
C      1  0.5030230000000  0.3845490000000  0.7025780000000 1.0
C      1  0.5029020000000  0.6570080000000  0.6724130000000 1.0
C      1  0.4969240000000  0.7125310000000  0.5960570000000 1.0
C      1  0.4970240000000  0.4744050000000  0.7317480000000 1.0
C      1  0.4969450000000  0.2715680000000  0.5473200000000 1.0
C      1  0.4969770000000  0.3845490000000  0.2974220000000 1.0
C      1  0.4970980000000  0.6570080000000  0.3275870000000 1.0
END
