TITL C-1525613-7943-3159 0.26088258251794 3375 -8232.62529697678 0 0 60 (C1) n - 1
REM
REM in /home/nfs/bkarasulu/CARBON/AIRSS/Generating-Clusters/ReaxFF-fromJPCA2015/Units_Real/Try2-Higher-symm/Only-C60
REM
REM
REM
REM
REM
REM ./C.cell (863b2abdce7293c0672fb3ba77bf323a)
REM AIRSS Version 0.9.1 bugfix July 2018 build 013d7b7c2542+ Fri, 06 Jul 2018 19:26:36 +0100
REM compiler GCC version 9.2.1 20190827 (Red Hat 9.2.1-1)
REM options -cpp -mtune=generic -march=x86-64 -g -O0 -fpre-include=/usr/include/finclude/math-vector-fortran.h
REM seed 610729621 -52123118 -2121069532 224794956 -1331647278 1380244479 -1524773073 388019364 -2070797908 -1348138884 -1119617695 406791992 659670742 -1342248892 618933489 -1560715220 569037738 -1332710609 1349336975 659822901 1956497108 317470727 -239113419 336658449 1918769094 -1966984434 -124022742 -936721619 -279521004 -1416881510 -1507559826 -1816637633 1451162692
REM
CELL 1.54180   15.00000   15.00000   15.00000   90.00000   90.00000   90.00000
LATT -1
SFAC C  
C      1  0.4939690000000  0.2845250000000  0.3460580000000 1.0
C      1  0.4042270000000  0.2976990000000  0.3794680000000 1.0
C      1  0.3429340000000  0.2810570000000  0.4516940000000 1.0
C      1  0.3507970000000  0.2882220000000  0.5483030000000 1.0
C      1  0.4079040000000  0.2945260000000  0.6236980000000 1.0
C      1  0.5020420000000  0.2817140000000  0.6453690000000 1.0
C      1  0.5966410000000  0.2897810000000  0.6220380000000 1.0
C      1  0.6516280000000  0.2857920000000  0.5421810000000 1.0
C      1  0.6456640000000  0.2885580000000  0.4452630000000 1.0
C      1  0.5870790000000  0.2923130000000  0.3696160000000 1.0
C      1  0.6633600000000  0.3838260000000  0.5433250000000 1.0
C      1  0.6515080000000  0.3884260000000  0.4455240000000 1.0
C      1  0.5971330000000  0.3902760000000  0.3559770000000 1.0
C      1  0.4956040000000  0.3807150000000  0.3215990000000 1.0
C      1  0.4075760000000  0.3914870000000  0.3606410000000 1.0
C      1  0.3164390000000  0.3765640000000  0.4490700000000 1.0
C      1  0.3352030000000  0.3816730000000  0.5436640000000 1.0
C      1  0.4117720000000  0.3852420000000  0.6592990000000 1.0
C      1  0.5048270000000  0.3702670000000  0.6814100000000 1.0
C      1  0.5938550000000  0.3898300000000  0.6420340000000 1.0
C      1  0.3174740000000  0.5417150000000  0.3307690000000 1.0
C      1  0.2652050000000  0.5371620000000  0.4143080000000 1.0
C      1  0.3234050000000  0.5446950000000  0.6265040000000 1.0
C      1  0.3877620000000  0.5484550000000  0.7132960000000 1.0
C      1  0.4871950000000  0.5485400000000  0.7288710000000 1.0
C      1  0.6766340000000  0.5402980000000  0.6674620000000 1.0
C      1  0.7288100000000  0.5388850000000  0.5882780000000 1.0
C      1  0.6883490000000  0.5419390000000  0.3810990000000 1.0
C      1  0.6176040000000  0.5450400000000  0.2914650000000 1.0
C      1  0.5148040000000  0.5412710000000  0.2718230000000 1.0
C      1  0.2684200000000  0.6380960000000  0.4487780000000 1.0
C      1  0.2875820000000  0.6391790000000  0.6015510000000 1.0
C      1  0.3776270000000  0.6539140000000  0.7109830000000 1.0
C      1  0.5177640000000  0.6477020000000  0.7333420000000 1.0
C      1  0.6588570000000  0.6412670000000  0.6771770000000 1.0
C      1  0.7305470000000  0.6398410000000  0.5529670000000 1.0
C      1  0.7151850000000  0.6407000000000  0.4002260000000 1.0
C      1  0.6237340000000  0.6516230000000  0.2903760000000 1.0
C      1  0.4823140000000  0.6408670000000  0.2672710000000 1.0
C      1  0.3404890000000  0.6443380000000  0.3228680000000 1.0
C      1  0.5496300000000  0.4799350000000  0.7587130000000 1.0
C      1  0.6308300000000  0.4628660000000  0.7004310000000 1.0
C      1  0.7488490000000  0.4505220000000  0.5503200000000 1.0
C      1  0.7310000000000  0.4657330000000  0.4195010000000 1.0
C      1  0.6493490000000  0.4502810000000  0.2863150000000 1.0
C      1  0.4764210000000  0.4607290000000  0.2407560000000 1.0
C      1  0.3539810000000  0.4576510000000  0.2966430000000 1.0
C      1  0.2414600000000  0.4483190000000  0.4403110000000 1.0
C      1  0.2910530000000  0.4602190000000  0.5918230000000 1.0
C      1  0.3570420000000  0.4454810000000  0.7167440000000 1.0
C      1  0.3367410000000  0.6920910000000  0.6473260000000 1.0
C      1  0.4511530000000  0.6956960000000  0.7097480000000 1.0
C      1  0.5836300000000  0.6785980000000  0.6926700000000 1.0
C      1  0.6838980000000  0.6843920000000  0.6066270000000 1.0
C      1  0.7132670000000  0.6724750000000  0.4777900000000 1.0
C      1  0.6628660000000  0.6897980000000  0.3537840000000 1.0
C      1  0.5488460000000  0.6898470000000  0.2894070000000 1.0
C      1  0.4163840000000  0.6749780000000  0.3069480000000 1.0
C      1  0.3164840000000  0.6822340000000  0.3947170000000 1.0
C      1  0.2871940000000  0.6701380000000  0.5237790000000 1.0
END
