TITL C-1525613-7943-7412 0.0711975996775294 3375 -9082.69041782946 0 0 60 (C1) n - 1
REM
REM in /home/nfs/bkarasulu/CARBON/AIRSS/Generating-Clusters/ReaxFF-fromJPCA2015/Units_Real/Try2-Higher-symm/Only-C60
REM
REM
REM
REM
REM
REM ./C.cell (863b2abdce7293c0672fb3ba77bf323a)
REM AIRSS Version 0.9.1 bugfix July 2018 build 013d7b7c2542+ Fri, 06 Jul 2018 19:26:36 +0100
REM compiler GCC version 9.2.1 20190827 (Red Hat 9.2.1-1)
REM options -cpp -mtune=generic -march=x86-64 -g -O0 -fpre-include=/usr/include/finclude/math-vector-fortran.h
REM seed 1572755179 1413719340 -439394784 -1643608999 -162645624 1690993527 -414365801 -1932526669 837262052 1959778795 447345316 1409382325 1864085566 -1701259965 -362030267 -2048091589 -2145972127 -1373376183 -1322096817 -925838105 -542555790 -1092287431 1887962694 1562532597 -332876223 1963951013 -1789683414 -1424764468 225889129 533825590 1838211078 -385056220 -1097220585
REM
CELL 1.54180   15.00000   15.00000   15.00000   90.00000   90.00000   90.00000
LATT -1
SFAC C  
C      1  0.3502380000000  0.3417560000000  0.5490650000000 1.0
C      1  0.4076830000000  0.3489480000000  0.3724200000000 1.0
C      1  0.5934720000000  0.3453710000000  0.3724930000000 1.0
C      1  0.6486510000000  0.3472230000000  0.5484670000000 1.0
C      1  0.4999030000000  0.3439120000000  0.6574440000000 1.0
C      1  0.3517880000000  0.3489480000000  0.4521760000000 1.0
C      1  0.4078410000000  0.3442130000000  0.6273460000000 1.0
C      1  0.5925810000000  0.3411930000000  0.6276990000000 1.0
C      1  0.6500450000000  0.3481150000000  0.4514630000000 1.0
C      1  0.5001170000000  0.3486110000000  0.3421380000000 1.0
C      1  0.4998740000000  0.6469870000000  0.6522580000000 1.0
C      1  0.3581920000000  0.6383870000000  0.5479390000000 1.0
C      1  0.4102730000000  0.6444610000000  0.3794590000000 1.0
C      1  0.5876340000000  0.6436900000000  0.3793970000000 1.0
C      1  0.6422090000000  0.6416650000000  0.5475100000000 1.0
C      1  0.4997200000000  0.6414490000000  0.3515920000000 1.0
C      1  0.3562200000000  0.6440250000000  0.4543320000000 1.0
C      1  0.4110100000000  0.6465790000000  0.6228930000000 1.0
C      1  0.5872080000000  0.6418590000000  0.6234740000000 1.0
C      1  0.6427120000000  0.6433720000000  0.4551440000000 1.0
C      1  0.3761520000000  0.3806800000000  0.2822850000000 1.0
C      1  0.6690480000000  0.3790650000000  0.3150790000000 1.0
C      1  0.7265980000000  0.3785410000000  0.6031060000000 1.0
C      1  0.4759470000000  0.3914560000000  0.7427080000000 1.0
C      1  0.2553030000000  0.3746770000000  0.5519270000000 1.0
C      1  0.3770540000000  0.3913410000000  0.7105820000000 1.0
C      1  0.6675090000000  0.3746820000000  0.6856600000000 1.0
C      1  0.7287290000000  0.3791240000000  0.3970310000000 1.0
C      1  0.4723460000000  0.3806440000000  0.2507530000000 1.0
C      1  0.2564290000000  0.3798990000000  0.4505210000000 1.0
C      1  0.3307470000000  0.4715910000000  0.7079720000000 1.0
C      1  0.2276200000000  0.4612460000000  0.4035810000000 1.0
C      1  0.5092240000000  0.4617500000000  0.2092360000000 1.0
C      1  0.7764060000000  0.4622250000000  0.4182820000000 1.0
C      1  0.6583710000000  0.4562380000000  0.7392270000000 1.0
C      1  0.3235940000000  0.4628620000000  0.2715580000000 1.0
C      1  0.2291140000000  0.4549290000000  0.6019150000000 1.0
C      1  0.5151690000000  0.4717540000000  0.7675480000000 1.0
C      1  0.7768110000000  0.4602580000000  0.5816660000000 1.0
C      1  0.6619940000000  0.4619710000000  0.2633560000000 1.0
C      1  0.6347430000000  0.5542110000000  0.2496420000000 1.0
C      1  0.7807890000000  0.5526280000000  0.5515660000000 1.0
C      1  0.5350720000000  0.5583720000000  0.7845530000000 1.0
C      1  0.2434260000000  0.5485940000000  0.6272450000000 1.0
C      1  0.3020290000000  0.5547930000000  0.2942450000000 1.0
C      1  0.6327000000000  0.5495030000000  0.7534280000000 1.0
C      1  0.7805610000000  0.5540150000000  0.4496640000000 1.0
C      1  0.5383900000000  0.5543760000000  0.2175310000000 1.0
C      1  0.2423620000000  0.5535810000000  0.3767010000000 1.0
C      1  0.3040530000000  0.5579010000000  0.7096610000000 1.0
C      1  0.7178900000000  0.6137100000000  0.4029380000000 1.0
C      1  0.6592280000000  0.6088980000000  0.6782530000000 1.0
C      1  0.3800200000000  0.6225390000000  0.7111180000000 1.0
C      1  0.2654320000000  0.6114990000000  0.4526910000000 1.0
C      1  0.4739360000000  0.6121440000000  0.2639090000000 1.0
C      1  0.7170470000000  0.6102100000000  0.5992330000000 1.0
C      1  0.6601140000000  0.6137530000000  0.3237740000000 1.0
C      1  0.3803430000000  0.6142750000000  0.2930880000000 1.0
C      1  0.2678480000000  0.6063540000000  0.5504600000000 1.0
C      1  0.4724840000000  0.6229450000000  0.7416000000000 1.0
END
