TITL C-1525613-7943-981 0.0848988028987317 3375 -9116.7218817839 0 0 60 (C5v) n - 1
REM
REM in /home/nfs/bkarasulu/CARBON/AIRSS/Generating-Clusters/ReaxFF-fromJPCA2015/Units_Real/Try2-Higher-symm/Only-C60
REM
REM
REM
REM
REM
REM ./C.cell (863b2abdce7293c0672fb3ba77bf323a)
REM AIRSS Version 0.9.1 bugfix July 2018 build 013d7b7c2542+ Fri, 06 Jul 2018 19:26:36 +0100
REM compiler GCC version 9.2.1 20190827 (Red Hat 9.2.1-1)
REM options -cpp -mtune=generic -march=x86-64 -g -O0 -fpre-include=/usr/include/finclude/math-vector-fortran.h
REM seed 2011595645 -904984613 -1967298120 1210501230 -599173901 -1675171897 -1076917393 680176519 -731774868 1446760757 -1339823503 -1523239964 -727604649 570408579 -7497651 -1404891486 -616919448 1354440055 -905608065 -2057309005 -975327 -1070953413 605923074 747789597 -762000694 -1280426383 499791681 -2112575632 -1800955353 -587311038 -974846708 -349532988 615157740
REM
CELL 1.54180   15.00000   15.00000   15.00000   90.00000   90.00000   90.00000
LATT -1
SFAC C  
C      1  0.5387540000000  0.2273910000000  0.5327980000000 1.0
C      1  0.7365620000000  0.3618470000000  0.5331220000000 1.0
C      1  0.7696750000000  0.4496580000000  0.5338040000000 1.0
C      1  0.7047060000000  0.6842510000000  0.5337680000000 1.0
C      1  0.6309250000000  0.7416790000000  0.5334900000000 1.0
C      1  0.3878280000000  0.7513900000000  0.5334310000000 1.0
C      1  0.3105420000000  0.6988260000000  0.5337360000000 1.0
C      1  0.2268970000000  0.4704170000000  0.5341570000000 1.0
C      1  0.2519760000000  0.3803170000000  0.5339900000000 1.0
C      1  0.4447820000000  0.2303150000000  0.5331850000000 1.0
C      1  0.5084080000000  0.7173600000000  0.6451800000000 1.0
C      1  0.3816750000000  0.6776270000000  0.6602590000000 1.0
C      1  0.2983850000000  0.5740070000000  0.6453790000000 1.0
C      1  0.2963590000000  0.4408910000000  0.6594550000000 1.0
C      1  0.3663680000000  0.3279800000000  0.6447970000000 1.0
C      1  0.4915290000000  0.2845090000000  0.6608770000000 1.0
C      1  0.6190890000000  0.3211000000000  0.6468950000000 1.0
C      1  0.6995670000000  0.4266470000000  0.6606830000000 1.0
C      1  0.7068860000000  0.5589960000000  0.6445060000000 1.0
C      1  0.6321730000000  0.6688230000000  0.6598880000000 1.0
C      1  0.5698410000000  0.2433780000000  0.4434100000000 1.0
C      1  0.7103840000000  0.3386140000000  0.4437850000000 1.0
C      1  0.7690430000000  0.4847060000000  0.4438560000000 1.0
C      1  0.7218650000000  0.6540320000000  0.4435720000000 1.0
C      1  0.5976580000000  0.7514180000000  0.4435010000000 1.0
C      1  0.4215110000000  0.7581110000000  0.4433440000000 1.0
C      1  0.2911660000000  0.6701000000000  0.4435670000000 1.0
C      1  0.2309110000000  0.5048050000000  0.4439530000000 1.0
C      1  0.2737980000000  0.3533880000000  0.4435750000000 1.0
C      1  0.4126020000000  0.2450670000000  0.4432380000000 1.0
C      1  0.4042180000000  0.3782450000000  0.3527960000000 1.0
C      1  0.4938830000000  0.3430300000000  0.3410780000000 1.0
C      1  0.5850590000000  0.3727890000000  0.3555700000000 1.0
C      1  0.6467110000000  0.4463870000000  0.3420800000000 1.0
C      1  0.6482370000000  0.5425570000000  0.3538020000000 1.0
C      1  0.5974860000000  0.6242260000000  0.3410470000000 1.0
C      1  0.5056740000000  0.6543730000000  0.3528420000000 1.0
C      1  0.4121310000000  0.6309440000000  0.3401790000000 1.0
C      1  0.3556550000000  0.5528220000000  0.3528840000000 1.0
C      1  0.3483250000000  0.4566050000000  0.3402500000000 1.0
C      1  0.2910420000000  0.3632350000000  0.6229980000000 1.0
C      1  0.4178500000000  0.2619220000000  0.6228600000000 1.0
C      1  0.5650830000000  0.2579550000000  0.6236760000000 1.0
C      1  0.6975340000000  0.3486570000000  0.6236430000000 1.0
C      1  0.7488970000000  0.4865160000000  0.6230760000000 1.0
C      1  0.7054420000000  0.6421670000000  0.6229300000000 1.0
C      1  0.5899480000000  0.7342650000000  0.6226110000000 1.0
C      1  0.4280020000000  0.7404940000000  0.6234970000000 1.0
C      1  0.3062630000000  0.6573160000000  0.6237370000000 1.0
C      1  0.2516400000000  0.5051240000000  0.6232660000000 1.0
C      1  0.2812870000000  0.5801850000000  0.4092850000000 1.0
C      1  0.2674290000000  0.4335330000000  0.3892880000000 1.0
C      1  0.3559420000000  0.3154640000000  0.4090030000000 1.0
C      1  0.4920250000000  0.2589540000000  0.3899060000000 1.0
C      1  0.6281810000000  0.3086400000000  0.4112450000000 1.0
C      1  0.7253600000000  0.4166410000000  0.3905400000000 1.0
C      1  0.7252300000000  0.5637060000000  0.4090200000000 1.0
C      1  0.6498780000000  0.6903570000000  0.3896400000000 1.0
C      1  0.5085960000000  0.7339860000000  0.4089760000000 1.0
C      1  0.3651250000000  0.7012580000000  0.3890770000000 1.0
END
