TITL C-1525613-7943-4964 -0.0531128908114749 3375 -9243.78956420046 0 0 60 (C1) n - 1
REM
REM in /home/nfs/bkarasulu/CARBON/AIRSS/Generating-Clusters/ReaxFF-fromJPCA2015/Units_Real/Try2-Higher-symm/Only-C60
REM
REM
REM
REM
REM
REM ./C.cell (863b2abdce7293c0672fb3ba77bf323a)
REM AIRSS Version 0.9.1 bugfix July 2018 build 013d7b7c2542+ Fri, 06 Jul 2018 19:26:36 +0100
REM compiler GCC version 9.2.1 20190827 (Red Hat 9.2.1-1)
REM options -cpp -mtune=generic -march=x86-64 -g -O0 -fpre-include=/usr/include/finclude/math-vector-fortran.h
REM seed 1059910745 -2053283168 -1065381620 -237473239 152014717 362049329 -2025774602 -1868542237 -1761006849 953715733 -1827962193 1371630649 1687113848 -1000089839 -97183759 -38631332 -736031167 832468895 -484358061 -1479946962 1808938122 -1936103649 -782426807 -488945282 -2054210823 2121534556 1427185733 923479462 -1822977895 1631929763 -1080588799 674487559 -1044672359
REM
CELL 1.54180   15.00000   15.00000   15.00000   90.00000   90.00000   90.00000
LATT -1
SFAC C  
C      1  0.3800660000000  0.6903080000000  0.3936010000000 1.0
C      1  0.4706720000000  0.6929980000000  0.3831780000000 1.0
C      1  0.5553420000000  0.6761760000000  0.3562510000000 1.0
C      1  0.6341600000000  0.6792470000000  0.4245840000000 1.0
C      1  0.6178410000000  0.6953730000000  0.5119950000000 1.0
C      1  0.6229130000000  0.6923490000000  0.6020740000000 1.0
C      1  0.5358070000000  0.6868970000000  0.6571780000000 1.0
C      1  0.4635160000000  0.7127510000000  0.6083160000000 1.0
C      1  0.4003670000000  0.7166970000000  0.5545220000000 1.0
C      1  0.3409630000000  0.6936430000000  0.4888920000000 1.0
C      1  0.5104820000000  0.4534550000000  0.2476340000000 1.0
C      1  0.6394720000000  0.4711870000000  0.3493230000000 1.0
C      1  0.7717260000000  0.4718290000000  0.4508360000000 1.0
C      1  0.7642780000000  0.4894930000000  0.6070070000000 1.0
C      1  0.6400780000000  0.5019740000000  0.7040820000000 1.0
C      1  0.4871160000000  0.4536640000000  0.7470090000000 1.0
C      1  0.3305710000000  0.4355530000000  0.6848940000000 1.0
C      1  0.2321310000000  0.4736310000000  0.5549230000000 1.0
C      1  0.2673720000000  0.5068730000000  0.4033580000000 1.0
C      1  0.3407040000000  0.4787410000000  0.2655420000000 1.0
C      1  0.2772530000000  0.5007800000000  0.6364130000000 1.0
C      1  0.2537270000000  0.5432380000000  0.4911970000000 1.0
C      1  0.3054670000000  0.5477140000000  0.3236980000000 1.0
C      1  0.4281800000000  0.5039590000000  0.2338660000000 1.0
C      1  0.5731350000000  0.5109920000000  0.2912440000000 1.0
C      1  0.7084330000000  0.5203860000000  0.3966420000000 1.0
C      1  0.7900350000000  0.5255170000000  0.5258580000000 1.0
C      1  0.7076920000000  0.5506510000000  0.6555520000000 1.0
C      1  0.5490890000000  0.5245990000000  0.7227910000000 1.0
C      1  0.3992470000000  0.4896610000000  0.7272770000000 1.0
C      1  0.5350710000000  0.6013620000000  0.2947540000000 1.0
C      1  0.7048620000000  0.6106990000000  0.4317490000000 1.0
C      1  0.7477670000000  0.6094260000000  0.5181330000000 1.0
C      1  0.7019260000000  0.6319540000000  0.6019260000000 1.0
C      1  0.4981050000000  0.6027210000000  0.6884710000000 1.0
C      1  0.4029710000000  0.5774720000000  0.6859630000000 1.0
C      1  0.3263430000000  0.5840770000000  0.6265070000000 1.0
C      1  0.3065170000000  0.6149820000000  0.5350410000000 1.0
C      1  0.3648190000000  0.6256120000000  0.3198110000000 1.0
C      1  0.4418170000000  0.5941940000000  0.2670520000000 1.0
C      1  0.6105730000000  0.3382040000000  0.6463220000000 1.0
C      1  0.5323940000000  0.2953440000000  0.6651650000000 1.0
C      1  0.4327940000000  0.3071360000000  0.6865130000000 1.0
C      1  0.3107030000000  0.3223070000000  0.5620280000000 1.0
C      1  0.3063560000000  0.3453240000000  0.4638850000000 1.0
C      1  0.3853950000000  0.3364050000000  0.3541130000000 1.0
C      1  0.4688600000000  0.3035590000000  0.3288240000000 1.0
C      1  0.5670270000000  0.3258260000000  0.3228810000000 1.0
C      1  0.6776570000000  0.3340970000000  0.4421000000000 1.0
C      1  0.6967680000000  0.3435840000000  0.5398470000000 1.0
C      1  0.2407210000000  0.3784350000000  0.5304000000000 1.0
C      1  0.2764160000000  0.4085830000000  0.3951100000000 1.0
C      1  0.3225110000000  0.3912330000000  0.3096750000000 1.0
C      1  0.5147110000000  0.3600060000000  0.2602190000000 1.0
C      1  0.6273720000000  0.3783420000000  0.3722060000000 1.0
C      1  0.7575270000000  0.3769400000000  0.4698180000000 1.0
C      1  0.7294660000000  0.3989720000000  0.6138230000000 1.0
C      1  0.6625790000000  0.4062550000000  0.6847150000000 1.0
C      1  0.4953630000000  0.3556040000000  0.7395300000000 1.0
C      1  0.3567780000000  0.3510110000000  0.6436820000000 1.0
END
