TITL C-1525613-7943-127 0.208106975284497 3375 -9174.46746597676 0 0 60 (Cs) n - 1
REM
REM in /home/nfs/bkarasulu/CARBON/AIRSS/Generating-Clusters/ReaxFF-fromJPCA2015/Units_Real/Try2-Higher-symm/Only-C60
REM
REM
REM
REM
REM
REM ./C.cell (863b2abdce7293c0672fb3ba77bf323a)
REM AIRSS Version 0.9.1 bugfix July 2018 build 013d7b7c2542+ Fri, 06 Jul 2018 19:26:36 +0100
REM compiler GCC version 9.2.1 20190827 (Red Hat 9.2.1-1)
REM options -cpp -mtune=generic -march=x86-64 -g -O0 -fpre-include=/usr/include/finclude/math-vector-fortran.h
REM seed -1188207342 1202121735 -1319947166 -1537462903 1005570296 -135328765 1575874878 2057746623 -1187711081 -402567602 1754783373 1688969271 -727087499 1977619909 -488620684 1296070597 1037130558 -28954220 -386875213 -315396007 -1817561569 842708507 2106385731 -333251976 246532012 1576152713 1989336374 -1332509191 1560252533 872560522 1805510776 -797460337 2017081832
REM
CELL 1.54180   15.00000   15.00000   15.00000   90.00000   90.00000   90.00000
LATT -1
SFAC C  
C      1  0.6214990000000  0.3515400000000  0.3343440000000 1.0
C      1  0.6254240000000  0.6129720000000  0.3051480000000 1.0
C      1  0.6002150000000  0.7231460000000  0.5488430000000 1.0
C      1  0.6226790000000  0.5237410000000  0.7197820000000 1.0
C      1  0.6223930000000  0.2955410000000  0.5916710000000 1.0
C      1  0.6215420000000  0.3514590000000  0.6657600000000 1.0
C      1  0.6254380000000  0.6130140000000  0.6948250000000 1.0
C      1  0.6002370000000  0.7231270000000  0.4512050000000 1.0
C      1  0.6226730000000  0.5237120000000  0.2802740000000 1.0
C      1  0.6223000000000  0.2957700000000  0.4084000000000 1.0
C      1  0.5282020000000  0.7244200000000  0.6154740000000 1.0
C      1  0.5400610000000  0.4756400000000  0.7290810000000 1.0
C      1  0.5414060000000  0.2717440000000  0.5480880000000 1.0
C      1  0.5407880000000  0.3850390000000  0.2992710000000 1.0
C      1  0.5452050000000  0.6570770000000  0.3184950000000 1.0
C      1  0.5281900000000  0.7244040000000  0.3845910000000 1.0
C      1  0.5400980000000  0.4755980000000  0.2708210000000 1.0
C      1  0.5414170000000  0.2717750000000  0.4518150000000 1.0
C      1  0.5408240000000  0.3850630000000  0.7006370000000 1.0
C      1  0.5451960000000  0.6570590000000  0.6815160000000 1.0
C      1  0.4588110000000  0.3457760000000  0.3290590000000 1.0
C      1  0.4629070000000  0.6199290000000  0.2847370000000 1.0
C      1  0.4312530000000  0.6641010000000  0.5448390000000 1.0
C      1  0.4573140000000  0.5243800000000  0.7322980000000 1.0
C      1  0.4594000000000  0.2887460000000  0.5945050000000 1.0
C      1  0.4587780000000  0.3459090000000  0.6708110000000 1.0
C      1  0.4628630000000  0.6199070000000  0.7151980000000 1.0
C      1  0.4312170000000  0.6641040000000  0.4551640000000 1.0
C      1  0.4573610000000  0.5243300000000  0.2676790000000 1.0
C      1  0.4594520000000  0.2883600000000  0.4052110000000 1.0
C      1  0.4295600000000  0.7293940000000  0.3903690000000 1.0
C      1  0.3924350000000  0.6878840000000  0.6935390000000 1.0
C      1  0.3753760000000  0.3897850000000  0.6909210000000 1.0
C      1  0.3786640000000  0.2810060000000  0.4535240000000 1.0
C      1  0.3735080000000  0.4777700000000  0.2778290000000 1.0
C      1  0.4295500000000  0.7293570000000  0.6096720000000 1.0
C      1  0.3924880000000  0.6879390000000  0.3063770000000 1.0
C      1  0.3754120000000  0.3897970000000  0.3092410000000 1.0
C      1  0.3789160000000  0.2816850000000  0.5461480000000 1.0
C      1  0.3733760000000  0.4777830000000  0.7223080000000 1.0
C      1  0.2995630000000  0.4980480000000  0.3434760000000 1.0
C      1  0.3340530000000  0.6445350000000  0.4438310000000 1.0
C      1  0.3146430000000  0.5724730000000  0.6040760000000 1.0
C      1  0.3055020000000  0.4012910000000  0.6285870000000 1.0
C      1  0.3074560000000  0.3467400000000  0.4506050000000 1.0
C      1  0.2995740000000  0.4980270000000  0.6566390000000 1.0
C      1  0.3340050000000  0.6444810000000  0.5560980000000 1.0
C      1  0.3145940000000  0.5725370000000  0.3959540000000 1.0
C      1  0.3054260000000  0.4013270000000  0.3715210000000 1.0
C      1  0.3082220000000  0.3470980000000  0.5494880000000 1.0
C      1  0.6904560000000  0.4084090000000  0.3733070000000 1.0
C      1  0.6896050000000  0.5957540000000  0.3751300000000 1.0
C      1  0.6711630000000  0.6532060000000  0.5490020000000 1.0
C      1  0.6893200000000  0.5009730000000  0.6532890000000 1.0
C      1  0.6907860000000  0.3484110000000  0.5482970000000 1.0
C      1  0.6904510000000  0.4084320000000  0.6268030000000 1.0
C      1  0.6896770000000  0.5958340000000  0.6249190000000 1.0
C      1  0.6711600000000  0.6531630000000  0.4510530000000 1.0
C      1  0.6893280000000  0.5009450000000  0.3466660000000 1.0
C      1  0.6905840000000  0.3485300000000  0.4517870000000 1.0
END
