TITL C-1525613-7943-987 0.469767400860334 3375 -8274.60533346311 0 0 60 (C1) n - 1
REM
REM in /home/nfs/bkarasulu/CARBON/AIRSS/Generating-Clusters/ReaxFF-fromJPCA2015/Units_Real/Try2-Higher-symm/Only-C60
REM
REM
REM
REM
REM
REM ./C.cell (863b2abdce7293c0672fb3ba77bf323a)
REM AIRSS Version 0.9.1 bugfix July 2018 build 013d7b7c2542+ Fri, 06 Jul 2018 19:26:36 +0100
REM compiler GCC version 9.2.1 20190827 (Red Hat 9.2.1-1)
REM options -cpp -mtune=generic -march=x86-64 -g -O0 -fpre-include=/usr/include/finclude/math-vector-fortran.h
REM seed 146054090 -756266817 1218237287 -511495156 -965169335 301609984 -2020411911 -865607728 -180793128 -7257424 1389375831 -599906173 1708756750 -1666075994 -770898172 -1351644461 -2128356469 -1517083224 -1914916344 -2110522818 -927717262 1934814108 -999398727 -168965038 2018515371 2035620643 556796951 -847486175 -1026685676 489418773 1144663719 1483452104 103417935
REM
CELL 1.54180   15.00000   15.00000   15.00000   90.00000   90.00000   90.00000
LATT -1
SFAC C  
C      1  0.3582520000000  0.7370770000000  0.5806760000000 1.0
C      1  0.3535950000000  0.6467770000000  0.7036970000000 1.0
C      1  0.3558510000000  0.4991950000000  0.7485940000000 1.0
C      1  0.3584560000000  0.3556520000000  0.6986910000000 1.0
C      1  0.3521290000000  0.2558550000000  0.5818850000000 1.0
C      1  0.3713840000000  0.2726450000000  0.4247390000000 1.0
C      1  0.3618510000000  0.3548070000000  0.2965940000000 1.0
C      1  0.3573590000000  0.5012460000000  0.2501370000000 1.0
C      1  0.3652800000000  0.6456880000000  0.3039560000000 1.0
C      1  0.3573460000000  0.7402050000000  0.4229660000000 1.0
C      1  0.6223170000000  0.3169260000000  0.3205050000000 1.0
C      1  0.6828640000000  0.4750160000000  0.2747510000000 1.0
C      1  0.6874430000000  0.6122690000000  0.3192930000000 1.0
C      1  0.6212170000000  0.7139280000000  0.3820150000000 1.0
C      1  0.6829450000000  0.6956940000000  0.5398530000000 1.0
C      1  0.6288010000000  0.6762190000000  0.6651670000000 1.0
C      1  0.6857860000000  0.5183930000000  0.7211250000000 1.0
C      1  0.6785360000000  0.3937680000000  0.6592680000000 1.0
C      1  0.6794530000000  0.2706430000000  0.6027390000000 1.0
C      1  0.6949830000000  0.3265350000000  0.4548350000000 1.0
C      1  0.4660600000000  0.3585480000000  0.2908360000000 1.0
C      1  0.4660560000000  0.5014580000000  0.2540950000000 1.0
C      1  0.4732010000000  0.6441890000000  0.3074960000000 1.0
C      1  0.4649000000000  0.7383900000000  0.4277010000000 1.0
C      1  0.4672650000000  0.7408510000000  0.5881730000000 1.0
C      1  0.4618040000000  0.6420480000000  0.7037500000000 1.0
C      1  0.4632000000000  0.4982140000000  0.7459160000000 1.0
C      1  0.4659240000000  0.3590800000000  0.6976400000000 1.0
C      1  0.4606990000000  0.2582630000000  0.5885230000000 1.0
C      1  0.4802140000000  0.2765220000000  0.4233970000000 1.0
C      1  0.5039380000000  0.4308390000000  0.7163360000000 1.0
C      1  0.5023020000000  0.3251820000000  0.6339380000000 1.0
C      1  0.5031860000000  0.2794230000000  0.5104220000000 1.0
C      1  0.5237620000000  0.3125610000000  0.3420950000000 1.0
C      1  0.5029790000000  0.4338130000000  0.2815180000000 1.0
C      1  0.4988730000000  0.5651430000000  0.2898380000000 1.0
C      1  0.5272520000000  0.6836030000000  0.3790320000000 1.0
C      1  0.4999620000000  0.7229050000000  0.5079970000000 1.0
C      1  0.5218660000000  0.6821620000000  0.6415990000000 1.0
C      1  0.4968910000000  0.5637700000000  0.7114050000000 1.0
C      1  0.6783700000000  0.2965010000000  0.3863820000000 1.0
C      1  0.6668970000000  0.3939390000000  0.2939470000000 1.0
C      1  0.6971820000000  0.5546930000000  0.2600650000000 1.0
C      1  0.7093820000000  0.6871410000000  0.3664980000000 1.0
C      1  0.6820830000000  0.7215550000000  0.4529870000000 1.0
C      1  0.6953270000000  0.6855980000000  0.6145690000000 1.0
C      1  0.6660700000000  0.6017370000000  0.7111050000000 1.0
C      1  0.7023940000000  0.4367020000000  0.7230870000000 1.0
C      1  0.6952760000000  0.3156150000000  0.6729540000000 1.0
C      1  0.6785170000000  0.2759910000000  0.5189940000000 1.0
C      1  0.3180370000000  0.3288020000000  0.3749790000000 1.0
C      1  0.3127910000000  0.4348320000000  0.2968230000000 1.0
C      1  0.3133670000000  0.5680560000000  0.2970500000000 1.0
C      1  0.3129850000000  0.6741990000000  0.3752620000000 1.0
C      1  0.3133900000000  0.7172350000000  0.5015910000000 1.0
C      1  0.3091410000000  0.6735600000000  0.6267550000000 1.0
C      1  0.3078540000000  0.5660350000000  0.7048350000000 1.0
C      1  0.3084530000000  0.4335960000000  0.7028720000000 1.0
C      1  0.3089000000000  0.3253830000000  0.6258880000000 1.0
C      1  0.3174020000000  0.2833270000000  0.5001650000000 1.0
END
