TITL C-1525613-7943-525 -0.0489792107422069 3375 -8908.42170218171 0 0 60 (C5) n - 1
REM
REM in /home/nfs/bkarasulu/CARBON/AIRSS/Generating-Clusters/ReaxFF-fromJPCA2015/Units_Real/Try2-Higher-symm/Only-C60
REM
REM
REM
REM
REM
REM ./C.cell (863b2abdce7293c0672fb3ba77bf323a)
REM AIRSS Version 0.9.1 bugfix July 2018 build 013d7b7c2542+ Fri, 06 Jul 2018 19:26:36 +0100
REM compiler GCC version 9.2.1 20190827 (Red Hat 9.2.1-1)
REM options -cpp -mtune=generic -march=x86-64 -g -O0 -fpre-include=/usr/include/finclude/math-vector-fortran.h
REM seed 1792764257 -1296907218 -604006796 -426038330 1520725432 1217458033 2063522434 299212657 -61295767 -800642623 1432946333 968326996 -100065823 2037903609 369832759 -549929277 907978149 1502365359 1896151156 -273737241 -1380359290 -906149961 -474133100 -1466819668 -107832645 -410408984 -721475946 -1141244131 -2084485683 1837557969 -1001386944 -1577166261 1628370608
REM
CELL 1.54180   15.00000   15.00000   15.00000   90.00000   90.00000   90.00000
LATT -1
SFAC C  
C      1  0.4811280000000  0.7273300000000  0.4517670000000 1.0
C      1  0.2774850000000  0.5542470000000  0.4515520000000 1.0
C      1  0.3799480000000  0.3049280000000  0.4514830000000 1.0
C      1  0.6485570000000  0.3260030000000  0.4516140000000 1.0
C      1  0.7133680000000  0.5863480000000  0.4513850000000 1.0
C      1  0.4811280000000  0.7273300000000  0.5482330000000 1.0
C      1  0.2774850000000  0.5542470000000  0.5484480000000 1.0
C      1  0.3799480000000  0.3049280000000  0.5485170000000 1.0
C      1  0.6485570000000  0.3260030000000  0.5483860000000 1.0
C      1  0.7133680000000  0.5863480000000  0.5486150000000 1.0
C      1  0.5453840000000  0.6414240000000  0.3268390000000 1.0
C      1  0.3776560000000  0.5882160000000  0.3264790000000 1.0
C      1  0.3781250000000  0.4113450000000  0.3253380000000 1.0
C      1  0.5470250000000  0.3571400000000  0.3254590000000 1.0
C      1  0.6508580000000  0.5007220000000  0.3263510000000 1.0
C      1  0.5453840000000  0.6414240000000  0.6731610000000 1.0
C      1  0.3776560000000  0.5882160000000  0.6735210000000 1.0
C      1  0.3781250000000  0.4113450000000  0.6746620000000 1.0
C      1  0.5470250000000  0.3571400000000  0.6745410000000 1.0
C      1  0.6508580000000  0.5007220000000  0.6736490000000 1.0
C      1  0.5847470000000  0.5026850000000  0.7392090000000 1.0
C      1  0.5250440000000  0.5843550000000  0.7404000000000 1.0
C      1  0.4304080000000  0.5486120000000  0.7392880000000 1.0
C      1  0.4316910000000  0.4476500000000  0.7392120000000 1.0
C      1  0.5291540000000  0.4182630000000  0.7392020000000 1.0
C      1  0.5847470000000  0.5026850000000  0.2607910000000 1.0
C      1  0.5250440000000  0.5843550000000  0.2596000000000 1.0
C      1  0.4304080000000  0.5486120000000  0.2607120000000 1.0
C      1  0.4316910000000  0.4476500000000  0.2607880000000 1.0
C      1  0.5291540000000  0.4182630000000  0.2607980000000 1.0
C      1  0.4347770000000  0.5550050000000  0.5520590000000 1.0
C      1  0.4285770000000  0.4550040000000  0.5502520000000 1.0
C      1  0.5204030000000  0.4182940000000  0.5504990000000 1.0
C      1  0.5852160000000  0.4945400000000  0.5523110000000 1.0
C      1  0.5317870000000  0.5785380000000  0.5495600000000 1.0
C      1  0.4347770000000  0.5550050000000  0.4479410000000 1.0
C      1  0.4285770000000  0.4550040000000  0.4497480000000 1.0
C      1  0.5204030000000  0.4182940000000  0.4495010000000 1.0
C      1  0.5852160000000  0.4945400000000  0.4476890000000 1.0
C      1  0.5317870000000  0.5785380000000  0.4504400000000 1.0
C      1  0.3313460000000  0.6255110000000  0.6011620000000 1.0
C      1  0.3308510000000  0.3807070000000  0.6020300000000 1.0
C      1  0.5614680000000  0.3031090000000  0.6025570000000 1.0
C      1  0.7101500000000  0.4966850000000  0.6011230000000 1.0
C      1  0.5656690000000  0.6944080000000  0.6026730000000 1.0
C      1  0.3313460000000  0.6255110000000  0.3988380000000 1.0
C      1  0.3308510000000  0.3807070000000  0.3979700000000 1.0
C      1  0.5614680000000  0.3031090000000  0.3974430000000 1.0
C      1  0.7101500000000  0.4966850000000  0.3988770000000 1.0
C      1  0.5656690000000  0.6944080000000  0.3973270000000 1.0
C      1  0.4743240000000  0.2738910000000  0.4518650000000 1.0
C      1  0.7080870000000  0.4058790000000  0.4516970000000 1.0
C      1  0.6537970000000  0.6661650000000  0.4521090000000 1.0
C      1  0.3858810000000  0.6985890000000  0.4517290000000 1.0
C      1  0.2770890000000  0.4544060000000  0.4519860000000 1.0
C      1  0.4743240000000  0.2738910000000  0.5481350000000 1.0
C      1  0.7080870000000  0.4058790000000  0.5483030000000 1.0
C      1  0.6537970000000  0.6661650000000  0.5478910000000 1.0
C      1  0.3858810000000  0.6985890000000  0.5482710000000 1.0
C      1  0.2770890000000  0.4544060000000  0.5480140000000 1.0
END
