TITL C-1525613-7943-1380 0.198453891917657 3375 -8051.94533966506 0 0 60 (S10) n - 1
REM
REM in /home/nfs/bkarasulu/CARBON/AIRSS/Generating-Clusters/ReaxFF-fromJPCA2015/Units_Real/Try2-Higher-symm/Only-C60
REM
REM
REM
REM
REM
REM ./C.cell (863b2abdce7293c0672fb3ba77bf323a)
REM AIRSS Version 0.9.1 bugfix July 2018 build 013d7b7c2542+ Fri, 06 Jul 2018 19:26:36 +0100
REM compiler GCC version 9.2.1 20190827 (Red Hat 9.2.1-1)
REM options -cpp -mtune=generic -march=x86-64 -g -O0 -fpre-include=/usr/include/finclude/math-vector-fortran.h
REM seed 617208488 1779560666 -81095142 2020509199 1207120948 453432175 -815582021 89680372 -2102203450 208860721 1528452513 1060713825 1734619937 1008727661 1211810783 -1189554767 737385735 -48290881 1855104654 -1024561341 222461249 1723746230 1359188390 -1783056347 -1817459535 242538184 -557010380 74052530 1011708876 1777435775 -770500525 -1985184232 2127494104
REM
CELL 1.54180   15.00000   15.00000   15.00000   90.00000   90.00000   90.00000
LATT -1
SFAC C  
C      1  0.5848740000000  0.6386820000000  0.4610680000000 1.0
C      1  0.4145000000000  0.6345260000000  0.5500510000000 1.0
C      1  0.5848260000000  0.5793190000000  0.6192550000000 1.0
C      1  0.4155210000000  0.4941220000000  0.6441340000000 1.0
C      1  0.5846620000000  0.4101340000000  0.6133260000000 1.0
C      1  0.4152150000000  0.3611960000000  0.5389120000000 1.0
C      1  0.5856170000000  0.3658010000000  0.4499940000000 1.0
C      1  0.4150070000000  0.4206920000000  0.3806150000000 1.0
C      1  0.5846040000000  0.5059910000000  0.3558500000000 1.0
C      1  0.4150680000000  0.5898060000000  0.3867550000000 1.0
C      1  0.2712930000000  0.4394970000000  0.4422190000000 1.0
C      1  0.7284770000000  0.4848180000000  0.4175950000000 1.0
C      1  0.2712580000000  0.5363110000000  0.4244240000000 1.0
C      1  0.7283950000000  0.5734870000000  0.4602670000000 1.0
C      1  0.2710780000000  0.5830850000000  0.5110480000000 1.0
C      1  0.7287020000000  0.5604840000000  0.5578300000000 1.0
C      1  0.2715420000000  0.5151430000000  0.5823100000000 1.0
C      1  0.7286450000000  0.4636960000000  0.5756070000000 1.0
C      1  0.2715700000000  0.4264120000000  0.5397750000000 1.0
C      1  0.7288860000000  0.4169880000000  0.4889540000000 1.0
C      1  0.3719230000000  0.5227940000000  0.2725220000000 1.0
C      1  0.6284700000000  0.6524140000000  0.3295380000000 1.0
C      1  0.3718430000000  0.7236760000000  0.4519570000000 1.0
C      1  0.6280250000000  0.7089780000000  0.5923520000000 1.0
C      1  0.3718090000000  0.6149480000000  0.6977660000000 1.0
C      1  0.6281420000000  0.4772160000000  0.7275270000000 1.0
C      1  0.3715160000000  0.3475770000000  0.6705200000000 1.0
C      1  0.6282050000000  0.2763250000000  0.5479520000000 1.0
C      1  0.3720290000000  0.2910140000000  0.4076840000000 1.0
C      1  0.6281330000000  0.3851410000000  0.3021700000000 1.0
C      1  0.4364150000000  0.6313110000000  0.7581490000000 1.0
C      1  0.5640080000000  0.4546020000000  0.7862880000000 1.0
C      1  0.4355680000000  0.2946280000000  0.7047680000000 1.0
C      1  0.5637640000000  0.2138040000000  0.5455300000000 1.0
C      1  0.4362650000000  0.2420910000000  0.3682480000000 1.0
C      1  0.5635270000000  0.3686130000000  0.2418540000000 1.0
C      1  0.4361870000000  0.5453640000000  0.2138570000000 1.0
C      1  0.5643870000000  0.7052330000000  0.2952190000000 1.0
C      1  0.4364480000000  0.7860780000000  0.4546040000000 1.0
C      1  0.5636760000000  0.7578410000000  0.6316860000000 1.0
C      1  0.6737150000000  0.4256140000000  0.6468650000000 1.0
C      1  0.3262450000000  0.3534430000000  0.5749200000000 1.0
C      1  0.6742110000000  0.3373420000000  0.4745140000000 1.0
C      1  0.3262300000000  0.3836870000000  0.3838620000000 1.0
C      1  0.6736770000000  0.4741750000000  0.3373980000000 1.0
C      1  0.3261750000000  0.5744000000000  0.3531680000000 1.0
C      1  0.6738630000000  0.6465490000000  0.4251820000000 1.0
C      1  0.3258080000000  0.6626690000000  0.5254970000000 1.0
C      1  0.6736490000000  0.6163140000000  0.6161110000000 1.0
C      1  0.3263770000000  0.5258600000000  0.6624630000000 1.0
C      1  0.4451060000000  0.5869970000000  0.6301390000000 1.0
C      1  0.5546110000000  0.4935070000000  0.6564440000000 1.0
C      1  0.4452490000000  0.4027970000000  0.6230200000000 1.0
C      1  0.5550350000000  0.3492390000000  0.5419860000000 1.0
C      1  0.4452120000000  0.3533740000000  0.4456950000000 1.0
C      1  0.5548840000000  0.4131470000000  0.3697790000000 1.0
C      1  0.4452640000000  0.5065580000000  0.3437120000000 1.0
C      1  0.5549640000000  0.5971910000000  0.3770260000000 1.0
C      1  0.4448640000000  0.6506240000000  0.4578980000000 1.0
C      1  0.5547800000000  0.6466760000000  0.5541420000000 1.0
END
