TITL C-1525613-7943-2867 0.00456269100233253 3375 -8981.35867139784 0 0 60 (C1) n - 1
REM
REM in /home/nfs/bkarasulu/CARBON/AIRSS/Generating-Clusters/ReaxFF-fromJPCA2015/Units_Real/Try2-Higher-symm/Only-C60
REM
REM
REM
REM
REM
REM ./C.cell (863b2abdce7293c0672fb3ba77bf323a)
REM AIRSS Version 0.9.1 bugfix July 2018 build 013d7b7c2542+ Fri, 06 Jul 2018 19:26:36 +0100
REM compiler GCC version 9.2.1 20190827 (Red Hat 9.2.1-1)
REM options -cpp -mtune=generic -march=x86-64 -g -O0 -fpre-include=/usr/include/finclude/math-vector-fortran.h
REM seed -1096975239 -1894820416 -1250315127 -30097460 -662891397 -241479465 -715483591 2512563 197216875 -46934331 -1513435530 -1381832644 1144963699 -553927673 482289400 49466114 -488412035 -109047887 1920838801 1687517903 830386372 -1403397383 2022907170 -1756207632 -996258892 -1918514511 1843576270 -873110077 45723734 1816135681 -911760984 -1072077068 1773650803
REM
CELL 1.54180   15.00000   15.00000   15.00000   90.00000   90.00000   90.00000
LATT -1
SFAC C  
C      1  0.6315880000000  0.5848360000000  0.6829680000000 1.0
C      1  0.6601400000000  0.4920460000000  0.7027490000000 1.0
C      1  0.6305360000000  0.4005380000000  0.6812140000000 1.0
C      1  0.5340370000000  0.3597180000000  0.6752910000000 1.0
C      1  0.4401590000000  0.3529220000000  0.7112020000000 1.0
C      1  0.3673450000000  0.4130510000000  0.6847690000000 1.0
C      1  0.3401700000000  0.5080630000000  0.7021990000000 1.0
C      1  0.3715520000000  0.5971660000000  0.6804390000000 1.0
C      1  0.4629890000000  0.6398330000000  0.6789250000000 1.0
C      1  0.5600860000000  0.6461700000000  0.7101910000000 1.0
C      1  0.2588660000000  0.4628710000000  0.4562360000000 1.0
C      1  0.3357470000000  0.6776960000000  0.4260950000000 1.0
C      1  0.4269200000000  0.7115720000000  0.4333420000000 1.0
C      1  0.5636330000000  0.7572000000000  0.5094760000000 1.0
C      1  0.7155960000000  0.6310210000000  0.4482090000000 1.0
C      1  0.7422220000000  0.5363350000000  0.4554890000000 1.0
C      1  0.6613100000000  0.3241530000000  0.4294980000000 1.0
C      1  0.5723370000000  0.2896420000000  0.4321220000000 1.0
C      1  0.4347930000000  0.2457760000000  0.5089610000000 1.0
C      1  0.2842740000000  0.3686640000000  0.4482780000000 1.0
C      1  0.4854930000000  0.3434490000000  0.2918160000000 1.0
C      1  0.3869010000000  0.3816450000000  0.3081180000000 1.0
C      1  0.3719990000000  0.4686540000000  0.2951960000000 1.0
C      1  0.3561280000000  0.5620780000000  0.2814610000000 1.0
C      1  0.4399830000000  0.6072970000000  0.2807010000000 1.0
C      1  0.5141090000000  0.6558980000000  0.2931200000000 1.0
C      1  0.6122480000000  0.6172460000000  0.3096790000000 1.0
C      1  0.6271900000000  0.5301120000000  0.2964090000000 1.0
C      1  0.6430290000000  0.4370070000000  0.2823070000000 1.0
C      1  0.5596630000000  0.3923300000000  0.2798010000000 1.0
C      1  0.6924740000000  0.3919880000000  0.3648160000000 1.0
C      1  0.4985040000000  0.2841270000000  0.3699260000000 1.0
C      1  0.4145470000000  0.2689830000000  0.4164560000000 1.0
C      1  0.3484530000000  0.3335110000000  0.3868200000000 1.0
C      1  0.2847900000000  0.5264220000000  0.3970550000000 1.0
C      1  0.3054920000000  0.6051260000000  0.3623210000000 1.0
C      1  0.5010100000000  0.7166460000000  0.3708950000000 1.0
C      1  0.5848650000000  0.7315530000000  0.4177960000000 1.0
C      1  0.6501940000000  0.6658070000000  0.3882460000000 1.0
C      1  0.7150870000000  0.4719860000000  0.3971710000000 1.0
C      1  0.3215040000000  0.6640330000000  0.5157340000000 1.0
C      1  0.4692540000000  0.7279190000000  0.5234430000000 1.0
C      1  0.6142310000000  0.7735650000000  0.5919620000000 1.0
C      1  0.7291230000000  0.6718290000000  0.5398310000000 1.0
C      1  0.7601470000000  0.5060740000000  0.5531440000000 1.0
C      1  0.7023390000000  0.3299600000000  0.5221480000000 1.0
C      1  0.5288700000000  0.2748510000000  0.5211050000000 1.0
C      1  0.3845650000000  0.2293020000000  0.5918190000000 1.0
C      1  0.2703110000000  0.3286320000000  0.5405960000000 1.0
C      1  0.2378380000000  0.4938540000000  0.5542450000000 1.0
C      1  0.6903860000000  0.6293460000000  0.6189880000000 1.0
C      1  0.7307060000000  0.4936470000000  0.6399120000000 1.0
C      1  0.6807510000000  0.3643320000000  0.6085460000000 1.0
C      1  0.5498220000000  0.3219170000000  0.5979660000000 1.0
C      1  0.4055510000000  0.2659040000000  0.6827520000000 1.0
C      1  0.3117240000000  0.3706450000000  0.6182900000000 1.0
C      1  0.2692430000000  0.5026910000000  0.6400440000000 1.0
C      1  0.3136000000000  0.6470580000000  0.6097350000000 1.0
C      1  0.4502740000000  0.6802470000000  0.6004320000000 1.0
C      1  0.5933010000000  0.7330580000000  0.6815490000000 1.0
END
