TITL C-1525613-7943-566 0.0479180834379027 3375 -8501.73953440905 0 0 60 (C1) n - 1
REM
REM in /home/nfs/bkarasulu/CARBON/AIRSS/Generating-Clusters/ReaxFF-fromJPCA2015/Units_Real/Try2-Higher-symm/Only-C60
REM
REM
REM
REM
REM
REM ./C.cell (863b2abdce7293c0672fb3ba77bf323a)
REM AIRSS Version 0.9.1 bugfix July 2018 build 013d7b7c2542+ Fri, 06 Jul 2018 19:26:36 +0100
REM compiler GCC version 9.2.1 20190827 (Red Hat 9.2.1-1)
REM options -cpp -mtune=generic -march=x86-64 -g -O0 -fpre-include=/usr/include/finclude/math-vector-fortran.h
REM seed -772206162 1205643070 530112756 1205770843 1495423735 -1709808602 1288388670 -506689314 1680561636 2069422538 -1328188751 531968925 1586100593 -1955614077 2062520615 885275418 -1195953832 2051848678 2074342804 545316197 -1677367036 836882250 1534136693 610794464 -126341421 915359952 -1175305491 1600746647 -450054885 1345839647 4285401 2068143719 743866992
REM
CELL 1.54180   15.00000   15.00000   15.00000   90.00000   90.00000   90.00000
LATT -1
SFAC C  
C      1  0.6338270000000  0.5905120000000  0.6918850000000 1.0
C      1  0.4574590000000  0.6083700000000  0.7317490000000 1.0
C      1  0.3873360000000  0.5483280000000  0.6827730000000 1.0
C      1  0.4462780000000  0.3894930000000  0.6641150000000 1.0
C      1  0.6269950000000  0.4069810000000  0.6839870000000 1.0
C      1  0.3662210000000  0.5905420000000  0.3080940000000 1.0
C      1  0.5425510000000  0.6083560000000  0.2682980000000 1.0
C      1  0.6126470000000  0.5484120000000  0.3172600000000 1.0
C      1  0.5537160000000  0.3894740000000  0.3359340000000 1.0
C      1  0.3730020000000  0.4070100000000  0.3160020000000 1.0
C      1  0.4938470000000  0.6857360000000  0.5487160000000 1.0
C      1  0.3331680000000  0.5505860000000  0.5613770000000 1.0
C      1  0.3955850000000  0.3556230000000  0.5691910000000 1.0
C      1  0.5937020000000  0.3591680000000  0.5318820000000 1.0
C      1  0.6547920000000  0.5501430000000  0.5364440000000 1.0
C      1  0.5063520000000  0.6857080000000  0.4513270000000 1.0
C      1  0.6667400000000  0.5506090000000  0.4388550000000 1.0
C      1  0.6044090000000  0.3556530000000  0.4308590000000 1.0
C      1  0.4063000000000  0.3591790000000  0.4681290000000 1.0
C      1  0.3453970000000  0.5500240000000  0.4636320000000 1.0
C      1  0.7824710000000  0.4594480000000  0.5103080000000 1.0
C      1  0.6306950000000  0.7549170000000  0.5089940000000 1.0
C      1  0.2972340000000  0.6890000000000  0.4833100000000 1.0
C      1  0.2498980000000  0.3667780000000  0.4873240000000 1.0
C      1  0.5495400000000  0.2142750000000  0.4964920000000 1.0
C      1  0.2174590000000  0.4594330000000  0.4896550000000 1.0
C      1  0.3691060000000  0.7548860000000  0.4909540000000 1.0
C      1  0.7027510000000  0.6889800000000  0.5166510000000 1.0
C      1  0.7500750000000  0.3667980000000  0.5126740000000 1.0
C      1  0.4504530000000  0.2142950000000  0.5034500000000 1.0
C      1  0.6713320000000  0.3881490000000  0.5850570000000 1.0
C      1  0.6513100000000  0.6355520000000  0.5910740000000 1.0
C      1  0.4012400000000  0.7106270000000  0.5739570000000 1.0
C      1  0.2671250000000  0.4742870000000  0.5745250000000 1.0
C      1  0.4527650000000  0.2729110000000  0.5830550000000 1.0
C      1  0.3286650000000  0.3881740000000  0.4149690000000 1.0
C      1  0.3487190000000  0.6356170000000  0.4087960000000 1.0
C      1  0.5988250000000  0.7105120000000  0.4259950000000 1.0
C      1  0.7328070000000  0.4742760000000  0.4255520000000 1.0
C      1  0.5472440000000  0.2729030000000  0.4169480000000 1.0
C      1  0.6088650000000  0.4542620000000  0.2876500000000 1.0
C      1  0.5845170000000  0.5276730000000  0.2289010000000 1.0
C      1  0.4535350000000  0.6048120000000  0.2856470000000 1.0
C      1  0.3672850000000  0.4975790000000  0.2944640000000 1.0
C      1  0.4641100000000  0.3989310000000  0.3247680000000 1.0
C      1  0.3910620000000  0.4542870000000  0.7123590000000 1.0
C      1  0.4156780000000  0.5276620000000  0.7711300000000 1.0
C      1  0.5464990000000  0.6048200000000  0.7142660000000 1.0
C      1  0.6327120000000  0.4975570000000  0.7055390000000 1.0
C      1  0.5358940000000  0.3988610000000  0.6751310000000 1.0
C      1  0.2880860000000  0.4837520000000  0.4247320000000 1.0
C      1  0.4485440000000  0.2819100000000  0.4284100000000 1.0
C      1  0.7072070000000  0.3796630000000  0.4262540000000 1.0
C      1  0.6769540000000  0.6500620000000  0.4300020000000 1.0
C      1  0.4187460000000  0.7104860000000  0.4183170000000 1.0
C      1  0.7117680000000  0.4838790000000  0.5751920000000 1.0
C      1  0.5514400000000  0.2818680000000  0.5715620000000 1.0
C      1  0.2927950000000  0.3795950000000  0.5737310000000 1.0
C      1  0.3228870000000  0.6500790000000  0.5701070000000 1.0
C      1  0.5813760000000  0.7105390000000  0.5815890000000 1.0
END
