TITL C-1525613-7943-3046 1.05148512951617 3375 -7108.68609848045 0 0 60 (C1) n - 1
REM
REM in /home/nfs/bkarasulu/CARBON/AIRSS/Generating-Clusters/ReaxFF-fromJPCA2015/Units_Real/Try2-Higher-symm/Only-C60
REM
REM
REM
REM
REM
REM ./C.cell (863b2abdce7293c0672fb3ba77bf323a)
REM AIRSS Version 0.9.1 bugfix July 2018 build 013d7b7c2542+ Fri, 06 Jul 2018 19:26:36 +0100
REM compiler GCC version 9.2.1 20190827 (Red Hat 9.2.1-1)
REM options -cpp -mtune=generic -march=x86-64 -g -O0 -fpre-include=/usr/include/finclude/math-vector-fortran.h
REM seed -89394535 -2028154308 1744999880 -480705524 1126527756 513905060 1084178440 851058765 -615904124 -654584750 -1119662020 725760640 1713599986 -1062023728 1813552691 1020541245 98649656 -1562466262 2029905375 1164797210 -411374544 1864115118 -694768594 382736782 -1281103023 -999874008 130013883 392725009 -735709774 1755243205 486358052 606793529 845682026
REM
CELL 1.54180   15.00000   15.00000   15.00000   90.00000   90.00000   90.00000
LATT -1
SFAC C  
C      1  0.2760030000000  0.5587410000000  0.5642920000000 1.0
C      1  0.4876860000000  0.7317330000000  0.5644980000000 1.0
C      1  0.7165070000000  0.5847610000000  0.5620240000000 1.0
C      1  0.6469450000000  0.3209020000000  0.5657160000000 1.0
C      1  0.3747930000000  0.3056200000000  0.5655460000000 1.0
C      1  0.2748730000000  0.4399430000000  0.4354000000000 1.0
C      1  0.4859580000000  0.2688110000000  0.4341990000000 1.0
C      1  0.7157290000000  0.4159170000000  0.4363330000000 1.0
C      1  0.6470000000000  0.6799950000000  0.4336370000000 1.0
C      1  0.3749980000000  0.6945920000000  0.4360810000000 1.0
C      1  0.3045570000000  0.4339810000000  0.5359250000000 1.0
C      1  0.3676500000000  0.6804320000000  0.5400570000000 1.0
C      1  0.6191830000000  0.6688670000000  0.5362750000000 1.0
C      1  0.7005570000000  0.4380310000000  0.5375810000000 1.0
C      1  0.5027570000000  0.2918710000000  0.5372280000000 1.0
C      1  0.2867730000000  0.5700040000000  0.4597300000000 1.0
C      1  0.3771860000000  0.3356480000000  0.4636590000000 1.0
C      1  0.6197880000000  0.3294840000000  0.4623590000000 1.0
C      1  0.7136940000000  0.5698630000000  0.4633060000000 1.0
C      1  0.5026070000000  0.7061700000000  0.4642270000000 1.0
C      1  0.3059280000000  0.5182430000000  0.3870730000000 1.0
C      1  0.4590830000000  0.6892520000000  0.3854430000000 1.0
C      1  0.6680930000000  0.5986800000000  0.3875130000000 1.0
C      1  0.6459460000000  0.3700490000000  0.3846610000000 1.0
C      1  0.4206280000000  0.3210270000000  0.3846690000000 1.0
C      1  0.3069790000000  0.4801310000000  0.6139450000000 1.0
C      1  0.4580950000000  0.3085930000000  0.6152470000000 1.0
C      1  0.6685990000000  0.4000340000000  0.6159180000000 1.0
C      1  0.6462130000000  0.6296710000000  0.6137260000000 1.0
C      1  0.4227800000000  0.6779130000000  0.6130590000000 1.0
C      1  0.4475270000000  0.5584900000000  0.5636820000000 1.0
C      1  0.5419260000000  0.5698510000000  0.5640920000000 1.0
C      1  0.5806830000000  0.4826730000000  0.5622600000000 1.0
C      1  0.5070370000000  0.4187560000000  0.5648290000000 1.0
C      1  0.4264880000000  0.4661460000000  0.5647300000000 1.0
C      1  0.4472490000000  0.4378840000000  0.4348530000000 1.0
C      1  0.5405390000000  0.4277900000000  0.4343190000000 1.0
C      1  0.5751180000000  0.5155130000000  0.4362610000000 1.0
C      1  0.5082750000000  0.5803380000000  0.4360490000000 1.0
C      1  0.4270450000000  0.5310210000000  0.4370570000000 1.0
C      1  0.4528400000000  0.4197890000000  0.3373860000000 1.0
C      1  0.4105760000000  0.5203690000000  0.3400940000000 1.0
C      1  0.4915410000000  0.5933110000000  0.3392330000000 1.0
C      1  0.5867650000000  0.5364450000000  0.3412540000000 1.0
C      1  0.5611270000000  0.4287130000000  0.3379380000000 1.0
C      1  0.4534950000000  0.5788530000000  0.6603340000000 1.0
C      1  0.4088020000000  0.4776790000000  0.6614260000000 1.0
C      1  0.4918340000000  0.4077010000000  0.6618890000000 1.0
C      1  0.5863800000000  0.4626740000000  0.6602450000000 1.0
C      1  0.5609370000000  0.5686570000000  0.6608900000000 1.0
C      1  0.2973800000000  0.3482740000000  0.4381210000000 1.0
C      1  0.2956640000000  0.6472620000000  0.4337650000000 1.0
C      1  0.5752720000000  0.7409630000000  0.4369790000000 1.0
C      1  0.7509310000000  0.5011400000000  0.4344960000000 1.0
C      1  0.5787960000000  0.2608980000000  0.4353480000000 1.0
C      1  0.2967040000000  0.6488040000000  0.5659510000000 1.0
C      1  0.2943880000000  0.3539080000000  0.5624550000000 1.0
C      1  0.5764160000000  0.2597340000000  0.5641780000000 1.0
C      1  0.7487900000000  0.4982070000000  0.5683130000000 1.0
C      1  0.5818840000000  0.7392000000000  0.5622460000000 1.0
END
