TITL C-1525613-7943-63 0.0148958367724808 3375 -8982.71802291991 0 0 60 (C1) n - 1
REM
REM in /home/nfs/bkarasulu/CARBON/AIRSS/Generating-Clusters/ReaxFF-fromJPCA2015/Units_Real/Try2-Higher-symm/Only-C60
REM
REM
REM
REM
REM
REM ./C.cell (863b2abdce7293c0672fb3ba77bf323a)
REM AIRSS Version 0.9.1 bugfix July 2018 build 013d7b7c2542+ Fri, 06 Jul 2018 19:26:36 +0100
REM compiler GCC version 9.2.1 20190827 (Red Hat 9.2.1-1)
REM options -cpp -mtune=generic -march=x86-64 -g -O0 -fpre-include=/usr/include/finclude/math-vector-fortran.h
REM seed 1839357195 -1109852426 -238224687 12741288 115930339 1553674178 -1377397165 2090143760 -554385864 794075888 1842384990 -1325303218 -1367502859 2133093358 -2114172456 -2115943606 -1958614138 -2023762108 -805385771 -732052353 -925431663 -668658734 447180479 -1412063904 1304507549 -479810381 1123380276 -259610460 -1636779933 890341057 1054509665 494839887 1899763666
REM
CELL 1.54180   15.00000   15.00000   15.00000   90.00000   90.00000   90.00000
LATT -1
SFAC C  
C      1  0.4309550000000  0.5504190000000  0.5446970000000 1.0
C      1  0.5216760000000  0.5502330000000  0.5799310000000 1.0
C      1  0.5838910000000  0.5510610000000  0.5042840000000 1.0
C      1  0.5347790000000  0.5520400000000  0.4183760000000 1.0
C      1  0.4374840000000  0.5512420000000  0.4447260000000 1.0
C      1  0.4281480000000  0.4501690000000  0.4541660000000 1.0
C      1  0.5218280000000  0.4502170000000  0.4078790000000 1.0
C      1  0.5860140000000  0.4499870000000  0.4914340000000 1.0
C      1  0.5324390000000  0.4512670000000  0.5784700000000 1.0
C      1  0.4363180000000  0.4501180000000  0.5548130000000 1.0
C      1  0.6503780000000  0.3994910000000  0.3251270000000 1.0
C      1  0.3627500000000  0.4077780000000  0.3313110000000 1.0
C      1  0.3008210000000  0.4058050000000  0.5728420000000 1.0
C      1  0.5069900000000  0.4063730000000  0.7120010000000 1.0
C      1  0.7056360000000  0.4063800000000  0.5622010000000 1.0
C      1  0.6171070000000  0.5924480000000  0.6754760000000 1.0
C      1  0.3693020000000  0.5911970000000  0.6669200000000 1.0
C      1  0.2991210000000  0.5941160000000  0.4286190000000 1.0
C      1  0.5068760000000  0.5986760000000  0.2797900000000 1.0
C      1  0.7042360000000  0.5924260000000  0.4427910000000 1.0
C      1  0.4735220000000  0.3043510000000  0.4205930000000 1.0
C      1  0.4154920000000  0.3029290000000  0.4996950000000 1.0
C      1  0.4733370000000  0.3024960000000  0.5800750000000 1.0
C      1  0.5671300000000  0.3035740000000  0.5498680000000 1.0
C      1  0.5665260000000  0.3021200000000  0.4515670000000 1.0
C      1  0.4734650000000  0.6964400000000  0.5800260000000 1.0
C      1  0.4150300000000  0.6978860000000  0.5010810000000 1.0
C      1  0.4731720000000  0.6996460000000  0.4209080000000 1.0
C      1  0.5677670000000  0.6964640000000  0.4510030000000 1.0
C      1  0.5676320000000  0.6963690000000  0.5492280000000 1.0
C      1  0.3704610000000  0.4145810000000  0.6458640000000 1.0
C      1  0.5979860000000  0.4156870000000  0.6689080000000 1.0
C      1  0.6915220000000  0.4155430000000  0.4630220000000 1.0
C      1  0.5022940000000  0.4231720000000  0.3095410000000 1.0
C      1  0.3200810000000  0.4170110000000  0.4228680000000 1.0
C      1  0.3688140000000  0.5866880000000  0.3559410000000 1.0
C      1  0.5994540000000  0.5827340000000  0.3334550000000 1.0
C      1  0.6906390000000  0.5836190000000  0.5420760000000 1.0
C      1  0.5185280000000  0.5830470000000  0.6937910000000 1.0
C      1  0.3223860000000  0.5825440000000  0.5782510000000 1.0
C      1  0.6454320000000  0.3437070000000  0.4075900000000 1.0
C      1  0.4432090000000  0.3516310000000  0.3383210000000 1.0
C      1  0.3299360000000  0.3511570000000  0.4985290000000 1.0
C      1  0.4464780000000  0.3504270000000  0.6608620000000 1.0
C      1  0.6355450000000  0.3517360000000  0.6013310000000 1.0
C      1  0.6368200000000  0.6473380000000  0.5981140000000 1.0
C      1  0.4485870000000  0.6467750000000  0.6604830000000 1.0
C      1  0.3306960000000  0.6482370000000  0.5024910000000 1.0
C      1  0.4417190000000  0.6537450000000  0.3411040000000 1.0
C      1  0.6361800000000  0.6475650000000  0.4002580000000 1.0
C      1  0.2730470000000  0.4953850000000  0.5477550000000 1.0
C      1  0.4746470000000  0.4956040000000  0.7311430000000 1.0
C      1  0.7118660000000  0.4967660000000  0.5971970000000 1.0
C      1  0.6638590000000  0.4987300000000  0.3257090000000 1.0
C      1  0.3780330000000  0.4980930000000  0.2980890000000 1.0
C      1  0.2717470000000  0.5042660000000  0.4538540000000 1.0
C      1  0.4659170000000  0.5019160000000  0.2637200000000 1.0
C      1  0.7134640000000  0.5031860000000  0.4063000000000 1.0
C      1  0.6555330000000  0.5035450000000  0.6722690000000 1.0
C      1  0.3852980000000  0.5018440000000  0.7012680000000 1.0
END
