TITL C-1525613-7943-867 0.214250131038706 3375 -8196.57973840165 0 0 60 (Cs) n - 1
REM
REM in /home/nfs/bkarasulu/CARBON/AIRSS/Generating-Clusters/ReaxFF-fromJPCA2015/Units_Real/Try2-Higher-symm/Only-C60
REM
REM
REM
REM
REM
REM ./C.cell (863b2abdce7293c0672fb3ba77bf323a)
REM AIRSS Version 0.9.1 bugfix July 2018 build 013d7b7c2542+ Fri, 06 Jul 2018 19:26:36 +0100
REM compiler GCC version 9.2.1 20190827 (Red Hat 9.2.1-1)
REM options -cpp -mtune=generic -march=x86-64 -g -O0 -fpre-include=/usr/include/finclude/math-vector-fortran.h
REM seed -2018976243 631104379 57847365 -33547076 2114572529 -579201511 166897169 102036417 1918250044 765520889 -575701554 2111949737 -1252987591 -983565741 1571260522 1780917905 750579448 1189939779 -76608477 -1588636892 1369061560 -590364842 225113979 464360519 231513258 790628659 1313057643 -1159758289 2114777831 1368440769 1392798663 351525706 261084792
REM
CELL 1.54180   15.00000   15.00000   15.00000   90.00000   90.00000   90.00000
LATT -1
SFAC C  
C      1  0.4599210000000  0.5510440000000  0.6812680000000 1.0
C      1  0.6646610000000  0.5490860000000  0.5900980000000 1.0
C      1  0.6298080000000  0.5479580000000  0.3780320000000 1.0
C      1  0.4238270000000  0.5492550000000  0.3281570000000 1.0
C      1  0.3216920000000  0.5493220000000  0.5209780000000 1.0
C      1  0.4600960000000  0.4490160000000  0.6813150000000 1.0
C      1  0.6646460000000  0.4509030000000  0.5900980000000 1.0
C      1  0.6298070000000  0.4520660000000  0.3780360000000 1.0
C      1  0.4238560000000  0.4507430000000  0.3282100000000 1.0
C      1  0.3217690000000  0.4508660000000  0.5211460000000 1.0
C      1  0.4634800000000  0.5702960000000  0.4306740000000 1.0
C      1  0.4187000000000  0.5660910000000  0.5128730000000 1.0
C      1  0.4853810000000  0.5714140000000  0.5790040000000 1.0
C      1  0.5717320000000  0.5690550000000  0.5353130000000 1.0
C      1  0.5576570000000  0.5663390000000  0.4432330000000 1.0
C      1  0.4635740000000  0.4297550000000  0.4307270000000 1.0
C      1  0.4187980000000  0.4336430000000  0.5128330000000 1.0
C      1  0.4854420000000  0.4286470000000  0.5789790000000 1.0
C      1  0.5717560000000  0.4309350000000  0.5352490000000 1.0
C      1  0.5576070000000  0.4336290000000  0.4432170000000 1.0
C      1  0.4977280000000  0.6755590000000  0.6555380000000 1.0
C      1  0.6446520000000  0.6805940000000  0.5560670000000 1.0
C      1  0.5985460000000  0.6785710000000  0.3851480000000 1.0
C      1  0.4175000000000  0.6797150000000  0.3696020000000 1.0
C      1  0.3506890000000  0.6798070000000  0.5332650000000 1.0
C      1  0.4981060000000  0.3243640000000  0.6556440000000 1.0
C      1  0.6446470000000  0.3193920000000  0.5560890000000 1.0
C      1  0.5985440000000  0.3214500000000  0.3851640000000 1.0
C      1  0.4174480000000  0.3203270000000  0.3696550000000 1.0
C      1  0.3508750000000  0.3202110000000  0.5330530000000 1.0
C      1  0.5765250000000  0.7449000000000  0.5326020000000 1.0
C      1  0.5539440000000  0.7462850000000  0.4364800000000 1.0
C      1  0.4556940000000  0.7458470000000  0.4288470000000 1.0
C      1  0.4199420000000  0.7452500000000  0.5205010000000 1.0
C      1  0.4933540000000  0.7418660000000  0.5857270000000 1.0
C      1  0.5765280000000  0.2551050000000  0.5326020000000 1.0
C      1  0.5539760000000  0.2536980000000  0.4364920000000 1.0
C      1  0.4557310000000  0.2541630000000  0.4288010000000 1.0
C      1  0.4199630000000  0.2546730000000  0.5204960000000 1.0
C      1  0.4933720000000  0.2581450000000  0.5857620000000 1.0
C      1  0.6673980000000  0.6417460000000  0.4670630000000 1.0
C      1  0.5252140000000  0.6416030000000  0.3308870000000 1.0
C      1  0.3452300000000  0.6415350000000  0.4261370000000 1.0
C      1  0.3679250000000  0.6330650000000  0.6166030000000 1.0
C      1  0.5875650000000  0.6420930000000  0.6526320000000 1.0
C      1  0.6673620000000  0.3582860000000  0.4670980000000 1.0
C      1  0.5251850000000  0.3583830000000  0.3309110000000 1.0
C      1  0.3450800000000  0.3584320000000  0.4262810000000 1.0
C      1  0.3670300000000  0.3669330000000  0.6161260000000 1.0
C      1  0.5875790000000  0.3579080000000  0.6526570000000 1.0
C      1  0.3641180000000  0.5542570000000  0.6720390000000 1.0
C      1  0.6222270000000  0.5526850000000  0.6779210000000 1.0
C      1  0.7031550000000  0.5526870000000  0.4423880000000 1.0
C      1  0.5101780000000  0.5557980000000  0.2860210000000 1.0
C      1  0.3014850000000  0.5528290000000  0.4250200000000 1.0
C      1  0.3642180000000  0.4458980000000  0.6719390000000 1.0
C      1  0.6222370000000  0.4473270000000  0.6779080000000 1.0
C      1  0.7031420000000  0.4473250000000  0.4423850000000 1.0
C      1  0.5101840000000  0.4441770000000  0.2860340000000 1.0
C      1  0.3015170000000  0.4470470000000  0.4249740000000 1.0
END
