TITL C-1525613-7943-7423 -0.000220371575198969 3375 -9191.32899878264 0 0 60 (D5d) n - 1
REM
REM in /home/nfs/bkarasulu/CARBON/AIRSS/Generating-Clusters/ReaxFF-fromJPCA2015/Units_Real/Try2-Higher-symm/Only-C60
REM
REM
REM
REM
REM
REM ./C.cell (863b2abdce7293c0672fb3ba77bf323a)
REM AIRSS Version 0.9.1 bugfix July 2018 build 013d7b7c2542+ Fri, 06 Jul 2018 19:26:36 +0100
REM compiler GCC version 9.2.1 20190827 (Red Hat 9.2.1-1)
REM options -cpp -mtune=generic -march=x86-64 -g -O0 -fpre-include=/usr/include/finclude/math-vector-fortran.h
REM seed -77739269 -303457053 -96289977 -1772016745 1445666436 988801003 -424649567 1861288236 666089975 1943733685 -714326395 558767067 202121978 863113892 1096016895 -1993007671 -67653742 -1521261571 -2037090334 -1155128854 1903436545 -2112144194 -1353958301 1422372886 -1505806597 256661667 -1051438259 -275476040 -2088437027 -2117227467 1936400535 2146566628 1158131774
REM
CELL 1.54180   15.00000   15.00000   15.00000   90.00000   90.00000   90.00000
LATT -1
SFAC C  
C      1  0.5000020000000  0.3192110000000  0.3225830000000 1.0
C      1  0.3332650000000  0.3193030000000  0.4457490000000 1.0
C      1  0.3959820000000  0.3191760000000  0.6429540000000 1.0
C      1  0.6040280000000  0.3191860000000  0.6429580000000 1.0
C      1  0.6667340000000  0.3193000000000  0.4457540000000 1.0
C      1  0.4999970000000  0.6807890000000  0.6774170000000 1.0
C      1  0.3332600000000  0.6806940000000  0.5542510000000 1.0
C      1  0.3959780000000  0.6808220000000  0.3570470000000 1.0
C      1  0.6040240000000  0.6808160000000  0.3570420000000 1.0
C      1  0.6667300000000  0.6807030000000  0.5542450000000 1.0
C      1  0.2676510000000  0.6216650000000  0.5270590000000 1.0
C      1  0.4540330000000  0.6210920000000  0.7314990000000 1.0
C      1  0.7039370000000  0.6218690000000  0.6149560000000 1.0
C      1  0.6727910000000  0.6211120000000  0.3402410000000 1.0
C      1  0.4016440000000  0.6214810000000  0.2861170000000 1.0
C      1  0.2676540000000  0.3783300000000  0.4729420000000 1.0
C      1  0.4540360000000  0.3789070000000  0.2685010000000 1.0
C      1  0.7039390000000  0.3781350000000  0.3850440000000 1.0
C      1  0.6727930000000  0.3788910000000  0.6597590000000 1.0
C      1  0.4016460000000  0.3785180000000  0.7138830000000 1.0
C      1  0.5983630000000  0.6214760000000  0.2861090000000 1.0
C      1  0.3272120000000  0.6211190000000  0.3402490000000 1.0
C      1  0.2960560000000  0.6218560000000  0.6149600000000 1.0
C      1  0.5459610000000  0.6210970000000  0.7315040000000 1.0
C      1  0.7323370000000  0.6216720000000  0.5270500000000 1.0
C      1  0.5983650000000  0.3785260000000  0.7138900000000 1.0
C      1  0.3272150000000  0.3788780000000  0.6597510000000 1.0
C      1  0.2960590000000  0.3781400000000  0.3850400000000 1.0
C      1  0.5459640000000  0.3789040000000  0.2684960000000 1.0
C      1  0.7323400000000  0.3783320000000  0.4729490000000 1.0
C      1  0.4226860000000  0.6911730000000  0.5252050000000 1.0
C      1  0.4999990000000  0.6913210000000  0.5816680000000 1.0
C      1  0.5773090000000  0.6911750000000  0.5252020000000 1.0
C      1  0.5480300000000  0.6913990000000  0.4342690000000 1.0
C      1  0.4519690000000  0.6914010000000  0.4342720000000 1.0
C      1  0.4226900000000  0.3088260000000  0.4747960000000 1.0
C      1  0.5000020000000  0.3086790000000  0.4183330000000 1.0
C      1  0.5773130000000  0.3088260000000  0.4747980000000 1.0
C      1  0.5480340000000  0.3086010000000  0.5657310000000 1.0
C      1  0.4519730000000  0.3085970000000  0.5657280000000 1.0
C      1  0.6709750000000  0.4583610000000  0.3449620000000 1.0
C      1  0.4059450000000  0.4586290000000  0.2884830000000 1.0
C      1  0.2711460000000  0.4586340000000  0.5245530000000 1.0
C      1  0.4522740000000  0.4583250000000  0.7264900000000 1.0
C      1  0.6997820000000  0.4587980000000  0.6154560000000 1.0
C      1  0.6709740000000  0.5416420000000  0.6550380000000 1.0
C      1  0.4059440000000  0.5413690000000  0.7115180000000 1.0
C      1  0.2711450000000  0.5413620000000  0.4754480000000 1.0
C      1  0.4522740000000  0.5416750000000  0.2735110000000 1.0
C      1  0.6997810000000  0.5412060000000  0.3845440000000 1.0
C      1  0.7288430000000  0.4586400000000  0.5245540000000 1.0
C      1  0.5940600000000  0.4586240000000  0.2884730000000 1.0
C      1  0.3290260000000  0.4583680000000  0.3449670000000 1.0
C      1  0.3002190000000  0.4587850000000  0.6154500000000 1.0
C      1  0.5477330000000  0.4583300000000  0.7264970000000 1.0
C      1  0.7288420000000  0.5413640000000  0.4754450000000 1.0
C      1  0.5940590000000  0.5413780000000  0.7115260000000 1.0
C      1  0.3290250000000  0.5416280000000  0.6550340000000 1.0
C      1  0.3002190000000  0.5412120000000  0.3845500000000 1.0
C      1  0.5477330000000  0.5416710000000  0.2735020000000 1.0
END
