TITL C-1525613-7943-985 0.85865244758047 3375 -8359.55380982173 0 0 60 (C1) n - 1
REM
REM in /home/nfs/bkarasulu/CARBON/AIRSS/Generating-Clusters/ReaxFF-fromJPCA2015/Units_Real/Try2-Higher-symm/Only-C60
REM
REM
REM
REM
REM
REM ./C.cell (863b2abdce7293c0672fb3ba77bf323a)
REM AIRSS Version 0.9.1 bugfix July 2018 build 013d7b7c2542+ Fri, 06 Jul 2018 19:26:36 +0100
REM compiler GCC version 9.2.1 20190827 (Red Hat 9.2.1-1)
REM options -cpp -mtune=generic -march=x86-64 -g -O0 -fpre-include=/usr/include/finclude/math-vector-fortran.h
REM seed 781777881 -432314378 -1467347591 -690795711 -1471375932 -1407085959 -408502148 -1274763796 1990566448 1114012019 95719532 -911289244 1412855393 1853365341 368726159 1545706600 1333765990 -1071217452 435156350 1858798745 -813522008 -232218644 1838893932 66682188 -639835796 -227568971 1637144689 -1225314726 1870887984 1207514874 -1131424967 -800463254 1756226830
REM
CELL 1.54180   15.00000   15.00000   15.00000   90.00000   90.00000   90.00000
LATT -1
SFAC C  
C      1  0.3802270000000  0.2533200000000  0.4773640000000 1.0
C      1  0.3816950000000  0.4456730000000  0.2616410000000 1.0
C      1  0.3955390000000  0.7034910000000  0.3746890000000 1.0
C      1  0.3795810000000  0.6805990000000  0.6584080000000 1.0
C      1  0.3819830000000  0.3977250000000  0.7508710000000 1.0
C      1  0.6218220000000  0.2472670000000  0.4789130000000 1.0
C      1  0.6174530000000  0.4465880000000  0.2644990000000 1.0
C      1  0.6046680000000  0.7074590000000  0.3721440000000 1.0
C      1  0.6199060000000  0.6783490000000  0.6565410000000 1.0
C      1  0.6016170000000  0.4027270000000  0.7351970000000 1.0
C      1  0.4526160000000  0.5593090000000  0.7426580000000 1.0
C      1  0.4509580000000  0.2905390000000  0.6340380000000 1.0
C      1  0.4495320000000  0.3049110000000  0.3328450000000 1.0
C      1  0.4501240000000  0.5947410000000  0.2685880000000 1.0
C      1  0.4503750000000  0.7499640000000  0.5188460000000 1.0
C      1  0.5513720000000  0.5609850000000  0.7462220000000 1.0
C      1  0.5495380000000  0.2896990000000  0.6336220000000 1.0
C      1  0.5485630000000  0.3039110000000  0.3328800000000 1.0
C      1  0.5484920000000  0.5950840000000  0.2669000000000 1.0
C      1  0.5487670000000  0.7506640000000  0.5182570000000 1.0
C      1  0.3750730000000  0.5857920000000  0.6859900000000 1.0
C      1  0.3762030000000  0.3517220000000  0.6635640000000 1.0
C      1  0.3800000000000  0.3182470000000  0.4029430000000 1.0
C      1  0.3752140000000  0.5359410000000  0.3008810000000 1.0
C      1  0.3736940000000  0.7129150000000  0.4615520000000 1.0
C      1  0.6268930000000  0.5844280000000  0.6881000000000 1.0
C      1  0.6271960000000  0.3477050000000  0.6668170000000 1.0
C      1  0.6179720000000  0.3122340000000  0.4043300000000 1.0
C      1  0.6244600000000  0.5386980000000  0.2977240000000 1.0
C      1  0.6257910000000  0.7192660000000  0.4594170000000 1.0
C      1  0.6526890000000  0.5105330000000  0.6266590000000 1.0
C      1  0.6707130000000  0.4152580000000  0.6072110000000 1.0
C      1  0.6194390000000  0.4004720000000  0.4449030000000 1.0
C      1  0.6534400000000  0.5579020000000  0.3918230000000 1.0
C      1  0.6601130000000  0.6240790000000  0.4651830000000 1.0
C      1  0.3462410000000  0.5142030000000  0.6245740000000 1.0
C      1  0.3302170000000  0.4175450000000  0.6064960000000 1.0
C      1  0.3742530000000  0.4122740000000  0.4350870000000 1.0
C      1  0.3457470000000  0.5430290000000  0.3960880000000 1.0
C      1  0.3416710000000  0.6167630000000  0.4663880000000 1.0
C      1  0.5525820000000  0.3721370000000  0.2635160000000 1.0
C      1  0.5529890000000  0.6880400000000  0.2979720000000 1.0
C      1  0.5545210000000  0.7369150000000  0.6137720000000 1.0
C      1  0.5544530000000  0.4675660000000  0.7794920000000 1.0
C      1  0.5533200000000  0.2403670000000  0.5506080000000 1.0
C      1  0.4472070000000  0.3719840000000  0.2622350000000 1.0
C      1  0.4459650000000  0.6875100000000  0.2988890000000 1.0
C      1  0.4459480000000  0.7382430000000  0.6142810000000 1.0
C      1  0.4485970000000  0.4679750000000  0.7736380000000 1.0
C      1  0.4465080000000  0.2417460000000  0.5501210000000 1.0
C      1  0.6113570000000  0.4213280000000  0.5352310000000 1.0
C      1  0.5486940000000  0.4554110000000  0.4120070000000 1.0
C      1  0.5685550000000  0.5428740000000  0.4228460000000 1.0
C      1  0.5801440000000  0.5814840000000  0.5046800000000 1.0
C      1  0.5787410000000  0.5052840000000  0.5636560000000 1.0
C      1  0.3924830000000  0.4237900000000  0.5311070000000 1.0
C      1  0.4588590000000  0.4501590000000  0.4059120000000 1.0
C      1  0.4382570000000  0.5388300000000  0.4252390000000 1.0
C      1  0.4207630000000  0.5775400000000  0.5089730000000 1.0
C      1  0.4182070000000  0.5088030000000  0.5649730000000 1.0
END
