TITL C-1525613-7943-159 0.0282363141867435 3375 -8705.22338327299 0 0 60 (C1) n - 1
REM
REM in /home/nfs/bkarasulu/CARBON/AIRSS/Generating-Clusters/ReaxFF-fromJPCA2015/Units_Real/Try2-Higher-symm/Only-C60
REM
REM
REM
REM
REM
REM ./C.cell (863b2abdce7293c0672fb3ba77bf323a)
REM AIRSS Version 0.9.1 bugfix July 2018 build 013d7b7c2542+ Fri, 06 Jul 2018 19:26:36 +0100
REM compiler GCC version 9.2.1 20190827 (Red Hat 9.2.1-1)
REM options -cpp -mtune=generic -march=x86-64 -g -O0 -fpre-include=/usr/include/finclude/math-vector-fortran.h
REM seed -1242282986 395436715 633414174 -1358572800 1652293424 -455637339 -37753708 50875134 1992838700 -2006082316 -724387959 656489803 505659002 883710652 1667900566 -434001205 -277868813 1432164064 -2004054459 -2080577105 1236280555 -1204377447 1567834359 -772546038 -284319612 873687319 1447973428 -1941032825 -2138698763 -1009090969 929154973 644836921 2044313518
REM
CELL 1.54180   15.00000   15.00000   15.00000   90.00000   90.00000   90.00000
LATT -1
SFAC C  
C      1  0.5517450000000  0.4984990000000  0.2532470000000 1.0
C      1  0.2683490000000  0.5036400000000  0.3730620000000 1.0
C      1  0.3103050000000  0.5006910000000  0.6746580000000 1.0
C      1  0.6147890000000  0.5057110000000  0.7387980000000 1.0
C      1  0.7503430000000  0.5009830000000  0.4688830000000 1.0
C      1  0.4495770000000  0.5001380000000  0.2547830000000 1.0
C      1  0.7334830000000  0.5050040000000  0.3726000000000 1.0
C      1  0.6894170000000  0.5007890000000  0.6737680000000 1.0
C      1  0.3854380000000  0.5059780000000  0.7383770000000 1.0
C      1  0.2504170000000  0.5010920000000  0.4690810000000 1.0
C      1  0.5936140000000  0.4180610000000  0.2868060000000 1.0
C      1  0.3273970000000  0.4224140000000  0.3507870000000 1.0
C      1  0.3043780000000  0.4200870000000  0.6144660000000 1.0
C      1  0.5556640000000  0.4266600000000  0.7191500000000 1.0
C      1  0.7278710000000  0.4189750000000  0.5216620000000 1.0
C      1  0.4048560000000  0.4141670000000  0.2896340000000 1.0
C      1  0.6733520000000  0.4234810000000  0.3497750000000 1.0
C      1  0.6973650000000  0.4187380000000  0.6148700000000 1.0
C      1  0.4460050000000  0.4275370000000  0.7174360000000 1.0
C      1  0.2724620000000  0.4191210000000  0.5220630000000 1.0
C      1  0.3689230000000  0.6441600000000  0.5952590000000 1.0
C      1  0.5496850000000  0.6406260000000  0.6534250000000 1.0
C      1  0.6617430000000  0.6443010000000  0.5000410000000 1.0
C      1  0.5508320000000  0.6389140000000  0.3457040000000 1.0
C      1  0.3703450000000  0.6402000000000  0.4061420000000 1.0
C      1  0.6305780000000  0.6423590000000  0.5945930000000 1.0
C      1  0.4497250000000  0.6403870000000  0.6531450000000 1.0
C      1  0.3390050000000  0.6442550000000  0.5000420000000 1.0
C      1  0.4490200000000  0.6409360000000  0.3438230000000 1.0
C      1  0.6306040000000  0.6412940000000  0.4050550000000 1.0
C      1  0.3991550000000  0.5115570000000  0.5755960000000 1.0
C      1  0.5398550000000  0.4881520000000  0.6334710000000 1.0
C      1  0.6160450000000  0.5087890000000  0.5012690000000 1.0
C      1  0.5299450000000  0.5047180000000  0.3976590000000 1.0
C      1  0.3929910000000  0.4998910000000  0.4173000000000 1.0
C      1  0.5965430000000  0.5106930000000  0.5770650000000 1.0
C      1  0.4594450000000  0.4838340000000  0.6331730000000 1.0
C      1  0.3961160000000  0.5057780000000  0.4971840000000 1.0
C      1  0.4581700000000  0.5086990000000  0.3633040000000 1.0
C      1  0.6075690000000  0.4964990000000  0.4167300000000 1.0
C      1  0.2650040000000  0.5825860000000  0.5235120000000 1.0
C      1  0.4486570000000  0.5811830000000  0.7320450000000 1.0
C      1  0.7051750000000  0.5827850000000  0.6178690000000 1.0
C      1  0.6797060000000  0.5829090000000  0.3418540000000 1.0
C      1  0.3977800000000  0.5893360000000  0.2795460000000 1.0
C      1  0.7356500000000  0.5827770000000  0.5235600000000 1.0
C      1  0.5504690000000  0.5811020000000  0.7314190000000 1.0
C      1  0.2931740000000  0.5841620000000  0.6192560000000 1.0
C      1  0.3216420000000  0.5834480000000  0.3410600000000 1.0
C      1  0.5980560000000  0.5798780000000  0.2822680000000 1.0
C      1  0.3722850000000  0.3500570000000  0.5943990000000 1.0
C      1  0.5483520000000  0.3498370000000  0.6506810000000 1.0
C      1  0.6594370000000  0.3500570000000  0.4982890000000 1.0
C      1  0.5505130000000  0.3532090000000  0.3478230000000 1.0
C      1  0.3705890000000  0.3483670000000  0.4063700000000 1.0
C      1  0.6280660000000  0.3503630000000  0.5941630000000 1.0
C      1  0.4518900000000  0.3484510000000  0.6500710000000 1.0
C      1  0.3403480000000  0.3498200000000  0.4984430000000 1.0
C      1  0.4505430000000  0.3523230000000  0.3479020000000 1.0
C      1  0.6295450000000  0.3495460000000  0.4055810000000 1.0
END
