TITL C-1525613-7943-6378 -0.0102855966422734 3375 -8491.79581940573 0 0 60 (C1) n - 1
REM
REM in /home/nfs/bkarasulu/CARBON/AIRSS/Generating-Clusters/ReaxFF-fromJPCA2015/Units_Real/Try2-Higher-symm/Only-C60
REM
REM
REM
REM
REM
REM ./C.cell (863b2abdce7293c0672fb3ba77bf323a)
REM AIRSS Version 0.9.1 bugfix July 2018 build 013d7b7c2542+ Fri, 06 Jul 2018 19:26:36 +0100
REM compiler GCC version 9.2.1 20190827 (Red Hat 9.2.1-1)
REM options -cpp -mtune=generic -march=x86-64 -g -O0 -fpre-include=/usr/include/finclude/math-vector-fortran.h
REM seed -485151700 -143272264 945947147 948663011 36324136 -1834215904 925286205 -1315099416 -1939861597 1818722590 1829348964 -1693013815 -1989006589 466060411 -1044073650 222988457 2127203828 -336374846 -17666182 515778472 -903844413 -1676359447 -390869286 -1596772670 2118802960 -837055796 -1129189832 1477146488 -1885585470 1644590972 1726077531 1539186809 -887636266
REM
CELL 1.54180   15.00000   15.00000   15.00000   90.00000   90.00000   90.00000
LATT -1
SFAC C  
C      1  0.2948270000000  0.5664650000000  0.3913920000000 1.0
C      1  0.2961090000000  0.4295510000000  0.4132960000000 1.0
C      1  0.2950780000000  0.3967000000000  0.5456740000000 1.0
C      1  0.2976870000000  0.5033760000000  0.6271100000000 1.0
C      1  0.3180770000000  0.5951130000000  0.5260100000000 1.0
C      1  0.7060310000000  0.5664510000000  0.6076040000000 1.0
C      1  0.7050500000000  0.4294880000000  0.5863990000000 1.0
C      1  0.7049470000000  0.3969070000000  0.4541010000000 1.0
C      1  0.7024700000000  0.5038640000000  0.3726250000000 1.0
C      1  0.6792540000000  0.5954360000000  0.4736300000000 1.0
C      1  0.6840380000000  0.5946500000000  0.3754570000000 1.0
C      1  0.6836680000000  0.4202180000000  0.3744650000000 1.0
C      1  0.6891070000000  0.3513260000000  0.5349940000000 1.0
C      1  0.6899070000000  0.4878610000000  0.6601070000000 1.0
C      1  0.6879320000000  0.6464560000000  0.5594360000000 1.0
C      1  0.3173000000000  0.5941030000000  0.6242610000000 1.0
C      1  0.3164270000000  0.4197280000000  0.6254130000000 1.0
C      1  0.3114740000000  0.3513750000000  0.4648370000000 1.0
C      1  0.3113330000000  0.4876960000000  0.3390850000000 1.0
C      1  0.3124790000000  0.6465500000000  0.4400780000000 1.0
C      1  0.4303740000000  0.4866290000000  0.6739620000000 1.0
C      1  0.4455740000000  0.6796770000000  0.5831850000000 1.0
C      1  0.4266840000000  0.6124050000000  0.3677740000000 1.0
C      1  0.4382670000000  0.4079360000000  0.3416610000000 1.0
C      1  0.4344580000000  0.3087820000000  0.5345230000000 1.0
C      1  0.5610720000000  0.4866910000000  0.3246140000000 1.0
C      1  0.5578190000000  0.6833390000000  0.4139690000000 1.0
C      1  0.5727890000000  0.6104340000000  0.6313790000000 1.0
C      1  0.5579670000000  0.4076070000000  0.6625700000000 1.0
C      1  0.5656670000000  0.3101820000000  0.4665240000000 1.0
C      1  0.4032180000000  0.4817220000000  0.2908940000000 1.0
C      1  0.3960520000000  0.2955690000000  0.4459690000000 1.0
C      1  0.3965130000000  0.3945790000000  0.6670610000000 1.0
C      1  0.4018170000000  0.6370800000000  0.6583100000000 1.0
C      1  0.3996620000000  0.6901710000000  0.4181630000000 1.0
C      1  0.5984500000000  0.4812900000000  0.7097170000000 1.0
C      1  0.6047420000000  0.2959330000000  0.5544230000000 1.0
C      1  0.6024320000000  0.3961870000000  0.3350400000000 1.0
C      1  0.6016500000000  0.6394460000000  0.3394430000000 1.0
C      1  0.6003510000000  0.6884860000000  0.5808020000000 1.0
C      1  0.5505970000000  0.7258520000000  0.5016340000000 1.0
C      1  0.5511880000000  0.5753690000000  0.2827560000000 1.0
C      1  0.5516890000000  0.3176810000000  0.3684480000000 1.0
C      1  0.5494500000000  0.3147620000000  0.6332840000000 1.0
C      1  0.5506240000000  0.5663700000000  0.7159970000000 1.0
C      1  0.4506860000000  0.7254570000000  0.4972660000000 1.0
C      1  0.4510040000000  0.5723820000000  0.7170300000000 1.0
C      1  0.4490140000000  0.3164240000000  0.6332150000000 1.0
C      1  0.4514840000000  0.3146180000000  0.3673510000000 1.0
C      1  0.4515970000000  0.5673850000000  0.2839810000000 1.0
C      1  0.4395050000000  0.4061760000000  0.5292550000000 1.0
C      1  0.4551580000000  0.5308430000000  0.5924190000000 1.0
C      1  0.4195140000000  0.5887200000000  0.5309200000000 1.0
C      1  0.4507910000000  0.5453360000000  0.4367560000000 1.0
C      1  0.4552180000000  0.4385270000000  0.4380200000000 1.0
C      1  0.5606280000000  0.4075850000000  0.4722450000000 1.0
C      1  0.5419280000000  0.5345990000000  0.4079430000000 1.0
C      1  0.5779620000000  0.5937020000000  0.4666480000000 1.0
C      1  0.5475770000000  0.5421270000000  0.5643900000000 1.0
C      1  0.5456360000000  0.4386290000000  0.5644840000000 1.0
END
