TITL C-1525613-7943-3580 0.96890833716518 3375 -8170.66008533717 0 0 60 (S10) n - 1
REM
REM in /home/nfs/bkarasulu/CARBON/AIRSS/Generating-Clusters/ReaxFF-fromJPCA2015/Units_Real/Try2-Higher-symm/Only-C60
REM
REM
REM
REM
REM
REM ./C.cell (863b2abdce7293c0672fb3ba77bf323a)
REM AIRSS Version 0.9.1 bugfix July 2018 build 013d7b7c2542+ Fri, 06 Jul 2018 19:26:36 +0100
REM compiler GCC version 9.2.1 20190827 (Red Hat 9.2.1-1)
REM options -cpp -mtune=generic -march=x86-64 -g -O0 -fpre-include=/usr/include/finclude/math-vector-fortran.h
REM seed 1445204841 2068647252 1355817281 1819568125 1518659681 1215052581 828965819 1997930256 2013960650 -101040253 -1805852405 -160029053 748656178 -1642217377 940800835 -1980085128 1974578972 -213053031 -521789723 1404184353 1770046877 1286534770 -491272426 1204865122 -991873696 1945653996 1790827628 -1931304525 1739722258 -1375716333 1706726091 -903395389 1504352335
REM
CELL 1.54180   15.00000   15.00000   15.00000   90.00000   90.00000   90.00000
LATT -1
SFAC C  
C      1  0.6900070000000  0.5087150000000  0.6140280000000 1.0
C      1  0.5864660000000  0.4913240000000  0.7037670000000 1.0
C      1  0.4503060000000  0.5086070000000  0.7162180000000 1.0
C      1  0.3328400000000  0.4914090000000  0.6454400000000 1.0
C      1  0.2793940000000  0.5085740000000  0.5196820000000 1.0
C      1  0.3099920000000  0.4912830000000  0.3859710000000 1.0
C      1  0.4135340000000  0.5086740000000  0.2962340000000 1.0
C      1  0.5496930000000  0.4913920000000  0.2837810000000 1.0
C      1  0.6671610000000  0.5085900000000  0.3545610000000 1.0
C      1  0.7206070000000  0.4914220000000  0.4803160000000 1.0
C      1  0.5733030000000  0.3190240000000  0.6246860000000 1.0
C      1  0.4859670000000  0.6809480000000  0.6439370000000 1.0
C      1  0.4040490000000  0.3190050000000  0.6082420000000 1.0
C      1  0.3587620000000  0.6809970000000  0.5311190000000 1.0
C      1  0.3673200000000  0.3190920000000  0.4422100000000 1.0
C      1  0.4266970000000  0.6809760000000  0.3753140000000 1.0
C      1  0.5140330000000  0.3190520000000  0.3560630000000 1.0
C      1  0.5959510000000  0.6809950000000  0.3917580000000 1.0
C      1  0.6412380000000  0.3190030000000  0.4688810000000 1.0
C      1  0.6326800000000  0.6809080000000  0.5577900000000 1.0
C      1  0.4583370000000  0.7532960000000  0.4251130000000 1.0
C      1  0.5102960000000  0.2467870000000  0.4149410000000 1.0
C      1  0.5583550000000  0.7532630000000  0.4372730000000 1.0
C      1  0.5840870000000  0.2467050000000  0.4835110000000 1.0
C      1  0.5777810000000  0.7532050000000  0.5361470000000 1.0
C      1  0.5416630000000  0.2467040000000  0.5748870000000 1.0
C      1  0.4897040000000  0.7532130000000  0.5850590000000 1.0
C      1  0.4416450000000  0.2467370000000  0.5627270000000 1.0
C      1  0.4159130000000  0.7532940000000  0.5164890000000 1.0
C      1  0.4222190000000  0.2467950000000  0.4638530000000 1.0
C      1  0.5065530000000  0.4551360000000  0.7174130000000 1.0
C      1  0.3774550000000  0.5448960000000  0.6798180000000 1.0
C      1  0.2953380000000  0.4551040000000  0.5736540000000 1.0
C      1  0.2912550000000  0.5447380000000  0.4390510000000 1.0
C      1  0.3669900000000  0.4551980000000  0.3279930000000 1.0
C      1  0.4934430000000  0.5448660000000  0.2825870000000 1.0
C      1  0.6225470000000  0.4551040000000  0.3201820000000 1.0
C      1  0.7046630000000  0.5449000000000  0.4263420000000 1.0
C      1  0.7087450000000  0.4552640000000  0.5609540000000 1.0
C      1  0.6330130000000  0.5448030000000  0.6720060000000 1.0
C      1  0.4187730000000  0.3626640000000  0.3665930000000 1.0
C      1  0.5127100000000  0.6373220000000  0.3442640000000 1.0
C      1  0.6018500000000  0.3626280000000  0.3815320000000 1.0
C      1  0.6520970000000  0.6373000000000  0.4639060000000 1.0
C      1  0.6441720000000  0.3626570000000  0.5602310000000 1.0
C      1  0.5812260000000  0.6373360000000  0.6334060000000 1.0
C      1  0.4872900000000  0.3626770000000  0.6557360000000 1.0
C      1  0.3981500000000  0.6373710000000  0.6184690000000 1.0
C      1  0.3479020000000  0.3627020000000  0.5360950000000 1.0
C      1  0.3558270000000  0.6373420000000  0.4397690000000 1.0
C      1  0.5772250000000  0.5708510000000  0.4858330000000 1.0
C      1  0.5707820000000  0.4291670000000  0.5339830000000 1.0
C      1  0.5372530000000  0.5708790000000  0.5689960000000 1.0
C      1  0.4895880000000  0.4291830000000  0.5778080000000 1.0
C      1  0.4457850000000  0.5708350000000  0.5567940000000 1.0
C      1  0.4227750000000  0.4291490000000  0.5141670000000 1.0
C      1  0.4292180000000  0.5708330000000  0.4660170000000 1.0
C      1  0.4627470000000  0.4291210000000  0.4310040000000 1.0
C      1  0.5104120000000  0.5708160000000  0.4221920000000 1.0
C      1  0.5542150000000  0.4291650000000  0.4432060000000 1.0
END
