TITL C-1525613-7943-585 0.0986065214166591 3375 -9473.81860125619 0 0 60 (C1) n - 1
REM
REM in /home/nfs/bkarasulu/CARBON/AIRSS/Generating-Clusters/ReaxFF-fromJPCA2015/Units_Real/Try2-Higher-symm/Only-C60
REM
REM
REM
REM
REM
REM ./C.cell (863b2abdce7293c0672fb3ba77bf323a)
REM AIRSS Version 0.9.1 bugfix July 2018 build 013d7b7c2542+ Fri, 06 Jul 2018 19:26:36 +0100
REM compiler GCC version 9.2.1 20190827 (Red Hat 9.2.1-1)
REM options -cpp -mtune=generic -march=x86-64 -g -O0 -fpre-include=/usr/include/finclude/math-vector-fortran.h
REM seed -1558013781 -1370897916 554697516 -1034563191 1528372138 -491591034 141951242 -917207407 1194426997 -422581289 -1960613642 -1082362019 352730240 -1999165844 -1966582271 1650655886 -885032202 1853844594 1614652795 -507952427 -680358544 -221987916 -1971010563 1638164275 -1419194626 -686316261 1260743459 474424417 1467628055 1315809625 438449059 2121857702 2147034381
REM
CELL 1.54180   15.00000   15.00000   15.00000   90.00000   90.00000   90.00000
LATT -1
SFAC C  
C      1  0.4528670000000  0.5915970000000  0.7277330000000 1.0
C      1  0.4598730000000  0.7036430000000  0.5064650000000 1.0
C      1  0.4600930000000  0.5493960000000  0.2647060000000 1.0
C      1  0.4382990000000  0.3214180000000  0.3993380000000 1.0
C      1  0.4762250000000  0.3445370000000  0.6299320000000 1.0
C      1  0.5471190000000  0.5918780000000  0.2727800000000 1.0
C      1  0.5416380000000  0.7042070000000  0.4905100000000 1.0
C      1  0.5399120000000  0.5494230000000  0.7357460000000 1.0
C      1  0.5607670000000  0.3263490000000  0.5974730000000 1.0
C      1  0.5261610000000  0.3415360000000  0.3662870000000 1.0
C      1  0.2800420000000  0.5798170000000  0.4761550000000 1.0
C      1  0.2741870000000  0.5039070000000  0.4159540000000 1.0
C      1  0.2675700000000  0.4217390000000  0.4686230000000 1.0
C      1  0.2730330000000  0.4497680000000  0.5620530000000 1.0
C      1  0.2742560000000  0.5464380000000  0.5677880000000 1.0
C      1  0.7199970000000  0.5805660000000  0.5245090000000 1.0
C      1  0.7253470000000  0.5042940000000  0.5844800000000 1.0
C      1  0.7316600000000  0.4221990000000  0.5321880000000 1.0
C      1  0.7267130000000  0.4503200000000  0.4389910000000 1.0
C      1  0.7258900000000  0.5469510000000  0.4329950000000 1.0
C      1  0.3223260000000  0.5078220000000  0.3311220000000 1.0
C      1  0.3067940000000  0.3379190000000  0.4386550000000 1.0
C      1  0.3357240000000  0.4022700000000  0.6192360000000 1.0
C      1  0.3190680000000  0.5911450000000  0.6424400000000 1.0
C      1  0.3353970000000  0.6571990000000  0.4546000000000 1.0
C      1  0.6773940000000  0.5080120000000  0.6692780000000 1.0
C      1  0.6912000000000  0.3389490000000  0.5617960000000 1.0
C      1  0.6642170000000  0.4025980000000  0.3814710000000 1.0
C      1  0.6816220000000  0.5916160000000  0.3579720000000 1.0
C      1  0.6656030000000  0.6582830000000  0.5461640000000 1.0
C      1  0.6204110000000  0.4450390000000  0.3045380000000 1.0
C      1  0.6066660000000  0.3016960000000  0.5143670000000 1.0
C      1  0.6328940000000  0.4279160000000  0.7011420000000 1.0
C      1  0.6171240000000  0.6627070000000  0.6339750000000 1.0
C      1  0.6362540000000  0.6750240000000  0.3728790000000 1.0
C      1  0.3803030000000  0.4449370000000  0.6947870000000 1.0
C      1  0.3896230000000  0.2991550000000  0.4884260000000 1.0
C      1  0.3665830000000  0.4279000000000  0.2987110000000 1.0
C      1  0.3833460000000  0.6620790000000  0.3665800000000 1.0
C      1  0.3651600000000  0.6739530000000  0.6276080000000 1.0
C      1  0.4669850000000  0.4043330000000  0.7048820000000 1.0
C      1  0.4471540000000  0.6785330000000  0.6817940000000 1.0
C      1  0.4659070000000  0.7140400000000  0.3504250000000 1.0
C      1  0.4542840000000  0.4523840000000  0.2644480000000 1.0
C      1  0.4558820000000  0.2076520000000  0.4950730000000 1.0
C      1  0.5341520000000  0.4038790000000  0.2914170000000 1.0
C      1  0.5534910000000  0.6786920000000  0.3189540000000 1.0
C      1  0.5349190000000  0.7144720000000  0.6512090000000 1.0
C      1  0.5454780000000  0.4525100000000  0.7351260000000 1.0
C      1  0.5431360000000  0.2079270000000  0.5070730000000 1.0
C      1  0.6032820000000  0.3419650000000  0.4221700000000 1.0
C      1  0.6391820000000  0.3512130000000  0.6417870000000 1.0
C      1  0.6200010000000  0.5826010000000  0.6915500000000 1.0
C      1  0.6295460000000  0.7049340000000  0.4672930000000 1.0
C      1  0.6270630000000  0.5410880000000  0.2937260000000 1.0
C      1  0.3973880000000  0.3422650000000  0.5780720000000 1.0
C      1  0.3570070000000  0.3491640000000  0.3560520000000 1.0
C      1  0.3799180000000  0.5824220000000  0.3088420000000 1.0
C      1  0.3724900000000  0.7030620000000  0.5331410000000 1.0
C      1  0.3733790000000  0.5406620000000  0.7065120000000 1.0
END
