TITL C-1525613-7943-4892 0.197501744097963 3375 -8789.13595501477 0 0 60 (Ci) n - 1
REM
REM in /home/nfs/bkarasulu/CARBON/AIRSS/Generating-Clusters/ReaxFF-fromJPCA2015/Units_Real/Try2-Higher-symm/Only-C60
REM
REM
REM
REM
REM
REM ./C.cell (863b2abdce7293c0672fb3ba77bf323a)
REM AIRSS Version 0.9.1 bugfix July 2018 build 013d7b7c2542+ Fri, 06 Jul 2018 19:26:36 +0100
REM compiler GCC version 9.2.1 20190827 (Red Hat 9.2.1-1)
REM options -cpp -mtune=generic -march=x86-64 -g -O0 -fpre-include=/usr/include/finclude/math-vector-fortran.h
REM seed -296458430 1627963441 -532968714 373274424 1791091856 1512563104 2100587861 918213547 -158321394 1107689741 493875102 -1264325493 122454910 2034063839 -896740052 -129030306 -2085016191 308442059 318016213 -324569189 -1616812474 1665897215 972715450 -2063677902 420392196 1300283769 52340251 -1933238917 700021812 639970307 820388057 -769749950 661586867
REM
CELL 1.54180   15.00000   15.00000   15.00000   90.00000   90.00000   90.00000
LATT -1
SFAC C  
C      1  0.3149740000000  0.4559480000000  0.5961700000000 1.0
C      1  0.2944880000000  0.5445040000000  0.4697190000000 1.0
C      1  0.3524400000000  0.4556350000000  0.3552860000000 1.0
C      1  0.4663270000000  0.5439010000000  0.2947010000000 1.0
C      1  0.5938840000000  0.4559810000000  0.3142040000000 1.0
C      1  0.6851810000000  0.5440360000000  0.4037760000000 1.0
C      1  0.7055890000000  0.4555010000000  0.5300860000000 1.0
C      1  0.6477500000000  0.5443620000000  0.6446920000000 1.0
C      1  0.5334080000000  0.4559230000000  0.7053390000000 1.0
C      1  0.4062390000000  0.5437700000000  0.6858520000000 1.0
C      1  0.5747020000000  0.3031500000000  0.6465920000000 1.0
C      1  0.4730730000000  0.6966130000000  0.6630290000000 1.0
C      1  0.3812040000000  0.3033290000000  0.6185650000000 1.0
C      1  0.3322840000000  0.6978460000000  0.5265730000000 1.0
C      1  0.3511990000000  0.3031980000000  0.4251920000000 1.0
C      1  0.4249010000000  0.6968420000000  0.3530340000000 1.0
C      1  0.5271280000000  0.3037650000000  0.3370920000000 1.0
C      1  0.6174500000000  0.6964930000000  0.3815680000000 1.0
C      1  0.6672680000000  0.3021210000000  0.4732810000000 1.0
C      1  0.6491370000000  0.6968760000000  0.5756620000000 1.0
C      1  0.4343720000000  0.3064670000000  0.3700840000000 1.0
C      1  0.5234060000000  0.6963810000000  0.3560900000000 1.0
C      1  0.6041950000000  0.3031290000000  0.3996060000000 1.0
C      1  0.6437950000000  0.6933620000000  0.4777360000000 1.0
C      1  0.6297050000000  0.3085790000000  0.5643170000000 1.0
C      1  0.5660820000000  0.6936330000000  0.6302710000000 1.0
C      1  0.4757330000000  0.3043270000000  0.6423010000000 1.0
C      1  0.3955150000000  0.6969420000000  0.6000320000000 1.0
C      1  0.3558800000000  0.3064310000000  0.5231040000000 1.0
C      1  0.3705580000000  0.6912940000000  0.4358310000000 1.0
C      1  0.3303160000000  0.5472030000000  0.6211510000000 1.0
C      1  0.2912670000000  0.4530800000000  0.4994100000000 1.0
C      1  0.3337530000000  0.5471450000000  0.3781700000000 1.0
C      1  0.4376560000000  0.4525790000000  0.3034570000000 1.0
C      1  0.5659350000000  0.5471100000000  0.3013890000000 1.0
C      1  0.6697670000000  0.4526790000000  0.3786910000000 1.0
C      1  0.7088490000000  0.5469830000000  0.5007500000000 1.0
C      1  0.6662360000000  0.4528110000000  0.6216560000000 1.0
C      1  0.5625390000000  0.5474350000000  0.6967930000000 1.0
C      1  0.4340550000000  0.4526020000000  0.6983180000000 1.0
C      1  0.5709180000000  0.3811110000000  0.5355200000000 1.0
C      1  0.5350770000000  0.6220120000000  0.5721400000000 1.0
C      1  0.4883170000000  0.3805490000000  0.5782890000000 1.0
C      1  0.4433130000000  0.6217450000000  0.5565510000000 1.0
C      1  0.4207360000000  0.3804930000000  0.5101540000000 1.0
C      1  0.4291050000000  0.6187590000000  0.4652520000000 1.0
C      1  0.4648510000000  0.3776240000000  0.4282450000000 1.0
C      1  0.5129760000000  0.6200050000000  0.4211100000000 1.0
C      1  0.5561820000000  0.3793390000000  0.4436510000000 1.0
C      1  0.5801580000000  0.6196980000000  0.4903620000000 1.0
C      1  0.3119790000000  0.3942690000000  0.4214240000000 1.0
C      1  0.3961840000000  0.6054120000000  0.3269120000000 1.0
C      1  0.5181210000000  0.3945670000000  0.2981250000000 1.0
C      1  0.6335800000000  0.6056150000000  0.3451740000000 1.0
C      1  0.6991590000000  0.3929720000000  0.4532830000000 1.0
C      1  0.6881880000000  0.6055020000000  0.5787650000000 1.0
C      1  0.6034630000000  0.3946460000000  0.6725790000000 1.0
C      1  0.4821890000000  0.6050970000000  0.7018860000000 1.0
C      1  0.3664590000000  0.3937670000000  0.6544370000000 1.0
C      1  0.3008050000000  0.6068550000000  0.5465730000000 1.0
END
