TITL C-1525613-7943-6237 0.401835007718213 3375 -7663.58181067837 0 0 60 (C1) n - 1
REM
REM in /home/nfs/bkarasulu/CARBON/AIRSS/Generating-Clusters/ReaxFF-fromJPCA2015/Units_Real/Try2-Higher-symm/Only-C60
REM
REM
REM
REM
REM
REM ./C.cell (863b2abdce7293c0672fb3ba77bf323a)
REM AIRSS Version 0.9.1 bugfix July 2018 build 013d7b7c2542+ Fri, 06 Jul 2018 19:26:36 +0100
REM compiler GCC version 9.2.1 20190827 (Red Hat 9.2.1-1)
REM options -cpp -mtune=generic -march=x86-64 -g -O0 -fpre-include=/usr/include/finclude/math-vector-fortran.h
REM seed 1929882920 -1210864070 1722808492 1409353292 -207040319 1558366882 -1841056782 511777045 2072160608 -603191855 -1091137410 356425466 -358283216 474875430 325687713 -1468092174 1126792807 535546243 -807120701 -562339456 1885094283 2028506091 -289215502 466893657 1976179842 1628831231 -1001725808 1107472110 1619723589 -484339194 -372666364 -990635993 -2082290028
REM
CELL 1.54180   15.00000   15.00000   15.00000   90.00000   90.00000   90.00000
LATT -1
SFAC C  
C      1  0.7758510000000  0.5703420000000  0.5338980000000 1.0
C      1  0.7808000000000  0.5526300000000  0.4366250000000 1.0
C      1  0.7700500000000  0.4475830000000  0.4182840000000 1.0
C      1  0.7720170000000  0.4110060000000  0.5149420000000 1.0
C      1  0.7814390000000  0.4840280000000  0.5815680000000 1.0
C      1  0.2227760000000  0.5707900000000  0.5349940000000 1.0
C      1  0.2184540000000  0.5493590000000  0.4379700000000 1.0
C      1  0.2291810000000  0.4440220000000  0.4188870000000 1.0
C      1  0.2229250000000  0.4089840000000  0.5163190000000 1.0
C      1  0.2189630000000  0.4837520000000  0.5831300000000 1.0
C      1  0.5460540000000  0.3879830000000  0.3922150000000 1.0
C      1  0.5519240000000  0.4128560000000  0.6119160000000 1.0
C      1  0.5501430000000  0.5136930000000  0.6402760000000 1.0
C      1  0.5458190000000  0.6438230000000  0.4626410000000 1.0
C      1  0.5375830000000  0.5792720000000  0.3848550000000 1.0
C      1  0.4514330000000  0.3846440000000  0.3923670000000 1.0
C      1  0.4568880000000  0.4188520000000  0.6033270000000 1.0
C      1  0.4545240000000  0.5142230000000  0.6356430000000 1.0
C      1  0.4514760000000  0.6491700000000  0.4660850000000 1.0
C      1  0.4414360000000  0.5770320000000  0.3725790000000 1.0
C      1  0.6298590000000  0.7171290000000  0.5447470000000 1.0
C      1  0.6373500000000  0.6236810000000  0.3051690000000 1.0
C      1  0.6193630000000  0.3640920000000  0.3339050000000 1.0
C      1  0.6189030000000  0.2954890000000  0.5873560000000 1.0
C      1  0.6415220000000  0.5181300000000  0.7393800000000 1.0
C      1  0.3699350000000  0.7203350000000  0.5487390000000 1.0
C      1  0.3763940000000  0.6270800000000  0.3071890000000 1.0
C      1  0.3816730000000  0.3639350000000  0.3340820000000 1.0
C      1  0.3734380000000  0.2882620000000  0.5812850000000 1.0
C      1  0.3637710000000  0.5171640000000  0.7352480000000 1.0
C      1  0.5493930000000  0.2985680000000  0.3566370000000 1.0
C      1  0.5453880000000  0.3179070000000  0.6401590000000 1.0
C      1  0.5539780000000  0.5474160000000  0.7321510000000 1.0
C      1  0.5533340000000  0.7370430000000  0.4979950000000 1.0
C      1  0.5523520000000  0.5840670000000  0.2898590000000 1.0
C      1  0.4506770000000  0.2970390000000  0.3558900000000 1.0
C      1  0.4446800000000  0.3245420000000  0.6316230000000 1.0
C      1  0.4512190000000  0.5486350000000  0.7278930000000 1.0
C      1  0.4483790000000  0.7374990000000  0.5026960000000 1.0
C      1  0.4566200000000  0.5824680000000  0.2756380000000 1.0
C      1  0.2957420000000  0.4945960000000  0.6906220000000 1.0
C      1  0.3032360000000  0.6717510000000  0.5673100000000 1.0
C      1  0.3109650000000  0.6039510000000  0.3583840000000 1.0
C      1  0.3004390000000  0.4052430000000  0.3546370000000 1.0
C      1  0.3152240000000  0.3178370000000  0.5401110000000 1.0
C      1  0.7073440000000  0.4976340000000  0.6908670000000 1.0
C      1  0.6967700000000  0.6718410000000  0.5690300000000 1.0
C      1  0.6975220000000  0.6087870000000  0.3520090000000 1.0
C      1  0.7013580000000  0.4059830000000  0.3521040000000 1.0
C      1  0.6849220000000  0.3181890000000  0.5413980000000 1.0
C      1  0.6789480000000  0.5825970000000  0.5417270000000 1.0
C      1  0.6879030000000  0.5556140000000  0.4284640000000 1.0
C      1  0.6716560000000  0.4591850000000  0.4202870000000 1.0
C      1  0.6730910000000  0.4104200000000  0.5176120000000 1.0
C      1  0.6848870000000  0.4931890000000  0.5985950000000 1.0
C      1  0.3209050000000  0.5827040000000  0.5398770000000 1.0
C      1  0.3093530000000  0.5542000000000  0.4286110000000 1.0
C      1  0.3267080000000  0.4547400000000  0.4272030000000 1.0
C      1  0.3175940000000  0.4092670000000  0.5169030000000 1.0
C      1  0.3174740000000  0.4877490000000  0.5980860000000 1.0
END
