TITL C-1525613-7943-2901 -0.000665570496169692 3375 -9410.15333507398 0 0 60 (C5) n - 1
REM
REM in /home/nfs/bkarasulu/CARBON/AIRSS/Generating-Clusters/ReaxFF-fromJPCA2015/Units_Real/Try2-Higher-symm/Only-C60
REM
REM
REM
REM
REM
REM ./C.cell (863b2abdce7293c0672fb3ba77bf323a)
REM AIRSS Version 0.9.1 bugfix July 2018 build 013d7b7c2542+ Fri, 06 Jul 2018 19:26:36 +0100
REM compiler GCC version 9.2.1 20190827 (Red Hat 9.2.1-1)
REM options -cpp -mtune=generic -march=x86-64 -g -O0 -fpre-include=/usr/include/finclude/math-vector-fortran.h
REM seed -483803979 -66459319 -1194366817 458234467 -1103359376 2025916228 1066866066 1248097822 1888192599 -652589974 -1253345072 705710055 -1910786049 675109352 -892436311 -2075380154 1090426671 1031752061 -295929268 -1741346205 -1407116886 -1306309475 1503479720 2138956764 602756072 -67804538 -128313577 -1753697260 1253277053 59017466 867222813 -416580293 1550618045
REM
CELL 1.54180   15.00000   15.00000   15.00000   90.00000   90.00000   90.00000
LATT -1
SFAC C  
C      1  0.4527260000000  0.7256300000000  0.5439410000000 1.0
C      1  0.6999590000000  0.6146000000000  0.5438880000000 1.0
C      1  0.6708510000000  0.3452100000000  0.5439240000000 1.0
C      1  0.4056220000000  0.2897140000000  0.5438700000000 1.0
C      1  0.2708330000000  0.5248300000000  0.5438890000000 1.0
C      1  0.5472140000000  0.7255620000000  0.5438950000000 1.0
C      1  0.2999780000000  0.6147090000000  0.5439450000000 1.0
C      1  0.3292050000000  0.3452860000000  0.5438430000000 1.0
C      1  0.5944040000000  0.2896770000000  0.5439140000000 1.0
C      1  0.7291930000000  0.5247500000000  0.5439140000000 1.0
C      1  0.2984070000000  0.3839490000000  0.4619850000000 1.0
C      1  0.3271340000000  0.6560430000000  0.4621020000000 1.0
C      1  0.5948390000000  0.7123970000000  0.4620250000000 1.0
C      1  0.7314760000000  0.4753560000000  0.4620660000000 1.0
C      1  0.5481540000000  0.2722680000000  0.4620480000000 1.0
C      1  0.7017220000000  0.3838210000000  0.4620690000000 1.0
C      1  0.6727190000000  0.6558380000000  0.4620240000000 1.0
C      1  0.4050230000000  0.7125870000000  0.4620980000000 1.0
C      1  0.2686380000000  0.4754810000000  0.4620100000000 1.0
C      1  0.4519040000000  0.2722880000000  0.4620260000000 1.0
C      1  0.3718240000000  0.5925500000000  0.6946330000000 1.0
C      1  0.5484080000000  0.6504480000000  0.6945890000000 1.0
C      1  0.6580850000000  0.5004280000000  0.6946190000000 1.0
C      1  0.5492730000000  0.3497820000000  0.6945990000000 1.0
C      1  0.3723740000000  0.4067150000000  0.6945660000000 1.0
C      1  0.6281530000000  0.5925210000000  0.6946030000000 1.0
C      1  0.4515780000000  0.6504690000000  0.6946210000000 1.0
C      1  0.3419090000000  0.5004530000000  0.6945890000000 1.0
C      1  0.4507080000000  0.3497910000000  0.6945880000000 1.0
C      1  0.6276170000000  0.4066900000000  0.6946050000000 1.0
C      1  0.6921510000000  0.3889410000000  0.6245570000000 1.0
C      1  0.4537720000000  0.2829390000000  0.6245200000000 1.0
C      1  0.2792890000000  0.4768990000000  0.6245060000000 1.0
C      1  0.4097990000000  0.7027770000000  0.6245840000000 1.0
C      1  0.6649660000000  0.6483950000000  0.6245210000000 1.0
C      1  0.3078660000000  0.3889850000000  0.6244830000000 1.0
C      1  0.5462150000000  0.2829310000000  0.6245390000000 1.0
C      1  0.7207290000000  0.4768550000000  0.6245570000000 1.0
C      1  0.5901720000000  0.7027210000000  0.6245200000000 1.0
C      1  0.3349960000000  0.6484590000000  0.6245890000000 1.0
C      1  0.7059200000000  0.6175410000000  0.3799250000000 1.0
C      1  0.6755710000000  0.3404180000000  0.3799600000000 1.0
C      1  0.4025700000000  0.2837850000000  0.3799050000000 1.0
C      1  0.2642730000000  0.5260010000000  0.3799270000000 1.0
C      1  0.4516860000000  0.7323050000000  0.3799770000000 1.0
C      1  0.2939280000000  0.6177870000000  0.3799810000000 1.0
C      1  0.3245980000000  0.3405690000000  0.3798800000000 1.0
C      1  0.5975320000000  0.2837250000000  0.3799500000000 1.0
C      1  0.7358240000000  0.5258350000000  0.3799510000000 1.0
C      1  0.5481440000000  0.7321320000000  0.3799330000000 1.0
C      1  0.5495520000000  0.2607190000000  0.2949810000000 1.0
C      1  0.2879810000000  0.3791630000000  0.2949050000000 1.0
C      1  0.3191630000000  0.6646920000000  0.2950440000000 1.0
C      1  0.6004350000000  0.7224340000000  0.2949470000000 1.0
C      1  0.7429100000000  0.4730720000000  0.2949980000000 1.0
C      1  0.4505700000000  0.2607380000000  0.2949580000000 1.0
C      1  0.7122960000000  0.3789430000000  0.2950010000000 1.0
C      1  0.6805360000000  0.6642880000000  0.2949460000000 1.0
C      1  0.3992770000000  0.7228240000000  0.2950390000000 1.0
C      1  0.2573520000000  0.4732860000000  0.2949300000000 1.0
END
