TITL C-1525613-7943-847 0.0135125548428602 3375 -8514.07873234073 0 0 60 (C2) n - 1
REM
REM in /home/nfs/bkarasulu/CARBON/AIRSS/Generating-Clusters/ReaxFF-fromJPCA2015/Units_Real/Try2-Higher-symm/Only-C60
REM
REM
REM
REM
REM
REM ./C.cell (863b2abdce7293c0672fb3ba77bf323a)
REM AIRSS Version 0.9.1 bugfix July 2018 build 013d7b7c2542+ Fri, 06 Jul 2018 19:26:36 +0100
REM compiler GCC version 9.2.1 20190827 (Red Hat 9.2.1-1)
REM options -cpp -mtune=generic -march=x86-64 -g -O0 -fpre-include=/usr/include/finclude/math-vector-fortran.h
REM seed 1648198084 1162344442 -41823533 -41770555 658423141 -200588077 1376883743 1894907953 -476362483 1826380091 -1059472474 -1096050310 1118205327 1603961515 2055328802 2078965092 -618802615 -1402294943 -1309145461 1939962120 1199630139 -1807687827 -1557213920 -1406958247 -1886555545 -777076296 412962629 1696882081 -358608749 676966290 -392560062 -88562358 -548935229
REM
CELL 1.54180   15.00000   15.00000   15.00000   90.00000   90.00000   90.00000
LATT -1
SFAC C  
C      1  0.5933960000000  0.5073540000000  0.7248540000000 1.0
C      1  0.7687810000000  0.5859000000000  0.6697040000000 1.0
C      1  0.7274780000000  0.5077420000000  0.5257370000000 1.0
C      1  0.7117400000000  0.4762270000000  0.3757760000000 1.0
C      1  0.5649330000000  0.4738560000000  0.2648040000000 1.0
C      1  0.4076430000000  0.5089400000000  0.2752900000000 1.0
C      1  0.2356550000000  0.5823900000000  0.3297100000000 1.0
C      1  0.2765020000000  0.5090990000000  0.4773240000000 1.0
C      1  0.2873270000000  0.4760560000000  0.6227360000000 1.0
C      1  0.4323890000000  0.4733040000000  0.7363210000000 1.0
C      1  0.3767860000000  0.2911920000000  0.5101530000000 1.0
C      1  0.3613060000000  0.3178560000000  0.5956460000000 1.0
C      1  0.4430590000000  0.3171910000000  0.6601620000000 1.0
C      1  0.5219070000000  0.2899150000000  0.6233640000000 1.0
C      1  0.6081920000000  0.2865440000000  0.5833050000000 1.0
C      1  0.6231660000000  0.2909780000000  0.4893410000000 1.0
C      1  0.6380980000000  0.3179260000000  0.4034560000000 1.0
C      1  0.5557230000000  0.3179330000000  0.3395800000000 1.0
C      1  0.4768250000000  0.2899400000000  0.3761190000000 1.0
C      1  0.3906360000000  0.2875190000000  0.4161580000000 1.0
C      1  0.5406030000000  0.5774260000000  0.1815030000000 1.0
C      1  0.3772530000000  0.6373650000000  0.2302420000000 1.0
C      1  0.1687590000000  0.5963160000000  0.2846090000000 1.0
C      1  0.1931480000000  0.6096540000000  0.5186640000000 1.0
C      1  0.2805470000000  0.5608450000000  0.7322070000000 1.0
C      1  0.4555430000000  0.5759760000000  0.8216240000000 1.0
C      1  0.6209960000000  0.6374220000000  0.7687390000000 1.0
C      1  0.8361520000000  0.5978180000000  0.7142700000000 1.0
C      1  0.8067350000000  0.6095940000000  0.4775820000000 1.0
C      1  0.7176320000000  0.5600890000000  0.2659780000000 1.0
C      1  0.4960890000000  0.6186020000000  0.3571020000000 1.0
C      1  0.4028770000000  0.6352820000000  0.3708730000000 1.0
C      1  0.3487910000000  0.6372640000000  0.4476780000000 1.0
C      1  0.3628800000000  0.6216160000000  0.5404360000000 1.0
C      1  0.4362100000000  0.6236540000000  0.5896540000000 1.0
C      1  0.5044950000000  0.6213780000000  0.6438180000000 1.0
C      1  0.5976130000000  0.6367850000000  0.6298000000000 1.0
C      1  0.6516140000000  0.6395850000000  0.5530150000000 1.0
C      1  0.6376360000000  0.6217070000000  0.4604260000000 1.0
C      1  0.5645080000000  0.6223030000000  0.4112810000000 1.0
C      1  0.2539190000000  0.5935420000000  0.4318150000000 1.0
C      1  0.2731080000000  0.5580220000000  0.5637690000000 1.0
C      1  0.3292210000000  0.4895770000000  0.7145450000000 1.0
C      1  0.4968510000000  0.5522390000000  0.7356280000000 1.0
C      1  0.6589730000000  0.5803050000000  0.7025640000000 1.0
C      1  0.7471080000000  0.5973100000000  0.5691140000000 1.0
C      1  0.7274000000000  0.5584630000000  0.4355270000000 1.0
C      1  0.6683420000000  0.4893420000000  0.2846460000000 1.0
C      1  0.5018220000000  0.5493770000000  0.2658940000000 1.0
C      1  0.3442280000000  0.5806590000000  0.2976040000000 1.0
C      1  0.3258400000000  0.4306630000000  0.4709760000000 1.0
C      1  0.3188530000000  0.4045980000000  0.5678100000000 1.0
C      1  0.4806520000000  0.4023070000000  0.6979200000000 1.0
C      1  0.5790950000000  0.4272950000000  0.6780110000000 1.0
C      1  0.6280610000000  0.3850500000000  0.6029410000000 1.0
C      1  0.6741150000000  0.4302710000000  0.5289790000000 1.0
C      1  0.6804930000000  0.4045780000000  0.4305930000000 1.0
C      1  0.5172450000000  0.4033320000000  0.3038370000000 1.0
C      1  0.4214290000000  0.4284140000000  0.3228320000000 1.0
C      1  0.3716200000000  0.3861130000000  0.3959540000000 1.0
END
