TITL C-1525613-7943-4528 0.173620248138336 3375 -8744.40977904556 0 0 60 (C1) n - 1
REM
REM in /home/nfs/bkarasulu/CARBON/AIRSS/Generating-Clusters/ReaxFF-fromJPCA2015/Units_Real/Try2-Higher-symm/Only-C60
REM
REM
REM
REM
REM
REM ./C.cell (863b2abdce7293c0672fb3ba77bf323a)
REM AIRSS Version 0.9.1 bugfix July 2018 build 013d7b7c2542+ Fri, 06 Jul 2018 19:26:36 +0100
REM compiler GCC version 9.2.1 20190827 (Red Hat 9.2.1-1)
REM options -cpp -mtune=generic -march=x86-64 -g -O0 -fpre-include=/usr/include/finclude/math-vector-fortran.h
REM seed 1183172920 -555972673 -725232416 1734407247 2112714570 -729057382 -1143025931 1032431889 701030368 1854612731 111584595 1146407617 827573868 -1564940924 -2098270224 -434932289 -2020882325 -1486694689 563109387 -136889923 191940979 1954406653 608876187 434065800 -1105259934 -1981660559 -925461948 1773268734 -1664181219 2079518940 -1359052955 -556492951 -20298286
REM
CELL 1.54180   15.00000   15.00000   15.00000   90.00000   90.00000   90.00000
LATT -1
SFAC C  
C      1  0.4566190000000  0.3027770000000  0.4113320000000 1.0
C      1  0.5427220000000  0.2876110000000  0.5456140000000 1.0
C      1  0.4541730000000  0.3569960000000  0.6584770000000 1.0
C      1  0.5420550000000  0.4776430000000  0.7160950000000 1.0
C      1  0.4547980000000  0.6099330000000  0.6871870000000 1.0
C      1  0.5425930000000  0.6976820000000  0.5893540000000 1.0
C      1  0.4565650000000  0.7125420000000  0.4541610000000 1.0
C      1  0.5450240000000  0.6441130000000  0.3415990000000 1.0
C      1  0.4575290000000  0.5217770000000  0.2842650000000 1.0
C      1  0.5450880000000  0.3907940000000  0.3125500000000 1.0
C      1  0.3045330000000  0.4588460000000  0.3392340000000 1.0
C      1  0.6909330000000  0.3720880000000  0.4011170000000 1.0
C      1  0.3083210000000  0.3414130000000  0.4863560000000 1.0
C      1  0.6926110000000  0.3590840000000  0.5943640000000 1.0
C      1  0.3084330000000  0.4453430000000  0.6477120000000 1.0
C      1  0.6936800000000  0.5391410000000  0.6625120000000 1.0
C      1  0.3072970000000  0.6259570000000  0.5997790000000 1.0
C      1  0.6889810000000  0.6595790000000  0.5135320000000 1.0
C      1  0.3066860000000  0.6397850000000  0.4063120000000 1.0
C      1  0.6893390000000  0.5562940000000  0.3523680000000 1.0
C      1  0.4321280000000  0.4718650000000  0.4289390000000 1.0
C      1  0.5555540000000  0.4256280000000  0.4789340000000 1.0
C      1  0.4618550000000  0.4260980000000  0.5139870000000 1.0
C      1  0.6229520000000  0.4542330000000  0.5408620000000 1.0
C      1  0.4703260000000  0.4993050000000  0.5777630000000 1.0
C      1  0.5680060000000  0.5277670000000  0.5700470000000 1.0
C      1  0.4444740000000  0.5750050000000  0.5207590000000 1.0
C      1  0.5380390000000  0.5741020000000  0.4856300000000 1.0
C      1  0.3779380000000  0.5453590000000  0.4592500000000 1.0
C      1  0.5295550000000  0.5007740000000  0.4219750000000 1.0
C      1  0.7095730000000  0.4619800000000  0.3669360000000 1.0
C      1  0.2980130000000  0.3983620000000  0.4102270000000 1.0
C      1  0.7106320000000  0.3579170000000  0.4958100000000 1.0
C      1  0.2932000000000  0.3859420000000  0.5711940000000 1.0
C      1  0.7157530000000  0.4458060000000  0.6408550000000 1.0
C      1  0.3012840000000  0.5360460000000  0.6257730000000 1.0
C      1  0.7078670000000  0.6055790000000  0.5935560000000 1.0
C      1  0.2895260000000  0.6402760000000  0.5043910000000 1.0
C      1  0.7060920000000  0.6148390000000  0.4289300000000 1.0
C      1  0.2842540000000  0.5529780000000  0.3602310000000 1.0
C      1  0.5981970000000  0.5568860000000  0.6983940000000 1.0
C      1  0.4015890000000  0.6620820000000  0.6240260000000 1.0
C      1  0.5977930000000  0.7029040000000  0.5087250000000 1.0
C      1  0.4047380000000  0.6701690000000  0.3838610000000 1.0
C      1  0.5973970000000  0.5675330000000  0.3102220000000 1.0
C      1  0.4010870000000  0.4425910000000  0.3014770000000 1.0
C      1  0.5978520000000  0.3375780000000  0.3760030000000 1.0
C      1  0.4012890000000  0.2978850000000  0.4916190000000 1.0
C      1  0.5953570000000  0.3293260000000  0.6162010000000 1.0
C      1  0.4022840000000  0.4333210000000  0.6898530000000 1.0
C      1  0.5447740000000  0.6351620000000  0.6693930000000 1.0
C      1  0.4529130000000  0.7102990000000  0.5570980000000 1.0
C      1  0.5473090000000  0.7034830000000  0.4248450000000 1.0
C      1  0.4553930000000  0.6181170000000  0.3193260000000 1.0
C      1  0.5469400000000  0.4882920000000  0.2817850000000 1.0
C      1  0.4551480000000  0.3650910000000  0.3303410000000 1.0
C      1  0.5462400000000  0.2894050000000  0.4431640000000 1.0
C      1  0.4516860000000  0.2970500000000  0.5749600000000 1.0
C      1  0.5443250000000  0.3817350000000  0.6802940000000 1.0
C      1  0.4526890000000  0.5118320000000  0.7184420000000 1.0
END
