TITL C-1525613-7943-1163 -0.00473916165804874 3375 -8835.26448494888 0 0 60 (Ci) n - 1
REM
REM in /home/nfs/bkarasulu/CARBON/AIRSS/Generating-Clusters/ReaxFF-fromJPCA2015/Units_Real/Try2-Higher-symm/Only-C60
REM
REM
REM
REM
REM
REM ./C.cell (863b2abdce7293c0672fb3ba77bf323a)
REM AIRSS Version 0.9.1 bugfix July 2018 build 013d7b7c2542+ Fri, 06 Jul 2018 19:26:36 +0100
REM compiler GCC version 9.2.1 20190827 (Red Hat 9.2.1-1)
REM options -cpp -mtune=generic -march=x86-64 -g -O0 -fpre-include=/usr/include/finclude/math-vector-fortran.h
REM seed -1389748420 1787215269 1068891317 -228316373 1166694701 -1089946279 -986372487 1378738743 -1719190476 -519499861 1789087818 -1305029861 -175048480 1665962567 -1960011173 -625808754 1361695435 -1273146168 904587036 -193756153 -1384148601 -406428381 1539205690 1422630186 1490989890 -1326782503 636994226 703051614 1192933530 -1301605231 -1766846419 -756835412 2041635199
REM
CELL 1.54180   15.00000   15.00000   15.00000   90.00000   90.00000   90.00000
LATT -1
SFAC C  
C      1  0.4825860000000  0.7129510000000  0.4117570000000 1.0
C      1  0.3636320000000  0.6631480000000  0.5877370000000 1.0
C      1  0.2866120000000  0.5457340000000  0.4153410000000 1.0
C      1  0.2848230000000  0.4126540000000  0.5881590000000 1.0
C      1  0.3793890000000  0.3116810000000  0.4172220000000 1.0
C      1  0.5182060000000  0.2873400000000  0.5892540000000 1.0
C      1  0.6365170000000  0.3369310000000  0.4129110000000 1.0
C      1  0.7132090000000  0.4536820000000  0.5854110000000 1.0
C      1  0.7150990000000  0.5873710000000  0.4125490000000 1.0
C      1  0.6210800000000  0.6887600000000  0.5835510000000 1.0
C      1  0.4577740000000  0.3865890000000  0.2942120000000 1.0
C      1  0.5361690000000  0.4248340000000  0.6934670000000 1.0
C      1  0.6073130000000  0.4839010000000  0.2809540000000 1.0
C      1  0.5860340000000  0.5172070000000  0.6772610000000 1.0
C      1  0.5611470000000  0.5654970000000  0.2913060000000 1.0
C      1  0.5420300000000  0.6117420000000  0.7054180000000 1.0
C      1  0.4644450000000  0.5742450000000  0.3058540000000 1.0
C      1  0.3935840000000  0.5157420000000  0.7192050000000 1.0
C      1  0.4140500000000  0.4818320000000  0.3219010000000 1.0
C      1  0.4389440000000  0.4339490000000  0.7082030000000 1.0
C      1  0.5451280000000  0.2709020000000  0.4984300000000 1.0
C      1  0.6614230000000  0.3469840000000  0.5018000000000 1.0
C      1  0.7398100000000  0.4772020000000  0.4960490000000 1.0
C      1  0.7127780000000  0.6144040000000  0.5020410000000 1.0
C      1  0.5972700000000  0.7103950000000  0.4962200000000 1.0
C      1  0.4550950000000  0.7284810000000  0.5020650000000 1.0
C      1  0.3383560000000  0.6526280000000  0.4988310000000 1.0
C      1  0.2599490000000  0.5232060000000  0.5052540000000 1.0
C      1  0.2872190000000  0.3861280000000  0.4985770000000 1.0
C      1  0.4034030000000  0.2904370000000  0.5044600000000 1.0
C      1  0.6589500000000  0.4321430000000  0.3568980000000 1.0
C      1  0.6808070000000  0.5299700000000  0.6384160000000 1.0
C      1  0.6231800000000  0.6222850000000  0.3644100000000 1.0
C      1  0.5373190000000  0.6803290000000  0.6426510000000 1.0
C      1  0.4246400000000  0.6467850000000  0.3569530000000 1.0
C      1  0.3416640000000  0.5680340000000  0.6437920000000 1.0
C      1  0.3188430000000  0.4697060000000  0.3615130000000 1.0
C      1  0.3771220000000  0.3776500000000  0.6357740000000 1.0
C      1  0.4627370000000  0.3187390000000  0.3574930000000 1.0
C      1  0.5741590000000  0.3545130000000  0.6414040000000 1.0
C      1  0.4225760000000  0.4398580000000  0.5726010000000 1.0
C      1  0.5113940000000  0.4266140000000  0.4501050000000 1.0
C      1  0.5130010000000  0.4329780000000  0.5455900000000 1.0
C      1  0.5915790000000  0.4703940000000  0.4198140000000 1.0
C      1  0.5590250000000  0.5135730000000  0.5773350000000 1.0
C      1  0.5777740000000  0.5607940000000  0.4270800000000 1.0
C      1  0.4883030000000  0.5729080000000  0.5479740000000 1.0
C      1  0.4846940000000  0.5698920000000  0.4510320000000 1.0
C      1  0.4084830000000  0.5308750000000  0.5794690000000 1.0
C      1  0.4408520000000  0.4862180000000  0.4203690000000 1.0
C      1  0.4187130000000  0.2932650000000  0.5950890000000 1.0
C      1  0.5517820000000  0.2893230000000  0.4070900000000 1.0
C      1  0.6595290000000  0.3667990000000  0.5924680000000 1.0
C      1  0.7331180000000  0.4912330000000  0.4048490000000 1.0
C      1  0.6931950000000  0.6167910000000  0.5929930000000 1.0
C      1  0.5815920000000  0.7068640000000  0.4055090000000 1.0
C      1  0.4485270000000  0.7101560000000  0.5934580000000 1.0
C      1  0.3393530000000  0.6325480000000  0.4084910000000 1.0
C      1  0.2671700000000  0.5088450000000  0.5964100000000 1.0
C      1  0.3068420000000  0.3833600000000  0.4075700000000 1.0
END
