TITL C-1525613-7943-813 0.0679203389311798 3375 -8761.85481293585 0 0 60 (C1) n - 1
REM
REM in /home/nfs/bkarasulu/CARBON/AIRSS/Generating-Clusters/ReaxFF-fromJPCA2015/Units_Real/Try2-Higher-symm/Only-C60
REM
REM
REM
REM
REM
REM ./C.cell (863b2abdce7293c0672fb3ba77bf323a)
REM AIRSS Version 0.9.1 bugfix July 2018 build 013d7b7c2542+ Fri, 06 Jul 2018 19:26:36 +0100
REM compiler GCC version 9.2.1 20190827 (Red Hat 9.2.1-1)
REM options -cpp -mtune=generic -march=x86-64 -g -O0 -fpre-include=/usr/include/finclude/math-vector-fortran.h
REM seed -1396334037 -1105222939 -1022110 -497345243 -820023952 -1470930681 1592398190 -308572753 842826457 -117167303 -1286307522 1716430921 -1786013516 1282469850 2083930766 326374662 -1570164298 -1545648019 -134669706 -2049338207 -799100493 -2131774610 831697387 -72344568 -1837377327 1779452897 1368156828 1417307685 -2096659815 995484703 396558747 -658615843 -2058576731
REM
CELL 1.54180   15.00000   15.00000   15.00000   90.00000   90.00000   90.00000
LATT -1
SFAC C  
C      1  0.6336230000000  0.5368540000000  0.6754510000000 1.0
C      1  0.6686480000000  0.3729990000000  0.5967600000000 1.0
C      1  0.6697160000000  0.3747340000000  0.4143500000000 1.0
C      1  0.6341580000000  0.5674170000000  0.3415710000000 1.0
C      1  0.6595370000000  0.6608560000000  0.5001960000000 1.0
C      1  0.3662600000000  0.5369730000000  0.6759710000000 1.0
C      1  0.3338720000000  0.3755970000000  0.5950050000000 1.0
C      1  0.3332470000000  0.3740280000000  0.4133670000000 1.0
C      1  0.3627940000000  0.5711720000000  0.3426780000000 1.0
C      1  0.3392260000000  0.6613190000000  0.5003160000000 1.0
C      1  0.4529020000000  0.5039520000000  0.4157430000000 1.0
C      1  0.4503400000000  0.5841660000000  0.4770740000000 1.0
C      1  0.4494460000000  0.5505130000000  0.5713140000000 1.0
C      1  0.4524440000000  0.4525490000000  0.5618410000000 1.0
C      1  0.4486180000000  0.4181810000000  0.4705810000000 1.0
C      1  0.5514080000000  0.5038830000000  0.4201230000000 1.0
C      1  0.5501030000000  0.5825000000000  0.4792930000000 1.0
C      1  0.5509130000000  0.5484400000000  0.5714020000000 1.0
C      1  0.5496190000000  0.4477820000000  0.5604330000000 1.0
C      1  0.5514030000000  0.4163270000000  0.4657570000000 1.0
C      1  0.6941930000000  0.5216870000000  0.5966680000000 1.0
C      1  0.7204310000000  0.4385450000000  0.5578320000000 1.0
C      1  0.7173160000000  0.4480150000000  0.4498250000000 1.0
C      1  0.6943390000000  0.5372800000000  0.4214470000000 1.0
C      1  0.7058400000000  0.5787590000000  0.5107610000000 1.0
C      1  0.3057200000000  0.5224560000000  0.5972670000000 1.0
C      1  0.2804450000000  0.4394100000000  0.5559270000000 1.0
C      1  0.2859360000000  0.4477820000000  0.4486230000000 1.0
C      1  0.3063230000000  0.5380210000000  0.4215420000000 1.0
C      1  0.2937790000000  0.5790170000000  0.5117910000000 1.0
C      1  0.3992100000000  0.3106500000000  0.3897830000000 1.0
C      1  0.3980570000000  0.5009090000000  0.2914440000000 1.0
C      1  0.3995030000000  0.7310610000000  0.4834210000000 1.0
C      1  0.3994710000000  0.6252700000000  0.6730980000000 1.0
C      1  0.3977050000000  0.3219670000000  0.6320110000000 1.0
C      1  0.6013290000000  0.3131010000000  0.3907500000000 1.0
C      1  0.5998420000000  0.4984990000000  0.2926170000000 1.0
C      1  0.5992280000000  0.7305510000000  0.4835510000000 1.0
C      1  0.5999190000000  0.6250000000000  0.6720150000000 1.0
C      1  0.6021650000000  0.3212300000000  0.6327060000000 1.0
C      1  0.4493310000000  0.6394580000000  0.3431700000000 1.0
C      1  0.4513920000000  0.7507140000000  0.5665010000000 1.0
C      1  0.4511930000000  0.4716900000000  0.7071020000000 1.0
C      1  0.4500530000000  0.2681300000000  0.5647080000000 1.0
C      1  0.4522050000000  0.3425800000000  0.3106640000000 1.0
C      1  0.5476130000000  0.6384840000000  0.3438460000000 1.0
C      1  0.5477050000000  0.7510030000000  0.5664890000000 1.0
C      1  0.5488680000000  0.4716820000000  0.7075600000000 1.0
C      1  0.5479190000000  0.2687300000000  0.5649790000000 1.0
C      1  0.5478260000000  0.3425530000000  0.3096930000000 1.0
C      1  0.5477660000000  0.2657380000000  0.4659500000000 1.0
C      1  0.5525780000000  0.4270480000000  0.2577820000000 1.0
C      1  0.5490220000000  0.7209690000000  0.3950010000000 1.0
C      1  0.5517280000000  0.7043270000000  0.6546740000000 1.0
C      1  0.5497430000000  0.3742010000000  0.7028610000000 1.0
C      1  0.4508000000000  0.2648810000000  0.4645700000000 1.0
C      1  0.4475030000000  0.4277260000000  0.2592680000000 1.0
C      1  0.4495360000000  0.7218530000000  0.3951070000000 1.0
C      1  0.4476850000000  0.7044400000000  0.6548410000000 1.0
C      1  0.4505080000000  0.3743440000000  0.7029280000000 1.0
END
