TITL C-1525613-7943-290 0.176585163587174 3375 -8583.44374087941 0 0 60 (C1) n - 1
REM
REM in /home/nfs/bkarasulu/CARBON/AIRSS/Generating-Clusters/ReaxFF-fromJPCA2015/Units_Real/Try2-Higher-symm/Only-C60
REM
REM
REM
REM
REM
REM ./C.cell (863b2abdce7293c0672fb3ba77bf323a)
REM AIRSS Version 0.9.1 bugfix July 2018 build 013d7b7c2542+ Fri, 06 Jul 2018 19:26:36 +0100
REM compiler GCC version 9.2.1 20190827 (Red Hat 9.2.1-1)
REM options -cpp -mtune=generic -march=x86-64 -g -O0 -fpre-include=/usr/include/finclude/math-vector-fortran.h
REM seed -1582182200 1496749671 -1171594214 1163734411 -977982931 -580715245 -1020151972 1590222400 18706319 -816702449 -1741329904 -819985282 -480425462 -1098854060 -1842544748 2066098429 1301419776 -410529926 373942614 -1009731773 1161123873 -937408400 1530058125 1573773391 -905943907 1899427487 1108034209 487155350 2083457392 656704970 -1033223596 1701617098 -2075277934
REM
CELL 1.54180   15.00000   15.00000   15.00000   90.00000   90.00000   90.00000
LATT -1
SFAC C  
C      1  0.6417280000000  0.5371380000000  0.4091700000000 1.0
C      1  0.6524100000000  0.5593240000000  0.5078920000000 1.0
C      1  0.6707800000000  0.5269910000000  0.6000150000000 1.0
C      1  0.5255690000000  0.5299950000000  0.6782010000000 1.0
C      1  0.4380100000000  0.5572670000000  0.6512940000000 1.0
C      1  0.3601720000000  0.5344710000000  0.5909590000000 1.0
C      1  0.3464070000000  0.5588450000000  0.4911560000000 1.0
C      1  0.3177140000000  0.5288550000000  0.4025750000000 1.0
C      1  0.4822780000000  0.5318900000000  0.3012740000000 1.0
C      1  0.5653920000000  0.5611160000000  0.3409120000000 1.0
C      1  0.3965320000000  0.4184920000000  0.7077820000000 1.0
C      1  0.3049170000000  0.4369930000000  0.6086450000000 1.0
C      1  0.2711600000000  0.4246450000000  0.4760280000000 1.0
C      1  0.3212770000000  0.4386030000000  0.3505750000000 1.0
C      1  0.4715790000000  0.4368530000000  0.2682150000000 1.0
C      1  0.6028270000000  0.4169800000000  0.2929040000000 1.0
C      1  0.6939560000000  0.4387050000000  0.3927340000000 1.0
C      1  0.7261990000000  0.4268930000000  0.5261340000000 1.0
C      1  0.6785060000000  0.4368710000000  0.6524250000000 1.0
C      1  0.5285410000000  0.4415900000000  0.7266490000000 1.0
C      1  0.5741730000000  0.3185800000000  0.6369850000000 1.0
C      1  0.4802880000000  0.3055630000000  0.6540270000000 1.0
C      1  0.3945230000000  0.3021330000000  0.6109420000000 1.0
C      1  0.3495180000000  0.3047140000000  0.5266090000000 1.0
C      1  0.3578410000000  0.3051690000000  0.4309120000000 1.0
C      1  0.4270160000000  0.3208190000000  0.3652900000000 1.0
C      1  0.5200800000000  0.3041480000000  0.3459230000000 1.0
C      1  0.6056700000000  0.3028490000000  0.3899390000000 1.0
C      1  0.6505210000000  0.3056830000000  0.4743810000000 1.0
C      1  0.6424370000000  0.3046420000000  0.5700620000000 1.0
C      1  0.3226900000000  0.6307660000000  0.6084050000000 1.0
C      1  0.2927300000000  0.6380900000000  0.5167340000000 1.0
C      1  0.3028310000000  0.6238770000000  0.3706940000000 1.0
C      1  0.4292780000000  0.6170720000000  0.2813190000000 1.0
C      1  0.5623030000000  0.6472010000000  0.3001320000000 1.0
C      1  0.6803350000000  0.6321440000000  0.3926410000000 1.0
C      1  0.7097130000000  0.6366470000000  0.4845200000000 1.0
C      1  0.6867790000000  0.6180860000000  0.6364890000000 1.0
C      1  0.5452070000000  0.6231160000000  0.7119450000000 1.0
C      1  0.4480010000000  0.6410190000000  0.7049060000000 1.0
C      1  0.5622880000000  0.7025290000000  0.6535270000000 1.0
C      1  0.4647710000000  0.7210960000000  0.6492200000000 1.0
C      1  0.3863630000000  0.7051300000000  0.5930050000000 1.0
C      1  0.3475850000000  0.7185760000000  0.5021400000000 1.0
C      1  0.3607900000000  0.6970430000000  0.4060130000000 1.0
C      1  0.4404630000000  0.6959570000000  0.3433010000000 1.0
C      1  0.5392830000000  0.7228100000000  0.3523960000000 1.0
C      1  0.6198900000000  0.7106980000000  0.4094080000000 1.0
C      1  0.6597940000000  0.7196710000000  0.4999490000000 1.0
C      1  0.6414060000000  0.6981160000000  0.5955990000000 1.0
C      1  0.6014830000000  0.3940650000000  0.6887640000000 1.0
C      1  0.4657710000000  0.3750810000000  0.7206060000000 1.0
C      1  0.3464950000000  0.3725220000000  0.6597980000000 1.0
C      1  0.2852100000000  0.3757260000000  0.5426680000000 1.0
C      1  0.2930150000000  0.3731280000000  0.4077780000000 1.0
C      1  0.3998470000000  0.3970610000000  0.3155930000000 1.0
C      1  0.5345420000000  0.3712040000000  0.2771600000000 1.0
C      1  0.6534090000000  0.3733560000000  0.3412450000000 1.0
C      1  0.7133710000000  0.3779900000000  0.4597080000000 1.0
C      1  0.7063320000000  0.3734060000000  0.5937310000000 1.0
END
