TITL C-1525613-7943-4882 0.11938025289243 3375 -8079.5161455742 0 0 60 (C2) n - 1
REM
REM in /home/nfs/bkarasulu/CARBON/AIRSS/Generating-Clusters/ReaxFF-fromJPCA2015/Units_Real/Try2-Higher-symm/Only-C60
REM
REM
REM
REM
REM
REM ./C.cell (863b2abdce7293c0672fb3ba77bf323a)
REM AIRSS Version 0.9.1 bugfix July 2018 build 013d7b7c2542+ Fri, 06 Jul 2018 19:26:36 +0100
REM compiler GCC version 9.2.1 20190827 (Red Hat 9.2.1-1)
REM options -cpp -mtune=generic -march=x86-64 -g -O0 -fpre-include=/usr/include/finclude/math-vector-fortran.h
REM seed -162289901 -1887878878 -959367500 865774531 811466217 -2040043585 -2008565536 1838983572 -256117842 -911158263 1861859323 -769545268 274104914 954086125 328094219 1905736689 1492364046 828347869 -585334383 1372539363 -1024720900 -568827321 -1498290536 745082407 -1473548507 827186971 -802881771 -736484034 -956800582 1885431096 -1512319932 1808096310 754754473
REM
CELL 1.54180   15.00000   15.00000   15.00000   90.00000   90.00000   90.00000
LATT -1
SFAC C  
C      1  0.3147360000000  0.6521980000000  0.5369900000000 1.0
C      1  0.3143700000000  0.6002150000000  0.6203300000000 1.0
C      1  0.3146510000000  0.5163130000000  0.6592180000000 1.0
C      1  0.3138970000000  0.4122300000000  0.6400710000000 1.0
C      1  0.3143500000000  0.3497150000000  0.5557270000000 1.0
C      1  0.3147360000000  0.3478020000000  0.4630100000000 1.0
C      1  0.3143700000000  0.3997840000000  0.3796700000000 1.0
C      1  0.3146510000000  0.4836870000000  0.3407820000000 1.0
C      1  0.3138980000000  0.5877700000000  0.3599290000000 1.0
C      1  0.3143500000000  0.6502850000000  0.4442720000000 1.0
C      1  0.5379060000000  0.7304490000000  0.5666490000000 1.0
C      1  0.5339940000000  0.6466260000000  0.6899280000000 1.0
C      1  0.5330990000000  0.5088130000000  0.7424690000000 1.0
C      1  0.5349900000000  0.3656400000000  0.6978730000000 1.0
C      1  0.5332560000000  0.2726770000000  0.5834150000000 1.0
C      1  0.5379080000000  0.2695480000000  0.4333610000000 1.0
C      1  0.5339890000000  0.3533800000000  0.3100660000000 1.0
C      1  0.5330880000000  0.4911790000000  0.2575350000000 1.0
C      1  0.5349770000000  0.6343670000000  0.3021330000000 1.0
C      1  0.5332450000000  0.7273160000000  0.4165770000000 1.0
C      1  0.6439560000000  0.3611850000000  0.6996770000000 1.0
C      1  0.6408950000000  0.2668030000000  0.5928540000000 1.0
C      1  0.6457680000000  0.2653410000000  0.4308870000000 1.0
C      1  0.6429280000000  0.3541070000000  0.3031130000000 1.0
C      1  0.6408470000000  0.4849090000000  0.2501290000000 1.0
C      1  0.6439690000000  0.6388100000000  0.3003250000000 1.0
C      1  0.6409030000000  0.7331960000000  0.4071510000000 1.0
C      1  0.6457660000000  0.7346610000000  0.5691120000000 1.0
C      1  0.6429250000000  0.6458910000000  0.6968890000000 1.0
C      1  0.6408410000000  0.5150920000000  0.7498720000000 1.0
C      1  0.7015400000000  0.5880000000000  0.3559280000000 1.0
C      1  0.6919440000000  0.6576640000000  0.4339060000000 1.0
C      1  0.7012120000000  0.6653960000000  0.5397970000000 1.0
C      1  0.6988490000000  0.6111000000000  0.6279060000000 1.0
C      1  0.6926110000000  0.5130890000000  0.6700010000000 1.0
C      1  0.7015420000000  0.4120030000000  0.6440680000000 1.0
C      1  0.6919430000000  0.3423380000000  0.5660920000000 1.0
C      1  0.7012140000000  0.3346050000000  0.4602030000000 1.0
C      1  0.6988480000000  0.3889010000000  0.3720920000000 1.0
C      1  0.6926090000000  0.4869100000000  0.3299950000000 1.0
C      1  0.3120260000000  0.6363250000000  0.2894070000000 1.0
C      1  0.3113580000000  0.7535960000000  0.4367440000000 1.0
C      1  0.3116120000000  0.7573700000000  0.5364850000000 1.0
C      1  0.3110990000000  0.6455320000000  0.7155650000000 1.0
C      1  0.3114180000000  0.5541050000000  0.7555140000000 1.0
C      1  0.3120260000000  0.3636750000000  0.7105930000000 1.0
C      1  0.3113580000000  0.2464040000000  0.5632560000000 1.0
C      1  0.3116120000000  0.2426310000000  0.4635150000000 1.0
C      1  0.3110990000000  0.3544680000000  0.2844350000000 1.0
C      1  0.3114170000000  0.4458950000000  0.2444850000000 1.0
C      1  0.4996680000000  0.4397000000000  0.7094720000000 1.0
C      1  0.4975440000000  0.3296390000000  0.6329760000000 1.0
C      1  0.5017360000000  0.2837390000000  0.5072950000000 1.0
C      1  0.5006090000000  0.3205720000000  0.3783070000000 1.0
C      1  0.4971420000000  0.4263750000000  0.2963370000000 1.0
C      1  0.4996660000000  0.5603020000000  0.2905310000000 1.0
C      1  0.4975590000000  0.6703580000000  0.3670250000000 1.0
C      1  0.5017310000000  0.7162590000000  0.4927010000000 1.0
C      1  0.5006160000000  0.6794290000000  0.6216890000000 1.0
C      1  0.4971340000000  0.5736300000000  0.7036640000000 1.0
END
