TITL C-1525613-7943-5727 -8.75706451139025e-05 3375 -9891.2326829327 0 0 60 (Ih) n - 1
REM
REM in /home/nfs/bkarasulu/CARBON/AIRSS/Generating-Clusters/ReaxFF-fromJPCA2015/Units_Real/Try2-Higher-symm/Only-C60
REM
REM
REM
REM
REM
REM ./C.cell (863b2abdce7293c0672fb3ba77bf323a)
REM AIRSS Version 0.9.1 bugfix July 2018 build 013d7b7c2542+ Fri, 06 Jul 2018 19:26:36 +0100
REM compiler GCC version 9.2.1 20190827 (Red Hat 9.2.1-1)
REM options -cpp -mtune=generic -march=x86-64 -g -O0 -fpre-include=/usr/include/finclude/math-vector-fortran.h
REM seed 1215598283 -2109231130 -838958035 -370113591 -2000813563 444877354 835341072 -522415482 1289826601 1431129568 -832493485 384927773 -1705180911 -606997032 187682704 -1698580865 1309272076 -236087404 1714020579 -395612112 -1522952835 1002107454 -1895366868 -943329003 88321975 1238975092 655581936 -1996061447 1540302956 1878613299 -1636237606 -814582923 1663958573
REM
CELL 1.54180   15.00000   15.00000   15.00000   90.00000   90.00000   90.00000
LATT -1
SFAC C  
C      1  0.3276220000000  0.3373630000000  0.5036990000000 1.0
C      1  0.6724150000000  0.3706930000000  0.5986470000000 1.0
C      1  0.3275580000000  0.4532770000000  0.6557530000000 1.0
C      1  0.6723610000000  0.5538440000000  0.6535290000000 1.0
C      1  0.3275340000000  0.6337080000000  0.5925000000000 1.0
C      1  0.6723780000000  0.6626370000000  0.4963010000000 1.0
C      1  0.3275850000000  0.6293070000000  0.4013530000000 1.0
C      1  0.6724420000000  0.5467230000000  0.3442470000000 1.0
C      1  0.3276390000000  0.4461560000000  0.3464710000000 1.0
C      1  0.6724660000000  0.3662920000000  0.4075000000000 1.0
C      1  0.3779290000000  0.3718350000000  0.6576420000000 1.0
C      1  0.6220080000000  0.4890390000000  0.7029100000000 1.0
C      1  0.3778740000000  0.6103320000000  0.6705590000000 1.0
C      1  0.6219980000000  0.6895800000000  0.5731750000000 1.0
C      1  0.3779120000000  0.6963170000000  0.4477260000000 1.0
C      1  0.6220710000000  0.6281650000000  0.3423580000000 1.0
C      1  0.3779920000000  0.5109610000000  0.2970900000000 1.0
C      1  0.6221260000000  0.3896680000000  0.3294410000000 1.0
C      1  0.3780020000000  0.3104200000000  0.4268250000000 1.0
C      1  0.6220880000000  0.3036830000000  0.5522740000000 1.0
C      1  0.4594280000000  0.6527230000000  0.3233420000000 1.0
C      1  0.5406400000000  0.5197400000000  0.2673260000000 1.0
C      1  0.4594940000000  0.3791860000000  0.3001460000000 1.0
C      1  0.5406540000000  0.2848100000000  0.4093410000000 1.0
C      1  0.4594520000000  0.2725970000000  0.5531270000000 1.0
C      1  0.5405720000000  0.3472770000000  0.6766580000000 1.0
C      1  0.4593600000000  0.4802600000000  0.7326740000000 1.0
C      1  0.5405060000000  0.6208140000000  0.6998540000000 1.0
C      1  0.4593460000000  0.7151900000000  0.5906590000000 1.0
C      1  0.5405480000000  0.7274030000000  0.4468730000000 1.0
C      1  0.3779610000000  0.3139870000000  0.5817580000000 1.0
C      1  0.6220350000000  0.3976360000000  0.6755200000000 1.0
C      1  0.3778850000000  0.5202870000000  0.7021260000000 1.0
C      1  0.6219890000000  0.6352860000000  0.6516400000000 1.0
C      1  0.3778870000000  0.6985130000000  0.5431190000000 1.0
C      1  0.6220390000000  0.6860130000000  0.4182420000000 1.0
C      1  0.3779650000000  0.6023640000000  0.3244800000000 1.0
C      1  0.6221150000000  0.4797130000000  0.2978740000000 1.0
C      1  0.3780110000000  0.3647140000000  0.3483600000000 1.0
C      1  0.6221130000000  0.3014870000000  0.4568810000000 1.0
C      1  0.7225510000000  0.5270030000000  0.5769440000000 1.0
C      1  0.2773960000000  0.5669500000000  0.5463020000000 1.0
C      1  0.7225600000000  0.5815020000000  0.4981820000000 1.0
C      1  0.2774210000000  0.5647460000000  0.4505490000000 1.0
C      1  0.7225920000000  0.5234360000000  0.4220120000000 1.0
C      1  0.2774490000000  0.4729970000000  0.4230560000000 1.0
C      1  0.7226040000000  0.4330500000000  0.4536980000000 1.0
C      1  0.2774400000000  0.4184980000000  0.5018180000000 1.0
C      1  0.7225790000000  0.4352540000000  0.5494510000000 1.0
C      1  0.2774080000000  0.4765640000000  0.5779880000000 1.0
C      1  0.4593370000000  0.6606910000000  0.6694210000000 1.0
C      1  0.5405230000000  0.7296070000000  0.5426260000000 1.0
C      1  0.4593960000000  0.7107890000000  0.3995120000000 1.0
C      1  0.5406120000000  0.6114890000000  0.2948190000000 1.0
C      1  0.4594820000000  0.4695710000000  0.2684590000000 1.0
C      1  0.5406630000000  0.3393090000000  0.3305790000000 1.0
C      1  0.4594770000000  0.2703930000000  0.4573740000000 1.0
C      1  0.5406040000000  0.2892110000000  0.6004880000000 1.0
C      1  0.4593880000000  0.3885110000000  0.7051810000000 1.0
C      1  0.5405180000000  0.5304290000000  0.7315410000000 1.0
END
