TITL C-1525613-7943-7550 0.301354199640218 3375 -8994.7093531435 0 0 60 (C5) n - 1
REM
REM in /home/nfs/bkarasulu/CARBON/AIRSS/Generating-Clusters/ReaxFF-fromJPCA2015/Units_Real/Try2-Higher-symm/Only-C60
REM
REM
REM
REM
REM
REM ./C.cell (863b2abdce7293c0672fb3ba77bf323a)
REM AIRSS Version 0.9.1 bugfix July 2018 build 013d7b7c2542+ Fri, 06 Jul 2018 19:26:36 +0100
REM compiler GCC version 9.2.1 20190827 (Red Hat 9.2.1-1)
REM options -cpp -mtune=generic -march=x86-64 -g -O0 -fpre-include=/usr/include/finclude/math-vector-fortran.h
REM seed -1029796290 -1963100614 1587321478 -1996944780 -1317500709 1323591460 -1457970879 344482291 299555860 -873180119 -518615041 -176713302 1764416293 1168655093 -1072812338 611490439 909950010 -170858474 -1459991648 1305383641 1443228662 654539426 921951456 -1246318257 -1852847605 -1794040775 -414467348 502784051 535211038 -709921588 1600776757 -542066212 -435834476
REM
CELL 1.54180   15.00000   15.00000   15.00000   90.00000   90.00000   90.00000
LATT -1
SFAC C  
C      1  0.6643000000000  0.3510450000000  0.5492410000000 1.0
C      1  0.6643200000000  0.4072710000000  0.3735720000000 1.0
C      1  0.6643140000000  0.5915310000000  0.3726390000000 1.0
C      1  0.6643140000000  0.6494310000000  0.5476830000000 1.0
C      1  0.6643350000000  0.5007100000000  0.6567420000000 1.0
C      1  0.6643260000000  0.3511040000000  0.4507950000000 1.0
C      1  0.6643150000000  0.4072680000000  0.6264050000000 1.0
C      1  0.6643090000000  0.5915390000000  0.6273590000000 1.0
C      1  0.6643200000000  0.6494320000000  0.4523180000000 1.0
C      1  0.6643120000000  0.5007140000000  0.3431810000000 1.0
C      1  0.3916700000000  0.5180910000000  0.7138880000000 1.0
C      1  0.3900020000000  0.3026260000000  0.5845870000000 1.0
C      1  0.3909380000000  0.3582000000000  0.3372620000000 1.0
C      1  0.3909520000000  0.6088460000000  0.3137590000000 1.0
C      1  0.3928480000000  0.7105880000000  0.5468390000000 1.0
C      1  0.3914830000000  0.5179670000000  0.2859270000000 1.0
C      1  0.3903240000000  0.3024800000000  0.4152660000000 1.0
C      1  0.3909200000000  0.3586580000000  0.6626170000000 1.0
C      1  0.3909970000000  0.6086780000000  0.6861800000000 1.0
C      1  0.3928000000000  0.7105870000000  0.4532570000000 1.0
C      1  0.3189230000000  0.4114370000000  0.6248820000000 1.0
C      1  0.3169690000000  0.3548480000000  0.4532000000000 1.0
C      1  0.3198380000000  0.4966800000000  0.3452230000000 1.0
C      1  0.3152610000000  0.6490730000000  0.4496730000000 1.0
C      1  0.3141430000000  0.5906320000000  0.6259250000000 1.0
C      1  0.3183550000000  0.4112390000000  0.3751390000000 1.0
C      1  0.3165250000000  0.3549490000000  0.5468710000000 1.0
C      1  0.3203550000000  0.4964590000000  0.6548500000000 1.0
C      1  0.3152980000000  0.6490200000000  0.5504380000000 1.0
C      1  0.3137840000000  0.5908390000000  0.3740590000000 1.0
C      1  0.4574100000000  0.3691820000000  0.7357040000000 1.0
C      1  0.4565430000000  0.2366510000000  0.4486260000000 1.0
C      1  0.4570480000000  0.4673490000000  0.2326650000000 1.0
C      1  0.4565810000000  0.7435810000000  0.3870590000000 1.0
C      1  0.4562850000000  0.6817740000000  0.6966250000000 1.0
C      1  0.4573830000000  0.3691290000000  0.2642650000000 1.0
C      1  0.4565340000000  0.2366580000000  0.5516850000000 1.0
C      1  0.4569230000000  0.4674660000000  0.7671810000000 1.0
C      1  0.4565960000000  0.7434580000000  0.6129770000000 1.0
C      1  0.4566220000000  0.6822240000000  0.3032630000000 1.0
C      1  0.6277360000000  0.7450440000000  0.5517860000000 1.0
C      1  0.6277040000000  0.5266670000000  0.7490950000000 1.0
C      1  0.6277650000000  0.2715650000000  0.6021500000000 1.0
C      1  0.6278570000000  0.3320810000000  0.3143380000000 1.0
C      1  0.6277720000000  0.6247120000000  0.2830470000000 1.0
C      1  0.6277620000000  0.7450310000000  0.4482390000000 1.0
C      1  0.6277440000000  0.5266970000000  0.2510180000000 1.0
C      1  0.6277600000000  0.2715200000000  0.3977320000000 1.0
C      1  0.6277220000000  0.3320280000000  0.6856790000000 1.0
C      1  0.6276660000000  0.6248900000000  0.7168840000000 1.0
C      1  0.5427000000000  0.2492090000000  0.4213010000000 1.0
C      1  0.5430830000000  0.4976360000000  0.2371400000000 1.0
C      1  0.5430870000000  0.7492260000000  0.4165000000000 1.0
C      1  0.5426450000000  0.6563680000000  0.7111240000000 1.0
C      1  0.5429590000000  0.3476020000000  0.7141910000000 1.0
C      1  0.5427840000000  0.2493460000000  0.5788490000000 1.0
C      1  0.5429490000000  0.4976150000000  0.7628400000000 1.0
C      1  0.5430490000000  0.7492180000000  0.5835650000000 1.0
C      1  0.5426710000000  0.6566030000000  0.2889080000000 1.0
C      1  0.5431080000000  0.3475260000000  0.2857880000000 1.0
END
