TITL C-1525613-7943-6077 -0.0281096846988073 3375 -9090.49184669818 0 0 60 (C1) n - 1
REM
REM in /home/nfs/bkarasulu/CARBON/AIRSS/Generating-Clusters/ReaxFF-fromJPCA2015/Units_Real/Try2-Higher-symm/Only-C60
REM
REM
REM
REM
REM
REM ./C.cell (863b2abdce7293c0672fb3ba77bf323a)
REM AIRSS Version 0.9.1 bugfix July 2018 build 013d7b7c2542+ Fri, 06 Jul 2018 19:26:36 +0100
REM compiler GCC version 9.2.1 20190827 (Red Hat 9.2.1-1)
REM options -cpp -mtune=generic -march=x86-64 -g -O0 -fpre-include=/usr/include/finclude/math-vector-fortran.h
REM seed -1613069092 -1293894568 -1639090158 -1545463339 1912008794 -1849302694 -1440369176 1931289722 1353127661 511382760 -824646753 817601205 -1345025103 -1596926054 152322644 -1082265095 -1056425909 -317529926 -434001844 1231970943 -1309857054 -868897604 2055182493 722237969 896225668 341345062 263022457 -868308591 -769201052 -2121849452 -1750817043 -1891492349 1711742962
REM
CELL 1.54180   15.00000   15.00000   15.00000   90.00000   90.00000   90.00000
LATT -1
SFAC C  
C      1  0.6330680000000  0.4640780000000  0.3532940000000 1.0
C      1  0.4924570000000  0.5103160000000  0.2546300000000 1.0
C      1  0.4208520000000  0.4662530000000  0.3035980000000 1.0
C      1  0.2756280000000  0.5142040000000  0.4060330000000 1.0
C      1  0.2906660000000  0.4588830000000  0.4839810000000 1.0
C      1  0.3679650000000  0.4637170000000  0.6464180000000 1.0
C      1  0.5066000000000  0.5095390000000  0.7431370000000 1.0
C      1  0.5791810000000  0.4651660000000  0.6945070000000 1.0
C      1  0.7253150000000  0.5132230000000  0.5936950000000 1.0
C      1  0.7107330000000  0.4576510000000  0.5157500000000 1.0
C      1  0.5384660000000  0.2321630000000  0.5976510000000 1.0
C      1  0.6251450000000  0.2424690000000  0.5670840000000 1.0
C      1  0.6649430000000  0.2871410000000  0.4829460000000 1.0
C      1  0.6296910000000  0.2889500000000  0.3938220000000 1.0
C      1  0.5421970000000  0.2455550000000  0.3617750000000 1.0
C      1  0.4639820000000  0.2257950000000  0.4075130000000 1.0
C      1  0.3767580000000  0.2435840000000  0.4324850000000 1.0
C      1  0.3350750000000  0.2869210000000  0.5162860000000 1.0
C      1  0.3702940000000  0.2891800000000  0.6054550000000 1.0
C      1  0.4565940000000  0.2443540000000  0.6394100000000 1.0
C      1  0.3888450000000  0.6178540000000  0.3456630000000 1.0
C      1  0.2720650000000  0.6818410000000  0.4458980000000 1.0
C      1  0.3371380000000  0.5948290000000  0.5606710000000 1.0
C      1  0.3944420000000  0.6225820000000  0.6894470000000 1.0
C      1  0.5279050000000  0.6885010000000  0.7339140000000 1.0
C      1  0.6118380000000  0.6169580000000  0.6539010000000 1.0
C      1  0.7282480000000  0.6811430000000  0.5534550000000 1.0
C      1  0.6671220000000  0.5939830000000  0.4410290000000 1.0
C      1  0.5938930000000  0.6175860000000  0.3248650000000 1.0
C      1  0.4707080000000  0.6895760000000  0.2636730000000 1.0
C      1  0.6529240000000  0.7294970000000  0.5304160000000 1.0
C      1  0.6424730000000  0.6823360000000  0.4430010000000 1.0
C      1  0.5758220000000  0.7015920000000  0.3577500000000 1.0
C      1  0.4854210000000  0.7377200000000  0.3436850000000 1.0
C      1  0.3980960000000  0.7035160000000  0.3849880000000 1.0
C      1  0.3470420000000  0.7308200000000  0.4684130000000 1.0
C      1  0.3584950000000  0.6838380000000  0.5556700000000 1.0
C      1  0.4213300000000  0.7032940000000  0.6417520000000 1.0
C      1  0.5131350000000  0.7359260000000  0.6535680000000 1.0
C      1  0.6012810000000  0.7018620000000  0.6131350000000 1.0
C      1  0.6450850000000  0.5299070000000  0.6567520000000 1.0
C      1  0.7480570000000  0.6013930000000  0.5755470000000 1.0
C      1  0.6838320000000  0.5031910000000  0.4299530000000 1.0
C      1  0.5848260000000  0.5275960000000  0.2956870000000 1.0
C      1  0.4749250000000  0.6009020000000  0.2381820000000 1.0
C      1  0.3558740000000  0.5309680000000  0.3427440000000 1.0
C      1  0.2525930000000  0.6021460000000  0.4243530000000 1.0
C      1  0.3181190000000  0.5043860000000  0.5688600000000 1.0
C      1  0.4145940000000  0.5250690000000  0.7053770000000 1.0
C      1  0.5255210000000  0.5999710000000  0.7599640000000 1.0
C      1  0.6062310000000  0.3715360000000  0.3454010000000 1.0
C      1  0.5190010000000  0.3335270000000  0.3193370000000 1.0
C      1  0.4308430000000  0.3750860000000  0.3330290000000 1.0
C      1  0.3599720000000  0.3306140000000  0.3848950000000 1.0
C      1  0.3133380000000  0.3667610000000  0.4634420000000 1.0
C      1  0.3944560000000  0.3712860000000  0.6529460000000 1.0
C      1  0.4813680000000  0.3318440000000  0.6816140000000 1.0
C      1  0.5693290000000  0.3742640000000  0.6658750000000 1.0
C      1  0.6413650000000  0.3286380000000  0.6158830000000 1.0
C      1  0.6868350000000  0.3665240000000  0.5357940000000 1.0
END
