TITL C-1525613-7943-7615 -0.113658853166287 3375 -9124.66990442649 0 0 60 (C5) n - 1
REM
REM in /home/nfs/bkarasulu/CARBON/AIRSS/Generating-Clusters/ReaxFF-fromJPCA2015/Units_Real/Try2-Higher-symm/Only-C60
REM
REM
REM
REM
REM
REM ./C.cell (863b2abdce7293c0672fb3ba77bf323a)
REM AIRSS Version 0.9.1 bugfix July 2018 build 013d7b7c2542+ Fri, 06 Jul 2018 19:26:36 +0100
REM compiler GCC version 9.2.1 20190827 (Red Hat 9.2.1-1)
REM options -cpp -mtune=generic -march=x86-64 -g -O0 -fpre-include=/usr/include/finclude/math-vector-fortran.h
REM seed -1119490756 -497202774 139638709 1986375951 877162249 1594893432 1575249926 -379434585 -602069118 -462292490 -1203843264 465370685 1156164813 -569641462 -2010465207 -1012633363 -522832998 -1098629207 -2002864357 110974460 1626502976 -1075311177 805324694 -465140455 -1227197578 -1614987288 -534917580 361194180 2119585175 79854000 -912811528 -2085816157 -1169245289
REM
CELL 1.54180   15.00000   15.00000   15.00000   90.00000   90.00000   90.00000
LATT -1
SFAC C  
C      1  0.3130410000000  0.5498410000000  0.3488080000000 1.0
C      1  0.3129230000000  0.3713630000000  0.4059330000000 1.0
C      1  0.3129170000000  0.3705720000000  0.5932330000000 1.0
C      1  0.3129330000000  0.5486370000000  0.6517540000000 1.0
C      1  0.3129800000000  0.6595260000000  0.5006770000000 1.0
C      1  0.3130250000000  0.4501670000000  0.3488420000000 1.0
C      1  0.3129820000000  0.6286530000000  0.4058640000000 1.0
C      1  0.3129840000000  0.6292840000000  0.5931650000000 1.0
C      1  0.3129270000000  0.4513120000000  0.6517660000000 1.0
C      1  0.3129790000000  0.3404350000000  0.5007040000000 1.0
C      1  0.5453340000000  0.5805680000000  0.2365560000000 1.0
C      1  0.5453480000000  0.2745580000000  0.3420620000000 1.0
C      1  0.5454600000000  0.2800320000000  0.6656380000000 1.0
C      1  0.5453820000000  0.5895480000000  0.7603740000000 1.0
C      1  0.5454470000000  0.7753850000000  0.4952550000000 1.0
C      1  0.5453070000000  0.4194030000000  0.2366180000000 1.0
C      1  0.5453100000000  0.7256240000000  0.3419280000000 1.0
C      1  0.5454030000000  0.7199790000000  0.6656620000000 1.0
C      1  0.5453730000000  0.4104440000000  0.7603200000000 1.0
C      1  0.5454540000000  0.2245340000000  0.4952850000000 1.0
C      1  0.6758280000000  0.5486670000000  0.6495740000000 1.0
C      1  0.6759500000000  0.6574900000000  0.4999160000000 1.0
C      1  0.6759580000000  0.5485110000000  0.3502590000000 1.0
C      1  0.6758220000000  0.3727360000000  0.4076480000000 1.0
C      1  0.6761070000000  0.3726890000000  0.5925940000000 1.0
C      1  0.6758490000000  0.4513110000000  0.6495880000000 1.0
C      1  0.6759180000000  0.3426520000000  0.4998240000000 1.0
C      1  0.6757830000000  0.4515110000000  0.3503420000000 1.0
C      1  0.6756830000000  0.6274030000000  0.4076790000000 1.0
C      1  0.6757730000000  0.6272690000000  0.5924410000000 1.0
C      1  0.4555170000000  0.5503270000000  0.7516840000000 1.0
C      1  0.4556220000000  0.7550350000000  0.5299450000000 1.0
C      1  0.4555180000000  0.6072530000000  0.2667340000000 1.0
C      1  0.4555090000000  0.3113420000000  0.3259500000000 1.0
C      1  0.4555980000000  0.2762820000000  0.6255960000000 1.0
C      1  0.4555310000000  0.4497000000000  0.7516130000000 1.0
C      1  0.4556120000000  0.2450150000000  0.5299100000000 1.0
C      1  0.4555020000000  0.3927110000000  0.2667650000000 1.0
C      1  0.4554620000000  0.6887450000000  0.3258250000000 1.0
C      1  0.4555840000000  0.7237560000000  0.6255950000000 1.0
C      1  0.6347280000000  0.2550840000000  0.5266330000000 1.0
C      1  0.6346730000000  0.4496580000000  0.7410220000000 1.0
C      1  0.6346590000000  0.7137580000000  0.6223080000000 1.0
C      1  0.6345970000000  0.6824940000000  0.3344260000000 1.0
C      1  0.6346450000000  0.3990220000000  0.2753080000000 1.0
C      1  0.6347010000000  0.7448710000000  0.5266330000000 1.0
C      1  0.6346330000000  0.5502700000000  0.7410310000000 1.0
C      1  0.6348110000000  0.2861280000000  0.6224370000000 1.0
C      1  0.6347140000000  0.3175100000000  0.3345650000000 1.0
C      1  0.6346520000000  0.6010130000000  0.2752480000000 1.0
C      1  0.3756320000000  0.7325560000000  0.4759100000000 1.0
C      1  0.3755830000000  0.5489010000000  0.2716370000000 1.0
C      1  0.3755190000000  0.2977340000000  0.3829110000000 1.0
C      1  0.3755620000000  0.3261210000000  0.6561810000000 1.0
C      1  0.3754700000000  0.5947250000000  0.7136290000000 1.0
C      1  0.3756060000000  0.2674730000000  0.4758890000000 1.0
C      1  0.3755500000000  0.4510570000000  0.2716470000000 1.0
C      1  0.3755890000000  0.7023040000000  0.3828910000000 1.0
C      1  0.3755480000000  0.6738260000000  0.6561240000000 1.0
C      1  0.3754900000000  0.4052260000000  0.7136430000000 1.0
END
