TITL C-1525613-7943-3037 -0.00577292411674874 3375 -9287.43358944608 0 0 60 (C5) n - 1
REM
REM in /home/nfs/bkarasulu/CARBON/AIRSS/Generating-Clusters/ReaxFF-fromJPCA2015/Units_Real/Try2-Higher-symm/Only-C60
REM
REM
REM
REM
REM
REM ./C.cell (863b2abdce7293c0672fb3ba77bf323a)
REM AIRSS Version 0.9.1 bugfix July 2018 build 013d7b7c2542+ Fri, 06 Jul 2018 19:26:36 +0100
REM compiler GCC version 9.2.1 20190827 (Red Hat 9.2.1-1)
REM options -cpp -mtune=generic -march=x86-64 -g -O0 -fpre-include=/usr/include/finclude/math-vector-fortran.h
REM seed -2087763017 874465516 626094216 1294147558 -373377612 -30795704 1018538625 -28431475 1189405928 46812088 -206038636 1469153962 1839977926 1029839730 -520781254 1583198392 -1954128116 1306887658 1391045531 994290091 -1613371558 1043575387 1947958387 -2023116574 -2054605713 279067983 1411746299 1202057629 -742664613 -794784409 126420407 715394192 -1427625410
REM
CELL 1.54180   15.00000   15.00000   15.00000   90.00000   90.00000   90.00000
LATT -1
SFAC C  
C      1  0.5394090000000  0.2919450000000  0.3821820000000 1.0
C      1  0.5394830000000  0.3239080000000  0.6605740000000 1.0
C      1  0.5394770000000  0.5983830000000  0.7170490000000 1.0
C      1  0.5395750000000  0.7366870000000  0.4731840000000 1.0
C      1  0.5395140000000  0.5472850000000  0.2656530000000 1.0
C      1  0.5396140000000  0.7075900000000  0.3828510000000 1.0
C      1  0.5393920000000  0.6756850000000  0.6619350000000 1.0
C      1  0.5394380000000  0.4001360000000  0.7172130000000 1.0
C      1  0.5394410000000  0.2619890000000  0.4723150000000 1.0
C      1  0.5394050000000  0.4523070000000  0.2663020000000 1.0
C      1  0.6869390000000  0.3729620000000  0.5934750000000 1.0
C      1  0.6873240000000  0.5497600000000  0.6500700000000 1.0
C      1  0.6875070000000  0.6581620000000  0.4992400000000 1.0
C      1  0.6877610000000  0.5482380000000  0.3493650000000 1.0
C      1  0.6871900000000  0.3718560000000  0.4077330000000 1.0
C      1  0.6877390000000  0.6278470000000  0.5934820000000 1.0
C      1  0.6874870000000  0.4508390000000  0.6502430000000 1.0
C      1  0.6875730000000  0.3419050000000  0.4996000000000 1.0
C      1  0.6868620000000  0.4518460000000  0.3498080000000 1.0
C      1  0.6876010000000  0.6283360000000  0.4076900000000 1.0
C      1  0.4635690000000  0.6857850000000  0.3268360000000 1.0
C      1  0.4639730000000  0.3932000000000  0.2708850000000 1.0
C      1  0.4634930000000  0.2478920000000  0.5307530000000 1.0
C      1  0.4634880000000  0.4512840000000  0.7491740000000 1.0
C      1  0.4634210000000  0.7221000000000  0.6233100000000 1.0
C      1  0.4639430000000  0.3149280000000  0.3275720000000 1.0
C      1  0.4633920000000  0.6073940000000  0.2693990000000 1.0
C      1  0.4637970000000  0.7514480000000  0.5308420000000 1.0
C      1  0.4639760000000  0.5481650000000  0.7482920000000 1.0
C      1  0.4639730000000  0.2787570000000  0.6225310000000 1.0
C      1  0.6183050000000  0.5901640000000  0.2964270000000 1.0
C      1  0.6177600000000  0.3344620000000  0.3516030000000 1.0
C      1  0.6176600000000  0.3078870000000  0.6112970000000 1.0
C      1  0.6177180000000  0.5465820000000  0.7173350000000 1.0
C      1  0.6178820000000  0.7210320000000  0.5228810000000 1.0
C      1  0.6176660000000  0.4100460000000  0.2971690000000 1.0
C      1  0.6181700000000  0.6654640000000  0.3514940000000 1.0
C      1  0.6182370000000  0.6926310000000  0.6117270000000 1.0
C      1  0.6182540000000  0.4533030000000  0.7176060000000 1.0
C      1  0.6182990000000  0.2783470000000  0.5228130000000 1.0
C      1  0.3249560000000  0.5467870000000  0.3552130000000 1.0
C      1  0.3251620000000  0.3767320000000  0.4108500000000 1.0
C      1  0.3254830000000  0.3772530000000  0.5896240000000 1.0
C      1  0.3254230000000  0.5473530000000  0.6445000000000 1.0
C      1  0.3251670000000  0.6520660000000  0.4996990000000 1.0
C      1  0.3251670000000  0.4531940000000  0.3552690000000 1.0
C      1  0.3250570000000  0.6231000000000  0.4107640000000 1.0
C      1  0.3247840000000  0.6230810000000  0.5895510000000 1.0
C      1  0.3246770000000  0.4528850000000  0.6447050000000 1.0
C      1  0.3247110000000  0.3478100000000  0.4998500000000 1.0
C      1  0.3666840000000  0.3233580000000  0.3401380000000 1.0
C      1  0.3668810000000  0.2936220000000  0.6186340000000 1.0
C      1  0.3668390000000  0.5490380000000  0.7330210000000 1.0
C      1  0.3664830000000  0.7369460000000  0.5254280000000 1.0
C      1  0.3660140000000  0.5977600000000  0.2823360000000 1.0
C      1  0.3661430000000  0.6767640000000  0.3399150000000 1.0
C      1  0.3659510000000  0.7070850000000  0.6184960000000 1.0
C      1  0.3659780000000  0.4512950000000  0.7335500000000 1.0
C      1  0.3660220000000  0.2628410000000  0.5258560000000 1.0
C      1  0.3667120000000  0.4024900000000  0.2826930000000 1.0
END
