TITL C-1525613-7943-1677 -2.89489800113147e-05 3375 -8856.24515295887 0 0 60 (Cs) n - 1
REM
REM in /home/nfs/bkarasulu/CARBON/AIRSS/Generating-Clusters/ReaxFF-fromJPCA2015/Units_Real/Try2-Higher-symm/Only-C60
REM
REM
REM
REM
REM
REM ./C.cell (863b2abdce7293c0672fb3ba77bf323a)
REM AIRSS Version 0.9.1 bugfix July 2018 build 013d7b7c2542+ Fri, 06 Jul 2018 19:26:36 +0100
REM compiler GCC version 9.2.1 20190827 (Red Hat 9.2.1-1)
REM options -cpp -mtune=generic -march=x86-64 -g -O0 -fpre-include=/usr/include/finclude/math-vector-fortran.h
REM seed -1258718715 888304489 -1446820298 107539303 -1520331510 856013079 1371845708 -60099862 1666729259 1923941387 1176964698 24538974 -506482945 1069600839 2056017446 -654954603 506331202 -1401413433 -1261090412 -29914012 -1044557636 281224346 1016680415 -1241119348 -1971727166 -662101609 1781283651 -517465566 -729108287 781139145 -1491598761 1681146262 1948511489
REM
CELL 1.54180   15.00000   15.00000   15.00000   90.00000   90.00000   90.00000
LATT -1
SFAC C  
C      1  0.5621360000000  0.4490350000000  0.4351220000000 1.0
C      1  0.5788480000000  0.4496700000000  0.5389730000000 1.0
C      1  0.4880800000000  0.4513380000000  0.5867500000000 1.0
C      1  0.4136740000000  0.4496780000000  0.5166270000000 1.0
C      1  0.4575840000000  0.4490190000000  0.4209110000000 1.0
C      1  0.5621360000000  0.5509650000000  0.4351220000000 1.0
C      1  0.5788480000000  0.5503300000000  0.5389730000000 1.0
C      1  0.4880800000000  0.5486620000000  0.5867500000000 1.0
C      1  0.4136740000000  0.5503220000000  0.5166270000000 1.0
C      1  0.4575840000000  0.5509810000000  0.4209110000000 1.0
C      1  0.4852780000000  0.7074130000000  0.4186430000000 1.0
C      1  0.5726580000000  0.7075130000000  0.4607220000000 1.0
C      1  0.5597140000000  0.7076930000000  0.5568300000000 1.0
C      1  0.4643750000000  0.7074390000000  0.5740740000000 1.0
C      1  0.4183280000000  0.7074220000000  0.4887860000000 1.0
C      1  0.4852780000000  0.2925870000000  0.4186430000000 1.0
C      1  0.5726580000000  0.2924870000000  0.4607220000000 1.0
C      1  0.5597140000000  0.2923070000000  0.5568300000000 1.0
C      1  0.4643750000000  0.2925610000000  0.5740740000000 1.0
C      1  0.4183280000000  0.2925780000000  0.4887860000000 1.0
C      1  0.6664930000000  0.4172240000000  0.5825180000000 1.0
C      1  0.4741030000000  0.4179210000000  0.6830880000000 1.0
C      1  0.3172020000000  0.4172660000000  0.5327820000000 1.0
C      1  0.4119450000000  0.4165670000000  0.3344100000000 1.0
C      1  0.6308120000000  0.4166430000000  0.3654290000000 1.0
C      1  0.6664930000000  0.5827760000000  0.5825180000000 1.0
C      1  0.4741030000000  0.5820790000000  0.6830880000000 1.0
C      1  0.3172020000000  0.5827340000000  0.5327820000000 1.0
C      1  0.4119450000000  0.5834330000000  0.3344100000000 1.0
C      1  0.6308120000000  0.5833570000000  0.3654290000000 1.0
C      1  0.2907280000000  0.4477260000000  0.6229510000000 1.0
C      1  0.3183120000000  0.4477140000000  0.3387650000000 1.0
C      1  0.5977490000000  0.4476870000000  0.2777120000000 1.0
C      1  0.7407320000000  0.4477230000000  0.5249750000000 1.0
C      1  0.5513160000000  0.4477080000000  0.7367230000000 1.0
C      1  0.2907280000000  0.5522740000000  0.6229510000000 1.0
C      1  0.3183120000000  0.5522860000000  0.3387650000000 1.0
C      1  0.5977490000000  0.5523130000000  0.2777120000000 1.0
C      1  0.7407320000000  0.5522770000000  0.5249750000000 1.0
C      1  0.5513160000000  0.5522920000000  0.7367230000000 1.0
C      1  0.6277540000000  0.3335150000000  0.6196040000000 1.0
C      1  0.4266250000000  0.3343570000000  0.6583430000000 1.0
C      1  0.3263990000000  0.3340290000000  0.4791600000000 1.0
C      1  0.4664860000000  0.3336350000000  0.3279740000000 1.0
C      1  0.6533160000000  0.3335430000000  0.4152590000000 1.0
C      1  0.6277540000000  0.6664850000000  0.6196040000000 1.0
C      1  0.4266250000000  0.6656430000000  0.6583430000000 1.0
C      1  0.3263990000000  0.6659710000000  0.4791600000000 1.0
C      1  0.4664860000000  0.6663650000000  0.3279740000000 1.0
C      1  0.6533160000000  0.6664570000000  0.4152590000000 1.0
C      1  0.5317990000000  0.3806040000000  0.2770350000000 1.0
C      1  0.7217480000000  0.3803510000000  0.4621000000000 1.0
C      1  0.6050070000000  0.3798400000000  0.6996770000000 1.0
C      1  0.3434240000000  0.3805470000000  0.6625240000000 1.0
C      1  0.2973740000000  0.3808600000000  0.4015340000000 1.0
C      1  0.5317990000000  0.6193960000000  0.2770350000000 1.0
C      1  0.7217480000000  0.6196490000000  0.4621000000000 1.0
C      1  0.6050070000000  0.6201600000000  0.6996770000000 1.0
C      1  0.3434240000000  0.6194530000000  0.6625240000000 1.0
C      1  0.2973740000000  0.6191400000000  0.4015340000000 1.0
END
