TITL C-1525613-7943-7772 0.0280685228602805 3375 -8584.91995622291 0 0 60 (Ci) n - 1
REM
REM in /home/nfs/bkarasulu/CARBON/AIRSS/Generating-Clusters/ReaxFF-fromJPCA2015/Units_Real/Try2-Higher-symm/Only-C60
REM
REM
REM
REM
REM
REM ./C.cell (863b2abdce7293c0672fb3ba77bf323a)
REM AIRSS Version 0.9.1 bugfix July 2018 build 013d7b7c2542+ Fri, 06 Jul 2018 19:26:36 +0100
REM compiler GCC version 9.2.1 20190827 (Red Hat 9.2.1-1)
REM options -cpp -mtune=generic -march=x86-64 -g -O0 -fpre-include=/usr/include/finclude/math-vector-fortran.h
REM seed 1843062841 -1530505389 -1472182601 1359247217 1164744166 -487801917 1753854902 -16682934 -1391590058 -650212593 -1016591485 703415562 1849274803 -1819585779 784755116 1214445166 -53165733 -886343378 1636955952 1630538841 1553928090 999084350 -1336066829 -377477887 -1545913612 1600047995 -1170936904 1265561575 -418879828 -1755393512 301491010 -212743754 443259224
REM
CELL 1.54180   15.00000   15.00000   15.00000   90.00000   90.00000   90.00000
LATT -1
SFAC C  
C      1  0.5761370000000  0.6350050000000  0.3093170000000 1.0
C      1  0.5875830000000  0.4239430000000  0.3913640000000 1.0
C      1  0.7313000000000  0.6680810000000  0.4517360000000 1.0
C      1  0.6357140000000  0.3993010000000  0.6026620000000 1.0
C      1  0.6194430000000  0.6141800000000  0.6335730000000 1.0
C      1  0.4238890000000  0.3649890000000  0.6906740000000 1.0
C      1  0.4124230000000  0.5760740000000  0.6086600000000 1.0
C      1  0.2687080000000  0.3319010000000  0.5482490000000 1.0
C      1  0.3643270000000  0.6007030000000  0.3974130000000 1.0
C      1  0.3805590000000  0.3858370000000  0.3664310000000 1.0
C      1  0.4318300000000  0.4011960000000  0.2093020000000 1.0
C      1  0.7051300000000  0.6102180000000  0.2075740000000 1.0
C      1  0.7274080000000  0.5184350000000  0.3977220000000 1.0
C      1  0.8411200000000  0.6022410000000  0.5575200000000 1.0
C      1  0.6550770000000  0.4168810000000  0.7376140000000 1.0
C      1  0.5681830000000  0.5988210000000  0.7906940000000 1.0
C      1  0.2948250000000  0.3897750000000  0.7925730000000 1.0
C      1  0.2726390000000  0.4816050000000  0.6022500000000 1.0
C      1  0.1588130000000  0.3977820000000  0.4424570000000 1.0
C      1  0.3449590000000  0.5831210000000  0.2623540000000 1.0
C      1  0.3231480000000  0.4384840000000  0.4178750000000 1.0
C      1  0.5216880000000  0.5596960000000  0.3055750000000 1.0
C      1  0.5354260000000  0.4680770000000  0.3269220000000 1.0
C      1  0.7339360000000  0.6139650000000  0.3757880000000 1.0
C      1  0.6587220000000  0.4724320000000  0.5463420000000 1.0
C      1  0.6768280000000  0.5615620000000  0.5821390000000 1.0
C      1  0.4782720000000  0.4403790000000  0.6943930000000 1.0
C      1  0.4645830000000  0.5319380000000  0.6730080000000 1.0
C      1  0.2660490000000  0.3860360000000  0.6242140000000 1.0
C      1  0.3412860000000  0.5276020000000  0.4537080000000 1.0
C      1  0.5907570000000  0.7044030000000  0.6038530000000 1.0
C      1  0.4542340000000  0.2847220000000  0.6418090000000 1.0
C      1  0.4301460000000  0.6728740000000  0.5885090000000 1.0
C      1  0.3322890000000  0.2578480000000  0.5370510000000 1.0
C      1  0.3977350000000  0.6872700000000  0.4332690000000 1.0
C      1  0.4092490000000  0.2955790000000  0.3961410000000 1.0
C      1  0.5457880000000  0.7152340000000  0.3580910000000 1.0
C      1  0.5699020000000  0.3270740000000  0.4114100000000 1.0
C      1  0.6677830000000  0.7421800000000  0.4629330000000 1.0
C      1  0.6023530000000  0.3127080000000  0.5667860000000 1.0
C      1  0.5059340000000  0.7147860000000  0.5928470000000 1.0
C      1  0.3969040000000  0.2425580000000  0.5925840000000 1.0
C      1  0.3980420000000  0.7054460000000  0.5167170000000 1.0
C      1  0.3765720000000  0.2505770000000  0.4626800000000 1.0
C      1  0.4742250000000  0.7196550000000  0.4072570000000 1.0
C      1  0.4940450000000  0.2852130000000  0.4072330000000 1.0
C      1  0.6030290000000  0.7574410000000  0.4074490000000 1.0
C      1  0.6018890000000  0.2945120000000  0.4833060000000 1.0
C      1  0.6233260000000  0.7494310000000  0.5372730000000 1.0
C      1  0.5257700000000  0.2803510000000  0.5927550000000 1.0
C      1  0.4455180000000  0.4182350000000  0.2933010000000 1.0
C      1  0.6757100000000  0.6323260000000  0.2858470000000 1.0
C      1  0.6598400000000  0.4633450000000  0.4450870000000 1.0
C      1  0.7579120000000  0.6171600000000  0.5362270000000 1.0
C      1  0.5863760000000  0.4182600000000  0.6893000000000 1.0
C      1  0.5544070000000  0.5817350000000  0.7066980000000 1.0
C      1  0.3243370000000  0.3676100000000  0.7139930000000 1.0
C      1  0.3402040000000  0.5366480000000  0.5549400000000 1.0
C      1  0.2421660000000  0.3828220000000  0.4638150000000 1.0
C      1  0.4135520000000  0.5817330000000  0.3107360000000 1.0
END
