TITL C-1525613-7943-2758 -0.00033707962612694 3375 -8733.33423826733 0 0 60 (D5h) n - 1
REM
REM in /home/nfs/bkarasulu/CARBON/AIRSS/Generating-Clusters/ReaxFF-fromJPCA2015/Units_Real/Try2-Higher-symm/Only-C60
REM
REM
REM
REM
REM
REM ./C.cell (863b2abdce7293c0672fb3ba77bf323a)
REM AIRSS Version 0.9.1 bugfix July 2018 build 013d7b7c2542+ Fri, 06 Jul 2018 19:26:36 +0100
REM compiler GCC version 9.2.1 20190827 (Red Hat 9.2.1-1)
REM options -cpp -mtune=generic -march=x86-64 -g -O0 -fpre-include=/usr/include/finclude/math-vector-fortran.h
REM seed -1336343286 -441824808 -4138523 -322728212 1033860435 -605330032 242208361 -1507843387 510074365 -514609633 2028023027 -1194119520 -1911575145 -1697130973 -1295260389 -1877145038 1912146205 494909370 -960938697 -1857361459 -552176662 1115241055 1426872951 -1904118299 542461130 -631666625 2024315850 -1897097575 -484889009 -685048323 326437847 1890798376 1920652556
REM
CELL 1.54180   15.00000   15.00000   15.00000   90.00000   90.00000   90.00000
LATT -1
SFAC C  
C      1  0.5446740000000  0.2841920000000  0.3831500000000 1.0
C      1  0.7190420000000  0.4757860000000  0.3834780000000 1.0
C      1  0.5908320000000  0.7010520000000  0.3829160000000 1.0
C      1  0.3367600000000  0.6485100000000  0.3821830000000 1.0
C      1  0.3085340000000  0.3908860000000  0.3826570000000 1.0
C      1  0.5446740000000  0.2841920000000  0.6168500000000 1.0
C      1  0.7190430000000  0.4757860000000  0.6165230000000 1.0
C      1  0.5908320000000  0.7010520000000  0.6170840000000 1.0
C      1  0.3367590000000  0.6485110000000  0.6178180000000 1.0
C      1  0.3085340000000  0.3908860000000  0.6173440000000 1.0
C      1  0.5467810000000  0.4342250000000  0.7041910000000 1.0
C      1  0.5769160000000  0.5240290000000  0.7037260000000 1.0
C      1  0.5009190000000  0.5805600000000  0.7045170000000 1.0
C      1  0.4235410000000  0.5257850000000  0.7055580000000 1.0
C      1  0.4520280000000  0.4353630000000  0.7049540000000 1.0
C      1  0.5467810000000  0.4342250000000  0.2958080000000 1.0
C      1  0.5769160000000  0.5240290000000  0.2962740000000 1.0
C      1  0.5009200000000  0.5805600000000  0.2954830000000 1.0
C      1  0.4235420000000  0.5257850000000  0.2944420000000 1.0
C      1  0.4520280000000  0.4353630000000  0.2950450000000 1.0
C      1  0.4180910000000  0.5276100000000  0.4469530000000 1.0
C      1  0.4486620000000  0.4304010000000  0.4477020000000 1.0
C      1  0.5500200000000  0.4301670000000  0.4486280000000 1.0
C      1  0.5820520000000  0.5256060000000  0.4491270000000 1.0
C      1  0.5015120000000  0.5862770000000  0.4482430000000 1.0
C      1  0.4180880000000  0.5276110000000  0.5530450000000 1.0
C      1  0.4486620000000  0.4304000000000  0.5522960000000 1.0
C      1  0.5500200000000  0.4301670000000  0.5513710000000 1.0
C      1  0.5820530000000  0.5256060000000  0.5508720000000 1.0
C      1  0.5015130000000  0.5862790000000  0.5517540000000 1.0
C      1  0.6892250000000  0.3866120000000  0.6168650000000 1.0
C      1  0.6661210000000  0.6447280000000  0.6165190000000 1.0
C      1  0.4136480000000  0.7026480000000  0.6170640000000 1.0
C      1  0.2801880000000  0.4805460000000  0.6178210000000 1.0
C      1  0.4506470000000  0.2850200000000  0.6173500000000 1.0
C      1  0.6892250000000  0.3866120000000  0.3831350000000 1.0
C      1  0.6661210000000  0.6447280000000  0.3834810000000 1.0
C      1  0.4136490000000  0.7026480000000  0.3829370000000 1.0
C      1  0.2801890000000  0.4805460000000  0.3821800000000 1.0
C      1  0.4506470000000  0.2850200000000  0.3826500000000 1.0
C      1  0.4969570000000  0.2438970000000  0.5472140000000 1.0
C      1  0.7432570000000  0.4179160000000  0.5471900000000 1.0
C      1  0.6528510000000  0.7060500000000  0.5471960000000 1.0
C      1  0.3516550000000  0.7081550000000  0.5472310000000 1.0
C      1  0.2561440000000  0.4239600000000  0.5472410000000 1.0
C      1  0.4969570000000  0.2438970000000  0.4527860000000 1.0
C      1  0.7432570000000  0.4179160000000  0.4528100000000 1.0
C      1  0.6528510000000  0.7060500000000  0.4528050000000 1.0
C      1  0.3516550000000  0.7081550000000  0.4527690000000 1.0
C      1  0.2561440000000  0.4239600000000  0.4527600000000 1.0
C      1  0.6503760000000  0.5470230000000  0.6265170000000 1.0
C      1  0.5018550000000  0.6580170000000  0.6279430000000 1.0
C      1  0.3494980000000  0.5507200000000  0.6299440000000 1.0
C      1  0.4056900000000  0.3729550000000  0.6286460000000 1.0
C      1  0.5915230000000  0.3713030000000  0.6274320000000 1.0
C      1  0.6503750000000  0.5470230000000  0.3734830000000 1.0
C      1  0.5018550000000  0.6580160000000  0.3720580000000 1.0
C      1  0.3495010000000  0.5507190000000  0.3700600000000 1.0
C      1  0.4056900000000  0.3729550000000  0.3713540000000 1.0
C      1  0.5915230000000  0.3713040000000  0.3725680000000 1.0
END
