TITL C-1525613-7943-4811 -0.139060970324815 3375 -8907.44928948581 0 0 60 (C2) n - 1
REM
REM in /home/nfs/bkarasulu/CARBON/AIRSS/Generating-Clusters/ReaxFF-fromJPCA2015/Units_Real/Try2-Higher-symm/Only-C60
REM
REM
REM
REM
REM
REM ./C.cell (863b2abdce7293c0672fb3ba77bf323a)
REM AIRSS Version 0.9.1 bugfix July 2018 build 013d7b7c2542+ Fri, 06 Jul 2018 19:26:36 +0100
REM compiler GCC version 9.2.1 20190827 (Red Hat 9.2.1-1)
REM options -cpp -mtune=generic -march=x86-64 -g -O0 -fpre-include=/usr/include/finclude/math-vector-fortran.h
REM seed -1786507508 -1801620820 -1543204177 1806523371 -120969240 -1009020821 984699898 -945238887 439015152 -1140993560 -726761021 1321276257 -1065588936 -786534984 -384545437 1626777459 -209392082 627868307 301447803 -713585925 1849275400 -1426797818 1465978399 253272879 498550866 -1098448577 2034702590 1351273618 -1798543714 -831084980 -1748121178 1648689111 -234844223
REM
CELL 1.54180   15.00000   15.00000   15.00000   90.00000   90.00000   90.00000
LATT -1
SFAC C  
C      1  0.4341220000000  0.4770570000000  0.7336070000000 1.0
C      1  0.7238340000000  0.4876480000000  0.6200720000000 1.0
C      1  0.6770040000000  0.4887650000000  0.3227050000000 1.0
C      1  0.3432570000000  0.5114450000000  0.2869300000000 1.0
C      1  0.2765050000000  0.4859370000000  0.5423970000000 1.0
C      1  0.4341220000000  0.5229430000000  0.2663920000000 1.0
C      1  0.7238340000000  0.5123530000000  0.3799280000000 1.0
C      1  0.6770040000000  0.5112360000000  0.6772960000000 1.0
C      1  0.3432570000000  0.4885540000000  0.7130700000000 1.0
C      1  0.2765050000000  0.5140630000000  0.4576030000000 1.0
C      1  0.3007590000000  0.6362110000000  0.3984370000000 1.0
C      1  0.3449950000000  0.6580740000000  0.6638320000000 1.0
C      1  0.5967250000000  0.6215760000000  0.7050600000000 1.0
C      1  0.7282020000000  0.6177510000000  0.4722120000000 1.0
C      1  0.5314360000000  0.6259420000000  0.2805290000000 1.0
C      1  0.3007590000000  0.3637890000000  0.6015630000000 1.0
C      1  0.3449940000000  0.3419250000000  0.3361670000000 1.0
C      1  0.5967260000000  0.3784230000000  0.2949410000000 1.0
C      1  0.7282030000000  0.3822480000000  0.5277900000000 1.0
C      1  0.5314360000000  0.3740580000000  0.7194720000000 1.0
C      1  0.6635180000000  0.3140880000000  0.5275540000000 1.0
C      1  0.5804830000000  0.3082720000000  0.3559990000000 1.0
C      1  0.3976880000000  0.2835340000000  0.3875020000000 1.0
C      1  0.3581520000000  0.2962380000000  0.5696570000000 1.0
C      1  0.5262890000000  0.3037610000000  0.6564990000000 1.0
C      1  0.6635170000000  0.6859120000000  0.4724450000000 1.0
C      1  0.5804840000000  0.6917250000000  0.6439990000000 1.0
C      1  0.3976890000000  0.7164650000000  0.6124970000000 1.0
C      1  0.3581510000000  0.7037610000000  0.4303440000000 1.0
C      1  0.5262890000000  0.6962380000000  0.3435020000000 1.0
C      1  0.4819070000000  0.6720070000000  0.6421230000000 1.0
C      1  0.6291320000000  0.6592730000000  0.5628650000000 1.0
C      1  0.5995740000000  0.6591650000000  0.3992710000000 1.0
C      1  0.4349820000000  0.6687220000000  0.3758000000000 1.0
C      1  0.3653980000000  0.6788730000000  0.5275130000000 1.0
C      1  0.4819050000000  0.3279940000000  0.3578770000000 1.0
C      1  0.6291340000000  0.3407270000000  0.4371320000000 1.0
C      1  0.5995760000000  0.3408340000000  0.6007300000000 1.0
C      1  0.4349810000000  0.3312780000000  0.6242010000000 1.0
C      1  0.3653960000000  0.3211270000000  0.4724870000000 1.0
C      1  0.7693510000000  0.4646710000000  0.5399240000000 1.0
C      1  0.6062010000000  0.4656900000000  0.2645750000000 1.0
C      1  0.3400280000000  0.4228010000000  0.3072000000000 1.0
C      1  0.2847980000000  0.4507110000000  0.6303290000000 1.0
C      1  0.5246930000000  0.4634220000000  0.7518940000000 1.0
C      1  0.7693510000000  0.5353290000000  0.4600770000000 1.0
C      1  0.6062010000000  0.5343100000000  0.7354260000000 1.0
C      1  0.3400270000000  0.5771990000000  0.6927990000000 1.0
C      1  0.2847980000000  0.5492890000000  0.3696710000000 1.0
C      1  0.5246940000000  0.5365780000000  0.2481060000000 1.0
C      1  0.4571320000000  0.5898410000000  0.4299240000000 1.0
C      1  0.4153520000000  0.5948530000000  0.5181880000000 1.0
C      1  0.4846700000000  0.5911560000000  0.5856550000000 1.0
C      1  0.5700710000000  0.5852080000000  0.5391010000000 1.0
C      1  0.5537400000000  0.5846580000000  0.4423840000000 1.0
C      1  0.4571310000000  0.4101600000000  0.5700770000000 1.0
C      1  0.4153510000000  0.4051480000000  0.4818120000000 1.0
C      1  0.4846690000000  0.4088440000000  0.4143440000000 1.0
C      1  0.5700730000000  0.4147940000000  0.4608970000000 1.0
C      1  0.5537420000000  0.4153430000000  0.5576180000000 1.0
END
