TITL C-1525613-7943-3456 0.185517878824895 3375 -9017.55306546579 0 0 60 (Ci) n - 1
REM
REM in /home/nfs/bkarasulu/CARBON/AIRSS/Generating-Clusters/ReaxFF-fromJPCA2015/Units_Real/Try2-Higher-symm/Only-C60
REM
REM
REM
REM
REM
REM ./C.cell (863b2abdce7293c0672fb3ba77bf323a)
REM AIRSS Version 0.9.1 bugfix July 2018 build 013d7b7c2542+ Fri, 06 Jul 2018 19:26:36 +0100
REM compiler GCC version 9.2.1 20190827 (Red Hat 9.2.1-1)
REM options -cpp -mtune=generic -march=x86-64 -g -O0 -fpre-include=/usr/include/finclude/math-vector-fortran.h
REM seed 45452837 849438244 1333905629 -320617392 1084308983 -820321999 1172916431 -481213788 -1900319780 728041578 987926493 -568284536 1673342857 -833001331 1602497317 2024928352 1323580968 1059770730 1411032123 -1752008235 -151782383 -182572767 -1292820943 1035363545 1847352433 1864106267 -2125378344 -1218720900 881994073 1424005681 -848536286 -1043984433 1509709041
REM
CELL 1.54180   15.00000   15.00000   15.00000   90.00000   90.00000   90.00000
LATT -1
SFAC C  
C      1  0.4134330000000  0.2225650000000  0.4834390000000 1.0
C      1  0.4207300000000  0.7777710000000  0.5380050000000 1.0
C      1  0.4562210000000  0.2278060000000  0.5771090000000 1.0
C      1  0.5119200000000  0.7784610000000  0.5873930000000 1.0
C      1  0.5586760000000  0.2250750000000  0.5622310000000 1.0
C      1  0.5865530000000  0.7774190000000  0.5165430000000 1.0
C      1  0.5792770000000  0.2222420000000  0.4620040000000 1.0
C      1  0.5437650000000  0.7721750000000  0.4228880000000 1.0
C      1  0.4880750000000  0.2215400000000  0.4126070000000 1.0
C      1  0.4413170000000  0.7749270000000  0.4377770000000 1.0
C      1  0.3912930000000  0.7041690000000  0.4168370000000 1.0
C      1  0.3599360000000  0.2937280000000  0.4938720000000 1.0
C      1  0.3854790000000  0.7057340000000  0.5781620000000 1.0
C      1  0.4503330000000  0.2981720000000  0.6322130000000 1.0
C      1  0.5384530000000  0.7067930000000  0.6334070000000 1.0
C      1  0.6086990000000  0.2958430000000  0.5831770000000 1.0
C      1  0.6400880000000  0.7062850000000  0.5061350000000 1.0
C      1  0.6145030000000  0.2942650000000  0.4218370000000 1.0
C      1  0.5497050000000  0.7018150000000  0.3677780000000 1.0
C      1  0.4615450000000  0.2932060000000  0.3665950000000 1.0
C      1  0.5506240000000  0.6336050000000  0.3131320000000 1.0
C      1  0.4349360000000  0.3649670000000  0.3205450000000 1.0
C      1  0.3417250000000  0.6331500000000  0.3951720000000 1.0
C      1  0.3071240000000  0.3640030000000  0.5043580000000 1.0
C      1  0.3506010000000  0.6345230000000  0.6178090000000 1.0
C      1  0.4493790000000  0.3664040000000  0.6868470000000 1.0
C      1  0.5650640000000  0.6350380000000  0.6794520000000 1.0
C      1  0.6582770000000  0.3668520000000  0.6048310000000 1.0
C      1  0.6928630000000  0.6359850000000  0.4956360000000 1.0
C      1  0.6494260000000  0.3654730000000  0.3822120000000 1.0
C      1  0.7574080000000  0.4995110000000  0.5698630000000 1.0
C      1  0.7470750000000  0.5031100000000  0.4054140000000 1.0
C      1  0.6424220000000  0.4982700000000  0.2791610000000 1.0
C      1  0.4835350000000  0.5016720000000  0.2350640000000 1.0
C      1  0.3327630000000  0.4979210000000  0.2918740000000 1.0
C      1  0.2425910000000  0.5004880000000  0.4301380000000 1.0
C      1  0.2529310000000  0.4968900000000  0.5945910000000 1.0
C      1  0.3575300000000  0.5017280000000  0.7208790000000 1.0
C      1  0.5164680000000  0.4983320000000  0.7649380000000 1.0
C      1  0.6672360000000  0.5020830000000  0.7081260000000 1.0
C      1  0.6555170000000  0.5884790000000  0.6627870000000 1.0
C      1  0.7205460000000  0.4137350000000  0.5380540000000 1.0
C      1  0.6994170000000  0.5890970000000  0.4041620000000 1.0
C      1  0.6044890000000  0.4107130000000  0.3007640000000 1.0
C      1  0.4642950000000  0.5890580000000  0.2744580000000 1.0
C      1  0.3444840000000  0.4115200000000  0.3372130000000 1.0
C      1  0.2794560000000  0.5862670000000  0.4619450000000 1.0
C      1  0.3005870000000  0.4108990000000  0.5958370000000 1.0
C      1  0.3955250000000  0.5892940000000  0.6992240000000 1.0
C      1  0.5356990000000  0.4109460000000  0.7255340000000 1.0
C      1  0.4901560000000  0.5859050000000  0.7248020000000 1.0
C      1  0.6263800000000  0.4134370000000  0.6887250000000 1.0
C      1  0.7114080000000  0.5866710000000  0.5820410000000 1.0
C      1  0.7151270000000  0.4153820000000  0.4403380000000 1.0
C      1  0.6376010000000  0.5855400000000  0.3272910000000 1.0
C      1  0.5098440000000  0.4140940000000  0.2751960000000 1.0
C      1  0.3736190000000  0.5865700000000  0.3112730000000 1.0
C      1  0.2885920000000  0.4133260000000  0.4179580000000 1.0
C      1  0.2848700000000  0.5846200000000  0.5596600000000 1.0
C      1  0.3624050000000  0.4144540000000  0.6726860000000 1.0
END
