TITL C-1525613-7943-6799 0.0239333298772714 3375 -8938.4278782111 0 0 60 (C1) n - 1
REM
REM in /home/nfs/bkarasulu/CARBON/AIRSS/Generating-Clusters/ReaxFF-fromJPCA2015/Units_Real/Try2-Higher-symm/Only-C60
REM
REM
REM
REM
REM
REM ./C.cell (863b2abdce7293c0672fb3ba77bf323a)
REM AIRSS Version 0.9.1 bugfix July 2018 build 013d7b7c2542+ Fri, 06 Jul 2018 19:26:36 +0100
REM compiler GCC version 9.2.1 20190827 (Red Hat 9.2.1-1)
REM options -cpp -mtune=generic -march=x86-64 -g -O0 -fpre-include=/usr/include/finclude/math-vector-fortran.h
REM seed -373185155 -1829589748 -162948869 677158196 -1744593021 1245225341 335803389 1506844325 1747437844 1375584629 406981551 -184762076 1720210928 -1076482188 -109803796 -148634445 -1479910459 -163156782 958614823 1565002955 -842404906 -521857669 1673291817 -815152774 -1929726995 1411683544 1798130647 -1453774939 -936837943 1938183174 2100505179 -260522697 -98625065
REM
CELL 1.54180   15.00000   15.00000   15.00000   90.00000   90.00000   90.00000
LATT -1
SFAC C  
C      1  0.5567620000000  0.2624340000000  0.5606840000000 1.0
C      1  0.4572350000000  0.2670670000000  0.5778260000000 1.0
C      1  0.4126300000000  0.2672360000000  0.4860700000000 1.0
C      1  0.4854880000000  0.2645320000000  0.4178180000000 1.0
C      1  0.5716170000000  0.2627210000000  0.4626310000000 1.0
C      1  0.5582800000000  0.7360660000000  0.5620760000000 1.0
C      1  0.4579680000000  0.7331590000000  0.5782120000000 1.0
C      1  0.4151700000000  0.7331610000000  0.4861680000000 1.0
C      1  0.4865650000000  0.7361800000000  0.4174620000000 1.0
C      1  0.5721680000000  0.7362400000000  0.4636140000000 1.0
C      1  0.3478110000000  0.3318540000000  0.4824680000000 1.0
C      1  0.4895070000000  0.3391770000000  0.3554360000000 1.0
C      1  0.6345470000000  0.3371470000000  0.4484930000000 1.0
C      1  0.6111930000000  0.3284970000000  0.6008210000000 1.0
C      1  0.4376090000000  0.3317500000000  0.6382420000000 1.0
C      1  0.3488990000000  0.6670630000000  0.4789030000000 1.0
C      1  0.4899480000000  0.6617680000000  0.3542160000000 1.0
C      1  0.6346410000000  0.6618710000000  0.4495200000000 1.0
C      1  0.6120920000000  0.6712920000000  0.6015040000000 1.0
C      1  0.4371230000000  0.6686470000000  0.6383510000000 1.0
C      1  0.5776390000000  0.5860870000000  0.4823530000000 1.0
C      1  0.5444690000000  0.5493610000000  0.5671360000000 1.0
C      1  0.4472050000000  0.5493310000000  0.5606690000000 1.0
C      1  0.4233850000000  0.5536710000000  0.4663970000000 1.0
C      1  0.5036160000000  0.5872480000000  0.4192470000000 1.0
C      1  0.5778370000000  0.4117950000000  0.4821730000000 1.0
C      1  0.5481490000000  0.4477710000000  0.5701400000000 1.0
C      1  0.4489040000000  0.4525430000000  0.5619520000000 1.0
C      1  0.4264240000000  0.4541280000000  0.4663840000000 1.0
C      1  0.5041200000000  0.4148550000000  0.4196500000000 1.0
C      1  0.2918700000000  0.4023280000000  0.4874800000000 1.0
C      1  0.4450790000000  0.3996650000000  0.2929390000000 1.0
C      1  0.6753930000000  0.3977360000000  0.3825380000000 1.0
C      1  0.6629050000000  0.4010790000000  0.6296060000000 1.0
C      1  0.4248310000000  0.4014420000000  0.6940220000000 1.0
C      1  0.2914440000000  0.5941430000000  0.4875460000000 1.0
C      1  0.4442030000000  0.6004300000000  0.2927950000000 1.0
C      1  0.6753610000000  0.6023090000000  0.3828440000000 1.0
C      1  0.6605980000000  0.5986640000000  0.6271890000000 1.0
C      1  0.4241040000000  0.5983370000000  0.6937630000000 1.0
C      1  0.5097960000000  0.5483230000000  0.7226120000000 1.0
C      1  0.2878240000000  0.5469830000000  0.5791360000000 1.0
C      1  0.3639520000000  0.5480350000000  0.3228190000000 1.0
C      1  0.6201530000000  0.5480020000000  0.3185840000000 1.0
C      1  0.7147390000000  0.5473300000000  0.5542760000000 1.0
C      1  0.5101450000000  0.4527660000000  0.7229500000000 1.0
C      1  0.2888680000000  0.4515930000000  0.5791140000000 1.0
C      1  0.3641650000000  0.4515480000000  0.3227880000000 1.0
C      1  0.6203570000000  0.4521790000000  0.3183430000000 1.0
C      1  0.7151480000000  0.4530780000000  0.5539730000000 1.0
C      1  0.3402820000000  0.4511270000000  0.6659160000000 1.0
C      1  0.2956760000000  0.4511020000000  0.3981080000000 1.0
C      1  0.5278160000000  0.4515030000000  0.2725670000000 1.0
C      1  0.7234840000000  0.4508310000000  0.4523940000000 1.0
C      1  0.6085180000000  0.4524180000000  0.7006130000000 1.0
C      1  0.3401250000000  0.5479150000000  0.6658350000000 1.0
C      1  0.2943930000000  0.5472130000000  0.3980470000000 1.0
C      1  0.5275240000000  0.5488520000000  0.2728570000000 1.0
C      1  0.7238170000000  0.5494100000000  0.4521770000000 1.0
C      1  0.6084300000000  0.5490050000000  0.6995540000000 1.0
END
