TITL C-1525613-7943-3776 -0.0999819921668611 3375 -9247.43935146033 0 0 60 (C5v) n - 1
REM
REM in /home/nfs/bkarasulu/CARBON/AIRSS/Generating-Clusters/ReaxFF-fromJPCA2015/Units_Real/Try2-Higher-symm/Only-C60
REM
REM
REM
REM
REM
REM ./C.cell (863b2abdce7293c0672fb3ba77bf323a)
REM AIRSS Version 0.9.1 bugfix July 2018 build 013d7b7c2542+ Fri, 06 Jul 2018 19:26:36 +0100
REM compiler GCC version 9.2.1 20190827 (Red Hat 9.2.1-1)
REM options -cpp -mtune=generic -march=x86-64 -g -O0 -fpre-include=/usr/include/finclude/math-vector-fortran.h
REM seed -481501543 -1732037258 236353114 -1624525334 -642342206 -2027471329 -897337814 -1612483726 1708899313 1991971350 157192218 -2070400018 659002859 1999217273 1385677775 1210001814 -1277310029 -1747583893 -1083934800 -70484369 628646799 1469771206 116382151 -1283321496 -1997974323 716530590 -1976939319 -1911475136 -975265233 -679551734 2016107081 -1825032195 1114187906
REM
CELL 1.54180   15.00000   15.00000   15.00000   90.00000   90.00000   90.00000
LATT -1
SFAC C  
C      1  0.3804950000000  0.7097070000000  0.6150050000000 1.0
C      1  0.2627240000000  0.4505410000000  0.6170730000000 1.0
C      1  0.4738610000000  0.2586260000000  0.6175980000000 1.0
C      1  0.7209930000000  0.4005110000000  0.6164760000000 1.0
C      1  0.6626520000000  0.6788560000000  0.6151290000000 1.0
C      1  0.3806530000000  0.2904960000000  0.6146840000000 1.0
C      1  0.2630320000000  0.5491160000000  0.6165310000000 1.0
C      1  0.4738610000000  0.7412920000000  0.6173150000000 1.0
C      1  0.7211400000000  0.5994500000000  0.6164340000000 1.0
C      1  0.6626050000000  0.3211310000000  0.6151500000000 1.0
C      1  0.4083190000000  0.6272120000000  0.3368420000000 1.0
C      1  0.3508540000000  0.4522030000000  0.3374120000000 1.0
C      1  0.4993060000000  0.3436380000000  0.3378300000000 1.0
C      1  0.6487660000000  0.4510600000000  0.3374030000000 1.0
C      1  0.5926050000000  0.6264240000000  0.3370940000000 1.0
C      1  0.4082530000000  0.3727820000000  0.3367580000000 1.0
C      1  0.3508210000000  0.5478110000000  0.3372330000000 1.0
C      1  0.4993520000000  0.6564060000000  0.3377220000000 1.0
C      1  0.6487210000000  0.5490180000000  0.3374330000000 1.0
C      1  0.5926470000000  0.3736080000000  0.3371710000000 1.0
C      1  0.3463850000000  0.4497910000000  0.6692390000000 1.0
C      1  0.5001650000000  0.3387020000000  0.6689990000000 1.0
C      1  0.6522740000000  0.4511280000000  0.6660300000000 1.0
C      1  0.5922750000000  0.6290350000000  0.6629200000000 1.0
C      1  0.4057710000000  0.6279890000000  0.6637580000000 1.0
C      1  0.3469810000000  0.5500830000000  0.6680690000000 1.0
C      1  0.5002960000000  0.6614110000000  0.6688510000000 1.0
C      1  0.6523610000000  0.5487050000000  0.6658400000000 1.0
C      1  0.5921780000000  0.3709290000000  0.6628830000000 1.0
C      1  0.4060350000000  0.3726860000000  0.6624560000000 1.0
C      1  0.5038680000000  0.2374290000000  0.4617010000000 1.0
C      1  0.7513670000000  0.4222550000000  0.4608630000000 1.0
C      1  0.6519370000000  0.7155950000000  0.4602200000000 1.0
C      1  0.3421130000000  0.7108950000000  0.4600410000000 1.0
C      1  0.2514040000000  0.4152800000000  0.4612850000000 1.0
C      1  0.5038890000000  0.7626340000000  0.4615030000000 1.0
C      1  0.7513130000000  0.5776540000000  0.4608930000000 1.0
C      1  0.6521860000000  0.2841810000000  0.4600670000000 1.0
C      1  0.3419720000000  0.2888920000000  0.4597540000000 1.0
C      1  0.2513110000000  0.5847880000000  0.4609750000000 1.0
C      1  0.4735190000000  0.2532020000000  0.3768090000000 1.0
C      1  0.7269520000000  0.3984130000000  0.3761200000000 1.0
C      1  0.6668560000000  0.6846060000000  0.3756410000000 1.0
C      1  0.3760230000000  0.7158130000000  0.3754380000000 1.0
C      1  0.2568300000000  0.4488810000000  0.3765260000000 1.0
C      1  0.4735700000000  0.7469310000000  0.3766340000000 1.0
C      1  0.7268770000000  0.6015920000000  0.3762280000000 1.0
C      1  0.6670060000000  0.3154140000000  0.3755300000000 1.0
C      1  0.3759820000000  0.2841410000000  0.3752940000000 1.0
C      1  0.2567860000000  0.5512020000000  0.3762180000000 1.0
C      1  0.3103510000000  0.7027620000000  0.5431640000000 1.0
C      1  0.2490690000000  0.3824020000000  0.5442500000000 1.0
C      1  0.5344310000000  0.2249040000000  0.5447660000000 1.0
C      1  0.7724100000000  0.4474550000000  0.5440760000000 1.0
C      1  0.6345720000000  0.7434530000000  0.5434990000000 1.0
C      1  0.3103480000000  0.2971500000000  0.5430490000000 1.0
C      1  0.2490240000000  0.6174950000000  0.5439830000000 1.0
C      1  0.5344530000000  0.7751500000000  0.5445130000000 1.0
C      1  0.7725900000000  0.5525350000000  0.5441150000000 1.0
C      1  0.6346080000000  0.2565490000000  0.5435050000000 1.0
END
