TITL C-1525613-7943-2167 0.00498155742648975 3375 -8773.29600186731 0 0 60 (Cs) n - 1
REM
REM in /home/nfs/bkarasulu/CARBON/AIRSS/Generating-Clusters/ReaxFF-fromJPCA2015/Units_Real/Try2-Higher-symm/Only-C60
REM
REM
REM
REM
REM
REM ./C.cell (863b2abdce7293c0672fb3ba77bf323a)
REM AIRSS Version 0.9.1 bugfix July 2018 build 013d7b7c2542+ Fri, 06 Jul 2018 19:26:36 +0100
REM compiler GCC version 9.2.1 20190827 (Red Hat 9.2.1-1)
REM options -cpp -mtune=generic -march=x86-64 -g -O0 -fpre-include=/usr/include/finclude/math-vector-fortran.h
REM seed 631835047 -863815429 1806802438 -726317024 -245590286 -979878864 -1000566493 -2079065271 -1230618201 1675061930 -646484083 1880301463 -120388775 775008388 1599419496 -1719083375 87186217 -2139000446 -849349476 -2127355201 -705824247 1784623982 -1950180407 -1259148698 699453496 -2027560172 -83266618 420180055 -499890342 1161604637 2110118949 1252456261 -468221540
REM
CELL 1.54180   15.00000   15.00000   15.00000   90.00000   90.00000   90.00000
LATT -1
SFAC C  
C      1  0.3720950000000  0.5935670000000  0.3058750000000 1.0
C      1  0.5495470000000  0.6506760000000  0.3055770000000 1.0
C      1  0.6587390000000  0.4994070000000  0.3050970000000 1.0
C      1  0.5484840000000  0.3488850000000  0.3050840000000 1.0
C      1  0.3714930000000  0.4072770000000  0.3056840000000 1.0
C      1  0.6279050000000  0.5935670000000  0.3058720000000 1.0
C      1  0.4504520000000  0.6506770000000  0.3055750000000 1.0
C      1  0.3412590000000  0.4994080000000  0.3050960000000 1.0
C      1  0.4515170000000  0.3488850000000  0.3050780000000 1.0
C      1  0.6285050000000  0.4072750000000  0.3056820000000 1.0
C      1  0.4075800000000  0.2880590000000  0.3703760000000 1.0
C      1  0.2700940000000  0.5221890000000  0.3706940000000 1.0
C      1  0.4504710000000  0.7252720000000  0.3712640000000 1.0
C      1  0.6990730000000  0.6163110000000  0.3714210000000 1.0
C      1  0.6723780000000  0.3464350000000  0.3709400000000 1.0
C      1  0.5924210000000  0.2880640000000  0.3703880000000 1.0
C      1  0.7299060000000  0.5221930000000  0.3706900000000 1.0
C      1  0.5495260000000  0.7252690000000  0.3712680000000 1.0
C      1  0.3009260000000  0.6163080000000  0.3714240000000 1.0
C      1  0.3276290000000  0.3464350000000  0.3709400000000 1.0
C      1  0.4527390000000  0.2587680000000  0.4513250000000 1.0
C      1  0.2563680000000  0.4699900000000  0.4515680000000 1.0
C      1  0.3967090000000  0.7221520000000  0.4522650000000 1.0
C      1  0.6797060000000  0.6663700000000  0.4525930000000 1.0
C      1  0.7140910000000  0.3800580000000  0.4521700000000 1.0
C      1  0.5472750000000  0.2587880000000  0.4513550000000 1.0
C      1  0.7436340000000  0.4699930000000  0.4515660000000 1.0
C      1  0.6032860000000  0.7221470000000  0.4522710000000 1.0
C      1  0.3202930000000  0.6663660000000  0.4525970000000 1.0
C      1  0.2859230000000  0.3800500000000  0.4521860000000 1.0
C      1  0.5512450000000  0.6548590000000  0.6134510000000 1.0
C      1  0.6595280000000  0.5003080000000  0.6096210000000 1.0
C      1  0.5504490000000  0.3456940000000  0.6120400000000 1.0
C      1  0.3654410000000  0.4030590000000  0.6183340000000 1.0
C      1  0.3668490000000  0.5983570000000  0.6174480000000 1.0
C      1  0.4487920000000  0.6548420000000  0.6133910000000 1.0
C      1  0.3404700000000  0.5003480000000  0.6096010000000 1.0
C      1  0.4497190000000  0.3456700000000  0.6118320000000 1.0
C      1  0.6347230000000  0.4032010000000  0.6180160000000 1.0
C      1  0.6331530000000  0.5982940000000  0.6173990000000 1.0
C      1  0.3994340000000  0.2726240000000  0.5427440000000 1.0
C      1  0.2537470000000  0.5249460000000  0.5429330000000 1.0
C      1  0.4472880000000  0.7438100000000  0.5437080000000 1.0
C      1  0.7169880000000  0.6261290000000  0.5441280000000 1.0
C      1  0.6875640000000  0.3317730000000  0.5434430000000 1.0
C      1  0.6005250000000  0.2726750000000  0.5427990000000 1.0
C      1  0.7462700000000  0.5249520000000  0.5429320000000 1.0
C      1  0.5527150000000  0.7438030000000  0.5437190000000 1.0
C      1  0.2830000000000  0.6261330000000  0.5441240000000 1.0
C      1  0.3124120000000  0.3317170000000  0.5434130000000 1.0
C      1  0.3445240000000  0.5007200000000  0.7096480000000 1.0
C      1  0.4519470000000  0.6493070000000  0.7132630000000 1.0
C      1  0.6260610000000  0.5925220000000  0.7175010000000 1.0
C      1  0.6255690000000  0.4086610000000  0.7180630000000 1.0
C      1  0.4516720000000  0.3518170000000  0.7115330000000 1.0
C      1  0.6554140000000  0.5006660000000  0.7096560000000 1.0
C      1  0.5480470000000  0.6493230000000  0.7133770000000 1.0
C      1  0.3739390000000  0.5925390000000  0.7175580000000 1.0
C      1  0.3743510000000  0.4087220000000  0.7183390000000 1.0
C      1  0.5481390000000  0.3516840000000  0.7120660000000 1.0
END
