TITL C-1525613-7943-6138 0.387550281626372 3375 -8516.15402485525 0 0 60 (Ci) n - 1
REM
REM in /home/nfs/bkarasulu/CARBON/AIRSS/Generating-Clusters/ReaxFF-fromJPCA2015/Units_Real/Try2-Higher-symm/Only-C60
REM
REM
REM
REM
REM
REM ./C.cell (863b2abdce7293c0672fb3ba77bf323a)
REM AIRSS Version 0.9.1 bugfix July 2018 build 013d7b7c2542+ Fri, 06 Jul 2018 19:26:36 +0100
REM compiler GCC version 9.2.1 20190827 (Red Hat 9.2.1-1)
REM options -cpp -mtune=generic -march=x86-64 -g -O0 -fpre-include=/usr/include/finclude/math-vector-fortran.h
REM seed 312272180 1548837897 825596661 1748305588 -794203870 1177961720 -988634251 -840103230 -1720401168 -512275617 -564795646 -510137636 -141896029 1650659530 20928163 180022000 -2008140682 -1300686698 171274189 -1376578005 627578363 -907413027 967534622 736099307 -135722174 1445997125 -360560381 -1284428614 319010726 -388965704 1100235647 215466124 -454612715
REM
CELL 1.54180   15.00000   15.00000   15.00000   90.00000   90.00000   90.00000
LATT -1
SFAC C  
C      1  0.5265890000000  0.5799460000000  0.4194570000000 1.0
C      1  0.4731240000000  0.4203310000000  0.4210070000000 1.0
C      1  0.4323290000000  0.5800820000000  0.4492820000000 1.0
C      1  0.4142170000000  0.4203360000000  0.5007690000000 1.0
C      1  0.4325860000000  0.5788930000000  0.5480440000000 1.0
C      1  0.4734110000000  0.4200530000000  0.5805420000000 1.0
C      1  0.5268760000000  0.5796690000000  0.5789930000000 1.0
C      1  0.5676700000000  0.4199180000000  0.5507180000000 1.0
C      1  0.5857820000000  0.5796650000000  0.4992320000000 1.0
C      1  0.5674140000000  0.4211070000000  0.4519560000000 1.0
C      1  0.5825680000000  0.7325030000000  0.5073000000000 1.0
C      1  0.5727930000000  0.2685140000000  0.4577480000000 1.0
C      1  0.5315610000000  0.7325920000000  0.4236380000000 1.0
C      1  0.4821750000000  0.2681130000000  0.4191000000000 1.0
C      1  0.4360080000000  0.7318300000000  0.4447180000000 1.0
C      1  0.4174320000000  0.2674960000000  0.4927000000000 1.0
C      1  0.4272080000000  0.7314860000000  0.5422520000000 1.0
C      1  0.4684390000000  0.2674080000000  0.5763620000000 1.0
C      1  0.5178250000000  0.7318870000000  0.5809000000000 1.0
C      1  0.5639920000000  0.2681700000000  0.5552820000000 1.0
C      1  0.2881730000000  0.4171950000000  0.6354030000000 1.0
C      1  0.4339910000000  0.5700990000000  0.7483160000000 1.0
C      1  0.5615680000000  0.4159370000000  0.7421960000000 1.0
C      1  0.7128140000000  0.5762320000000  0.6459700000000 1.0
C      1  0.7593900000000  0.4312870000000  0.4924090000000 1.0
C      1  0.7118270000000  0.5828040000000  0.3645960000000 1.0
C      1  0.5660100000000  0.4299000000000  0.2516830000000 1.0
C      1  0.4384320000000  0.5840630000000  0.2578050000000 1.0
C      1  0.2871860000000  0.4237680000000  0.3540290000000 1.0
C      1  0.2406100000000  0.5687130000000  0.5075910000000 1.0
C      1  0.6261340000000  0.6063360000000  0.3224130000000 1.0
C      1  0.4752510000000  0.3976030000000  0.2799920000000 1.0
C      1  0.3692200000000  0.6058900000000  0.3252750000000 1.0
C      1  0.2799570000000  0.3898600000000  0.4508990000000 1.0
C      1  0.2987770000000  0.6001380000000  0.5872090000000 1.0
C      1  0.3738670000000  0.3936650000000  0.6775870000000 1.0
C      1  0.5247470000000  0.6023960000000  0.7200080000000 1.0
C      1  0.6307800000000  0.3941100000000  0.6747250000000 1.0
C      1  0.7200450000000  0.6101400000000  0.5491010000000 1.0
C      1  0.7012220000000  0.3998620000000  0.4127910000000 1.0
C      1  0.6198470000000  0.4977010000000  0.2979130000000 1.0
C      1  0.4212460000000  0.4817940000000  0.2708190000000 1.0
C      1  0.3422650000000  0.4969880000000  0.3190640000000 1.0
C      1  0.2556360000000  0.4783430000000  0.4779980000000 1.0
C      1  0.3097460000000  0.5206820000000  0.6424140000000 1.0
C      1  0.3801550000000  0.5023000000000  0.7020880000000 1.0
C      1  0.5787540000000  0.5182060000000  0.7291800000000 1.0
C      1  0.6577350000000  0.5030120000000  0.6809370000000 1.0
C      1  0.7443640000000  0.5216580000000  0.5220020000000 1.0
C      1  0.6902540000000  0.4793190000000  0.3575860000000 1.0
C      1  0.4482360000000  0.3434640000000  0.6360540000000 1.0
C      1  0.5411920000000  0.6557590000000  0.6385390000000 1.0
C      1  0.6154240000000  0.3445360000000  0.5911130000000 1.0
C      1  0.6458930000000  0.6567890000000  0.5034930000000 1.0
C      1  0.6206410000000  0.3459700000000  0.4184830000000 1.0
C      1  0.5517640000000  0.6565360000000  0.3639460000000 1.0
C      1  0.4588080000000  0.3442420000000  0.3614610000000 1.0
C      1  0.3845760000000  0.6554640000000  0.4088870000000 1.0
C      1  0.3541070000000  0.3432110000000  0.4965070000000 1.0
C      1  0.3793590000000  0.6540300000000  0.5815160000000 1.0
END
