TITL C-1525613-7943-3115 0.48208051433601 3375 -8894.82800213095 0 0 60 (C2) n - 1
REM
REM in /home/nfs/bkarasulu/CARBON/AIRSS/Generating-Clusters/ReaxFF-fromJPCA2015/Units_Real/Try2-Higher-symm/Only-C60
REM
REM
REM
REM
REM
REM ./C.cell (863b2abdce7293c0672fb3ba77bf323a)
REM AIRSS Version 0.9.1 bugfix July 2018 build 013d7b7c2542+ Fri, 06 Jul 2018 19:26:36 +0100
REM compiler GCC version 9.2.1 20190827 (Red Hat 9.2.1-1)
REM options -cpp -mtune=generic -march=x86-64 -g -O0 -fpre-include=/usr/include/finclude/math-vector-fortran.h
REM seed 590571129 -1101047066 1401425423 -864350720 -1302934463 2105518567 -861771594 -944617171 -1993511490 -316775646 885059746 1623537407 1911588595 524561019 356340452 347888838 1343606841 1971244530 50670486 1677188513 1214841007 -225248234 840172413 -530440827 167046043 -307514064 -260613568 675369815 -1081813092 1200853672 465908086 182426302 -1749294681
REM
CELL 1.54180   15.00000   15.00000   15.00000   90.00000   90.00000   90.00000
LATT -1
SFAC C  
C      1  0.3049440000000  0.5254820000000  0.3263110000000 1.0
C      1  0.2402220000000  0.5195190000000  0.4742090000000 1.0
C      1  0.2924230000000  0.5420230000000  0.6227740000000 1.0
C      1  0.3947860000000  0.5322880000000  0.7509430000000 1.0
C      1  0.5500000000000  0.5187760000000  0.7462720000000 1.0
C      1  0.6951590000000  0.5251950000000  0.6738980000000 1.0
C      1  0.7598980000000  0.5196390000000  0.5260030000000 1.0
C      1  0.7076270000000  0.5421200000000  0.3775500000000 1.0
C      1  0.6054130000000  0.5321320000000  0.2491450000000 1.0
C      1  0.4501980000000  0.5187440000000  0.2535560000000 1.0
C      1  0.6366860000000  0.4155310000000  0.3443990000000 1.0
C      1  0.5534430000000  0.3907780000000  0.3054400000000 1.0
C      1  0.3812480000000  0.3957470000000  0.3331620000000 1.0
C      1  0.3200860000000  0.3958920000000  0.4014550000000 1.0
C      1  0.3176740000000  0.3957210000000  0.5744740000000 1.0
C      1  0.3631630000000  0.4153270000000  0.6560250000000 1.0
C      1  0.4466290000000  0.3907620000000  0.6946980000000 1.0
C      1  0.6180280000000  0.3961930000000  0.6660340000000 1.0
C      1  0.6792980000000  0.3962140000000  0.5979470000000 1.0
C      1  0.6821920000000  0.3958770000000  0.4258830000000 1.0
C      1  0.6235000000000  0.6726850000000  0.3289950000000 1.0
C      1  0.5306450000000  0.6724220000000  0.2940600000000 1.0
C      1  0.4022700000000  0.6545020000000  0.3341990000000 1.0
C      1  0.3020790000000  0.6704850000000  0.4244700000000 1.0
C      1  0.2894360000000  0.6703670000000  0.5233570000000 1.0
C      1  0.3766180000000  0.6726370000000  0.6710660000000 1.0
C      1  0.4696560000000  0.6726390000000  0.7057710000000 1.0
C      1  0.5974550000000  0.6545820000000  0.6648390000000 1.0
C      1  0.6986130000000  0.6707880000000  0.5762530000000 1.0
C      1  0.7100350000000  0.6704720000000  0.4770730000000 1.0
C      1  0.3226860000000  0.6199980000000  0.3482720000000 1.0
C      1  0.2406360000000  0.6155040000000  0.4686820000000 1.0
C      1  0.3206640000000  0.6311400000000  0.6052430000000 1.0
C      1  0.4005420000000  0.6261500000000  0.7463150000000 1.0
C      1  0.5422210000000  0.6135440000000  0.7190400000000 1.0
C      1  0.6764730000000  0.6193690000000  0.6512470000000 1.0
C      1  0.7595410000000  0.6156390000000  0.5311910000000 1.0
C      1  0.6792350000000  0.6311220000000  0.3952710000000 1.0
C      1  0.5995790000000  0.6259750000000  0.2535440000000 1.0
C      1  0.4579400000000  0.6138210000000  0.2797340000000 1.0
C      1  0.6505370000000  0.3096520000000  0.5679980000000 1.0
C      1  0.6483470000000  0.3114420000000  0.4683050000000 1.0
C      1  0.5739050000000  0.2907530000000  0.4166190000000 1.0
C      1  0.5137780000000  0.3088220000000  0.3481820000000 1.0
C      1  0.4145310000000  0.3095060000000  0.3594670000000 1.0
C      1  0.3496540000000  0.3098940000000  0.4321180000000 1.0
C      1  0.3517440000000  0.3114920000000  0.5318140000000 1.0
C      1  0.4262230000000  0.2908560000000  0.5834580000000 1.0
C      1  0.4863470000000  0.3088180000000  0.6518840000000 1.0
C      1  0.5855940000000  0.3093440000000  0.6406020000000 1.0
C      1  0.7297410000000  0.4770390000000  0.4446750000000 1.0
C      1  0.6656820000000  0.4969640000000  0.3098260000000 1.0
C      1  0.5313940000000  0.4686620000000  0.2522020000000 1.0
C      1  0.3748250000000  0.4752660000000  0.2853580000000 1.0
C      1  0.2687340000000  0.4731470000000  0.3970130000000 1.0
C      1  0.2703140000000  0.4769580000000  0.5555870000000 1.0
C      1  0.3343300000000  0.4968830000000  0.6905300000000 1.0
C      1  0.4687710000000  0.4687400000000  0.7477880000000 1.0
C      1  0.6252500000000  0.4749970000000  0.7147310000000 1.0
C      1  0.7313580000000  0.4729680000000  0.6030450000000 1.0
END
