TITL C-1525613-7943-4173 0.209522762489204 3375 -8409.62053492519 0 0 60 (C1) n - 1
REM
REM in /home/nfs/bkarasulu/CARBON/AIRSS/Generating-Clusters/ReaxFF-fromJPCA2015/Units_Real/Try2-Higher-symm/Only-C60
REM
REM
REM
REM
REM
REM ./C.cell (863b2abdce7293c0672fb3ba77bf323a)
REM AIRSS Version 0.9.1 bugfix July 2018 build 013d7b7c2542+ Fri, 06 Jul 2018 19:26:36 +0100
REM compiler GCC version 9.2.1 20190827 (Red Hat 9.2.1-1)
REM options -cpp -mtune=generic -march=x86-64 -g -O0 -fpre-include=/usr/include/finclude/math-vector-fortran.h
REM seed 324661420 -666493826 59014321 621303635 997882397 950223698 1534159037 -1105083035 1188156335 -179647022 -527719352 384735291 812281023 199966905 -1391044286 -56236640 -763791040 639580119 -1689005767 -946295498 1621692562 -1814310914 1959707543 53472689 333278811 99805754 1680557853 1964700033 1708270725 1317775285 -741240565 1450140789 -387813260
REM
CELL 1.54180   15.00000   15.00000   15.00000   90.00000   90.00000   90.00000
LATT -1
SFAC C  
C      1  0.3467700000000  0.5751100000000  0.7225510000000 1.0
C      1  0.5406960000000  0.6469050000000  0.7114460000000 1.0
C      1  0.6566810000000  0.5076350000000  0.7045650000000 1.0
C      1  0.5411020000000  0.3683890000000  0.7150970000000 1.0
C      1  0.3836550000000  0.4453530000000  0.7358250000000 1.0
C      1  0.3415550000000  0.4297660000000  0.2738290000000 1.0
C      1  0.5417590000000  0.3491430000000  0.2855690000000 1.0
C      1  0.6578990000000  0.4919280000000  0.2962700000000 1.0
C      1  0.5409470000000  0.6322730000000  0.2836710000000 1.0
C      1  0.3874350000000  0.5579590000000  0.2652940000000 1.0
C      1  0.3577180000000  0.6750200000000  0.4654110000000 1.0
C      1  0.6774130000000  0.6952910000000  0.4294010000000 1.0
C      1  0.7431100000000  0.3865890000000  0.4335640000000 1.0
C      1  0.4808140000000  0.2170830000000  0.4279930000000 1.0
C      1  0.2498100000000  0.4358470000000  0.4489050000000 1.0
C      1  0.3588170000000  0.3257450000000  0.5352300000000 1.0
C      1  0.6788830000000  0.3043890000000  0.5704570000000 1.0
C      1  0.7429220000000  0.6139680000000  0.5657120000000 1.0
C      1  0.4789980000000  0.7797430000000  0.5750080000000 1.0
C      1  0.2497540000000  0.5645830000000  0.5512120000000 1.0
C      1  0.6075720000000  0.5653920000000  0.2598620000000 1.0
C      1  0.5984240000000  0.4274070000000  0.2624950000000 1.0
C      1  0.4190330000000  0.3861650000000  0.2442510000000 1.0
C      1  0.4013110000000  0.4768290000000  0.2131230000000 1.0
C      1  0.4468570000000  0.6264270000000  0.2758060000000 1.0
C      1  0.6033220000000  0.4373070000000  0.7374620000000 1.0
C      1  0.5999140000000  0.5737210000000  0.7371650000000 1.0
C      1  0.4206670000000  0.6138730000000  0.7613790000000 1.0
C      1  0.3963070000000  0.5234940000000  0.7901480000000 1.0
C      1  0.4448510000000  0.3741920000000  0.7272770000000 1.0
C      1  0.6199560000000  0.2894480000000  0.4923820000000 1.0
C      1  0.3701740000000  0.3089330000000  0.4503130000000 1.0
C      1  0.2859440000000  0.6012390000000  0.4675030000000 1.0
C      1  0.5194700000000  0.7339020000000  0.4966670000000 1.0
C      1  0.7397610000000  0.5500600000000  0.4906720000000 1.0
C      1  0.6185210000000  0.7106880000000  0.5074640000000 1.0
C      1  0.3685200000000  0.6928510000000  0.5508990000000 1.0
C      1  0.2869110000000  0.4001630000000  0.5321680000000 1.0
C      1  0.5208320000000  0.2646190000000  0.5042710000000 1.0
C      1  0.7398670000000  0.4500030000000  0.5089890000000 1.0
C      1  0.7010890000000  0.5991620000000  0.4127590000000 1.0
C      1  0.6578600000000  0.3366140000000  0.4140470000000 1.0
C      1  0.4154490000000  0.2767420000000  0.3755720000000 1.0
C      1  0.2786810000000  0.5229340000000  0.4068850000000 1.0
C      1  0.4534470000000  0.6895570000000  0.4377070000000 1.0
C      1  0.7006310000000  0.4011950000000  0.5867410000000 1.0
C      1  0.6581410000000  0.6643520000000  0.5857010000000 1.0
C      1  0.4136720000000  0.7210120000000  0.6272430000000 1.0
C      1  0.2802860000000  0.4785480000000  0.5931490000000 1.0
C      1  0.4544920000000  0.3096510000000  0.5630040000000 1.0
C      1  0.6002900000000  0.3811010000000  0.3491350000000 1.0
C      1  0.4568810000000  0.3388160000000  0.3098870000000 1.0
C      1  0.3359200000000  0.5083560000000  0.3307540000000 1.0
C      1  0.4825130000000  0.6463190000000  0.3579120000000 1.0
C      1  0.6331520000000  0.5597290000000  0.3544970000000 1.0
C      1  0.6016000000000  0.6176280000000  0.6498840000000 1.0
C      1  0.4538570000000  0.6481130000000  0.6855100000000 1.0
C      1  0.3419170000000  0.4951090000000  0.6664310000000 1.0
C      1  0.4829740000000  0.3541850000000  0.6419410000000 1.0
C      1  0.6321950000000  0.4414470000000  0.6439330000000 1.0
END
