TITL C-1525613-7943-1990 -0.0116269960538149 3375 -9076.04883294068 0 0 60 (C1) n - 1
REM
REM in /home/nfs/bkarasulu/CARBON/AIRSS/Generating-Clusters/ReaxFF-fromJPCA2015/Units_Real/Try2-Higher-symm/Only-C60
REM
REM
REM
REM
REM
REM ./C.cell (863b2abdce7293c0672fb3ba77bf323a)
REM AIRSS Version 0.9.1 bugfix July 2018 build 013d7b7c2542+ Fri, 06 Jul 2018 19:26:36 +0100
REM compiler GCC version 9.2.1 20190827 (Red Hat 9.2.1-1)
REM options -cpp -mtune=generic -march=x86-64 -g -O0 -fpre-include=/usr/include/finclude/math-vector-fortran.h
REM seed 845849343 -2014468816 480599079 1108289699 1738037821 2034807226 652780887 868654655 -1250141245 237031915 1991655771 1772138762 1808797492 2010807799 -143739123 2075959339 706620453 -220667345 -1465685078 -1133831458 -493093627 2070816568 1152278072 321228813 1347765904 -2095312518 2042839725 -626285979 -206953300 63882517 -1267339925 -1050955430 -1606852920
REM
CELL 1.54180   15.00000   15.00000   15.00000   90.00000   90.00000   90.00000
LATT -1
SFAC C  
C      1  0.6162780000000  0.2839330000000  0.6225470000000 1.0
C      1  0.6146510000000  0.5510730000000  0.7412090000000 1.0
C      1  0.6114040000000  0.7455420000000  0.5255750000000 1.0
C      1  0.6181910000000  0.6018700000000  0.2718250000000 1.0
C      1  0.6196560000000  0.3146060000000  0.3320730000000 1.0
C      1  0.6192150000000  0.7173420000000  0.6238080000000 1.0
C      1  0.6178040000000  0.4486170000000  0.7424310000000 1.0
C      1  0.6164040000000  0.2533710000000  0.5250730000000 1.0
C      1  0.6187100000000  0.3976610000000  0.2718530000000 1.0
C      1  0.6192180000000  0.6851930000000  0.3316670000000 1.0
C      1  0.3487810000000  0.4474420000000  0.3488790000000 1.0
C      1  0.3361260000000  0.3437450000000  0.4962870000000 1.0
C      1  0.3446440000000  0.4540820000000  0.6210060000000 1.0
C      1  0.3426820000000  0.5912310000000  0.5900470000000 1.0
C      1  0.3500190000000  0.5983830000000  0.4310710000000 1.0
C      1  0.3511140000000  0.5555330000000  0.3528790000000 1.0
C      1  0.3488330000000  0.6440540000000  0.5145300000000 1.0
C      1  0.3364610000000  0.5377360000000  0.6665090000000 1.0
C      1  0.3508410000000  0.3830920000000  0.5805450000000 1.0
C      1  0.3426120000000  0.3969610000000  0.4206790000000 1.0
C      1  0.4517050000000  0.2235260000000  0.4633360000000 1.0
C      1  0.4499910000000  0.3785820000000  0.7671530000000 1.0
C      1  0.4532640000000  0.7195090000000  0.7041260000000 1.0
C      1  0.4504220000000  0.7573780000000  0.3563210000000 1.0
C      1  0.4547020000000  0.4484550000000  0.2150880000000 1.0
C      1  0.4473430000000  0.7814010000000  0.4611800000000 1.0
C      1  0.4535880000000  0.6278500000000  0.7605020000000 1.0
C      1  0.4501980000000  0.2896940000000  0.7016960000000 1.0
C      1  0.4508530000000  0.2435300000000  0.3582160000000 1.0
C      1  0.4542670000000  0.5513750000000  0.2164500000000 1.0
C      1  0.5350840000000  0.5766760000000  0.2430080000000 1.0
C      1  0.5373660000000  0.2722580000000  0.3404400000000 1.0
C      1  0.5329080000000  0.2832390000000  0.6637310000000 1.0
C      1  0.5322240000000  0.5903550000000  0.7510960000000 1.0
C      1  0.5272080000000  0.7639850000000  0.4926290000000 1.0
C      1  0.5358930000000  0.4223690000000  0.2415900000000 1.0
C      1  0.5366900000000  0.7269360000000  0.3398880000000 1.0
C      1  0.5400650000000  0.7254240000000  0.6720630000000 1.0
C      1  0.5350470000000  0.4095250000000  0.7586340000000 1.0
C      1  0.5321420000000  0.2380450000000  0.4934460000000 1.0
C      1  0.4009590000000  0.2645730000000  0.6237170000000 1.0
C      1  0.3873830000000  0.5533690000000  0.7578310000000 1.0
C      1  0.3882220000000  0.7434040000000  0.5310930000000 1.0
C      1  0.3858810000000  0.6042910000000  0.2725990000000 1.0
C      1  0.4097250000000  0.3158590000000  0.3119030000000 1.0
C      1  0.4141430000000  0.7361850000000  0.6194580000000 1.0
C      1  0.4074730000000  0.4634610000000  0.7655190000000 1.0
C      1  0.3830680000000  0.2576330000000  0.5299770000000 1.0
C      1  0.3863300000000  0.3957870000000  0.2707940000000 1.0
C      1  0.4076980000000  0.6837560000000  0.3144240000000 1.0
C      1  0.6549530000000  0.6279050000000  0.5914400000000 1.0
C      1  0.6547210000000  0.6265930000000  0.4065150000000 1.0
C      1  0.6559630000000  0.4510990000000  0.3498990000000 1.0
C      1  0.6553560000000  0.3434010000000  0.4997980000000 1.0
C      1  0.6551720000000  0.4517520000000  0.6487900000000 1.0
C      1  0.6536650000000  0.3724900000000  0.5913950000000 1.0
C      1  0.6546240000000  0.3736260000000  0.4068810000000 1.0
C      1  0.6558520000000  0.5488100000000  0.3498350000000 1.0
C      1  0.6515070000000  0.6563220000000  0.4995390000000 1.0
C      1  0.6526990000000  0.5481070000000  0.6475060000000 1.0
END
