TITL C-1525613-7943-7220 -5.51599870958528e-05 3375 -9891.21672896644 0 0 60 (Ih) n - 1
REM
REM in /home/nfs/bkarasulu/CARBON/AIRSS/Generating-Clusters/ReaxFF-fromJPCA2015/Units_Real/Try2-Higher-symm/Only-C60
REM
REM
REM
REM
REM
REM ./C.cell (863b2abdce7293c0672fb3ba77bf323a)
REM AIRSS Version 0.9.1 bugfix July 2018 build 013d7b7c2542+ Fri, 06 Jul 2018 19:26:36 +0100
REM compiler GCC version 9.2.1 20190827 (Red Hat 9.2.1-1)
REM options -cpp -mtune=generic -march=x86-64 -g -O0 -fpre-include=/usr/include/finclude/math-vector-fortran.h
REM seed -2071904986 1518098044 -1551340193 -555602734 309414552 -1466297327 1176586533 1861851195 299297931 1779950748 99836788 329674355 727973220 -1256194472 63834573 1711794131 -1712913814 -545520430 1600536997 -478375776 812726830 -787945266 -689018804 -1691232019 -1291676491 1475263481 1084100116 1827610534 -1237613674 -494127247 1241220202 1500078695 -1904798451
REM
CELL 1.54180   15.00000   15.00000   15.00000   90.00000   90.00000   90.00000
LATT -1
SFAC C  
C      1  0.3324930000000  0.6627260000000  0.4594980000000 1.0
C      1  0.2688680000000  0.5331930000000  0.5406800000000 1.0
C      1  0.2934680000000  0.3909950000000  0.4594900000000 1.0
C      1  0.3970160000000  0.2904200000000  0.5406070000000 1.0
C      1  0.5398410000000  0.2699100000000  0.4593800000000 1.0
C      1  0.6675070000000  0.3372740000000  0.5405020000000 1.0
C      1  0.7311320000000  0.4668070000000  0.4593200000000 1.0
C      1  0.7065320000000  0.6090050000000  0.5405100000000 1.0
C      1  0.6029840000000  0.7095800000000  0.4593930000000 1.0
C      1  0.4601590000000  0.7300900000000  0.5406200000000 1.0
C      1  0.4048180000000  0.3204840000000  0.3779640000000 1.0
C      1  0.5286080000000  0.2988310000000  0.6220290000000 1.0
C      1  0.6412930000000  0.3540570000000  0.3778720000000 1.0
C      1  0.7001870000000  0.4649890000000  0.6219740000000 1.0
C      1  0.6824390000000  0.5893330000000  0.3778760000000 1.0
C      1  0.5951820000000  0.6795160000000  0.6220360000000 1.0
C      1  0.4713920000000  0.7011690000000  0.3779710000000 1.0
C      1  0.3587070000000  0.6459430000000  0.6221280000000 1.0
C      1  0.2998130000000  0.5350110000000  0.3780260000000 1.0
C      1  0.3175610000000  0.4106670000000  0.6221240000000 1.0
C      1  0.4371890000000  0.4480190000000  0.2774440000000 1.0
C      1  0.4799120000000  0.4210440000000  0.7225780000000 1.0
C      1  0.5299840000000  0.4242990000000  0.2774040000000 1.0
C      1  0.5689280000000  0.4563980000000  0.7225450000000 1.0
C      1  0.5812180000000  0.5052230000000  0.2773910000000 1.0
C      1  0.5628110000000  0.5519810000000  0.7225560000000 1.0
C      1  0.5200880000000  0.5789560000000  0.2774220000000 1.0
C      1  0.4700160000000  0.5757010000000  0.7225960000000 1.0
C      1  0.4310720000000  0.5436020000000  0.2774550000000 1.0
C      1  0.4187820000000  0.4947770000000  0.7226090000000 1.0
C      1  0.5402090000000  0.6575910000000  0.3275860000000 1.0
C      1  0.4400350000000  0.6511410000000  0.6724500000000 1.0
C      1  0.3625140000000  0.5870160000000  0.3276510000000 1.0
C      1  0.3377590000000  0.4895990000000  0.6724770000000 1.0
C      1  0.3747240000000  0.3962090000000  0.3276290000000 1.0
C      1  0.4597910000000  0.3424090000000  0.6724140000000 1.0
C      1  0.5599650000000  0.3488590000000  0.3275500000000 1.0
C      1  0.6374860000000  0.4129840000000  0.6723490000000 1.0
C      1  0.6622410000000  0.5104010000000  0.3275230000000 1.0
C      1  0.6252760000000  0.6037910000000  0.6723710000000 1.0
C      1  0.7187410000000  0.4181980000000  0.5404880000000 1.0
C      1  0.7250160000000  0.5623910000000  0.4593310000000 1.0
C      1  0.6454010000000  0.6827390000000  0.5405410000000 1.0
C      1  0.5101890000000  0.7333010000000  0.4594330000000 1.0
C      1  0.3711440000000  0.6947360000000  0.5406530000000 1.0
C      1  0.2812590000000  0.5818020000000  0.4595120000000 1.0
C      1  0.2749840000000  0.4376090000000  0.5406690000000 1.0
C      1  0.3545990000000  0.3172610000000  0.4594590000000 1.0
C      1  0.4898110000000  0.2666990000000  0.5405670000000 1.0
C      1  0.6288560000000  0.3052640000000  0.4593470000000 1.0
C      1  0.5027360000000  0.7031470000000  0.6220750000000 1.0
C      1  0.3827120000000  0.6659480000000  0.3780040000000 1.0
C      1  0.3076650000000  0.5653240000000  0.6221420000000 1.0
C      1  0.3059060000000  0.4397870000000  0.3780150000000 1.0
C      1  0.3784620000000  0.3372110000000  0.6220930000000 1.0
C      1  0.4972640000000  0.2968530000000  0.3779250000000 1.0
C      1  0.6172880000000  0.3340520000000  0.6219960000000 1.0
C      1  0.6923350000000  0.4346760000000  0.3778580000000 1.0
C      1  0.6940940000000  0.5602130000000  0.6219850000000 1.0
C      1  0.6215380000000  0.6627890000000  0.3779070000000 1.0
END
