TITL C-1525613-7943-4707 0.030682245059079 3375 -9053.76559234449 0 0 60 (C1) n - 1
REM
REM in /home/nfs/bkarasulu/CARBON/AIRSS/Generating-Clusters/ReaxFF-fromJPCA2015/Units_Real/Try2-Higher-symm/Only-C60
REM
REM
REM
REM
REM
REM ./C.cell (863b2abdce7293c0672fb3ba77bf323a)
REM AIRSS Version 0.9.1 bugfix July 2018 build 013d7b7c2542+ Fri, 06 Jul 2018 19:26:36 +0100
REM compiler GCC version 9.2.1 20190827 (Red Hat 9.2.1-1)
REM options -cpp -mtune=generic -march=x86-64 -g -O0 -fpre-include=/usr/include/finclude/math-vector-fortran.h
REM seed 1059470327 -425579038 -1628657030 -643547424 -1531736795 566793187 -1621497382 -1540235077 1573069630 1565394189 508213686 -107511152 1181442954 879502745 -1248600907 -1909939470 1788167170 42309898 -975454233 -1347485605 705246872 117519937 -2009488774 997038593 -552642827 1315746350 -1208140122 1827934718 -2100402829 -1815808412 2115295729 849081784 -1518138174
REM
CELL 1.54180   15.00000   15.00000   15.00000   90.00000   90.00000   90.00000
LATT -1
SFAC C  
C      1  0.5113070000000  0.2616780000000  0.6055220000000 1.0
C      1  0.3672880000000  0.2966310000000  0.6123720000000 1.0
C      1  0.2783860000000  0.4146540000000  0.6031820000000 1.0
C      1  0.2665620000000  0.5607140000000  0.6078790000000 1.0
C      1  0.3475350000000  0.6875230000000  0.6082330000000 1.0
C      1  0.4842280000000  0.7417220000000  0.6099470000000 1.0
C      1  0.6294720000000  0.7038410000000  0.6118090000000 1.0
C      1  0.7206320000000  0.5876640000000  0.6032430000000 1.0
C      1  0.7321720000000  0.4381970000000  0.6074180000000 1.0
C      1  0.6490670000000  0.3139090000000  0.6045110000000 1.0
C      1  0.3531830000000  0.4428740000000  0.6535020000000 1.0
C      1  0.3465760000000  0.5397240000000  0.6565140000000 1.0
C      1  0.3987390000000  0.6221240000000  0.6570090000000 1.0
C      1  0.4894930000000  0.6579530000000  0.6577950000000 1.0
C      1  0.5840570000000  0.6330280000000  0.6592890000000 1.0
C      1  0.6446730000000  0.5567050000000  0.6537510000000 1.0
C      1  0.6515590000000  0.4591600000000  0.6556010000000 1.0
C      1  0.5977290000000  0.3778440000000  0.6544280000000 1.0
C      1  0.5071650000000  0.3427580000000  0.6539820000000 1.0
C      1  0.4132640000000  0.3668080000000  0.6583780000000 1.0
C      1  0.7571810000000  0.5119100000000  0.4678340000000 1.0
C      1  0.7130290000000  0.3611460000000  0.4674030000000 1.0
C      1  0.5834930000000  0.2688390000000  0.4628250000000 1.0
C      1  0.4289870000000  0.2477200000000  0.4759890000000 1.0
C      1  0.3024810000000  0.3408190000000  0.4712660000000 1.0
C      1  0.2541610000000  0.4911400000000  0.4628110000000 1.0
C      1  0.2854100000000  0.6443090000000  0.4749170000000 1.0
C      1  0.4149510000000  0.7319540000000  0.4630490000000 1.0
C      1  0.5742060000000  0.7444260000000  0.4772990000000 1.0
C      1  0.6929420000000  0.6662470000000  0.4601560000000 1.0
C      1  0.5691240000000  0.7674520000000  0.5687290000000 1.0
C      1  0.7027180000000  0.6710870000000  0.5559340000000 1.0
C      1  0.7709680000000  0.5151830000000  0.5607700000000 1.0
C      1  0.7271170000000  0.3524870000000  0.5603540000000 1.0
C      1  0.5921520000000  0.2519570000000  0.5550480000000 1.0
C      1  0.4284910000000  0.2351160000000  0.5685200000000 1.0
C      1  0.2899620000000  0.3302850000000  0.5633440000000 1.0
C      1  0.2353820000000  0.4848850000000  0.5550310000000 1.0
C      1  0.2675820000000  0.6496360000000  0.5668250000000 1.0
C      1  0.4032180000000  0.7490860000000  0.5561670000000 1.0
C      1  0.4259440000000  0.7119970000000  0.3792800000000 1.0
C      1  0.5804440000000  0.7135230000000  0.3966030000000 1.0
C      1  0.6880370000000  0.6322080000000  0.3747360000000 1.0
C      1  0.7384070000000  0.5065440000000  0.3850580000000 1.0
C      1  0.6940420000000  0.3772660000000  0.3854620000000 1.0
C      1  0.5719190000000  0.2881500000000  0.3789730000000 1.0
C      1  0.4337140000000  0.2745620000000  0.3945520000000 1.0
C      1  0.3215840000000  0.3540050000000  0.3890710000000 1.0
C      1  0.2758160000000  0.4980900000000  0.3789860000000 1.0
C      1  0.3126310000000  0.6323140000000  0.3956720000000 1.0
C      1  0.4509940000000  0.3471290000000  0.3333040000000 1.0
C      1  0.3672190000000  0.4043970000000  0.3220850000000 1.0
C      1  0.3403680000000  0.4976950000000  0.3102000000000 1.0
C      1  0.3712560000000  0.5910150000000  0.3309870000000 1.0
C      1  0.4493470000000  0.6506880000000  0.3118860000000 1.0
C      1  0.5458420000000  0.6500970000000  0.3322990000000 1.0
C      1  0.6265020000000  0.5932990000000  0.3135200000000 1.0
C      1  0.6620700000000  0.5006320000000  0.3254950000000 1.0
C      1  0.6292180000000  0.4050040000000  0.3214370000000 1.0
C      1  0.5480020000000  0.3501910000000  0.3117550000000 1.0
END
