TITL C-1525613-7943-4589 -0.0543005281948647 3375 -8515.36545683283 0 0 60 (Cs) n - 1
REM
REM in /home/nfs/bkarasulu/CARBON/AIRSS/Generating-Clusters/ReaxFF-fromJPCA2015/Units_Real/Try2-Higher-symm/Only-C60
REM
REM
REM
REM
REM
REM ./C.cell (863b2abdce7293c0672fb3ba77bf323a)
REM AIRSS Version 0.9.1 bugfix July 2018 build 013d7b7c2542+ Fri, 06 Jul 2018 19:26:36 +0100
REM compiler GCC version 9.2.1 20190827 (Red Hat 9.2.1-1)
REM options -cpp -mtune=generic -march=x86-64 -g -O0 -fpre-include=/usr/include/finclude/math-vector-fortran.h
REM seed -132767655 -1575362881 893634272 731137409 1429126245 1502788192 -756330924 2137834149 1095500362 1864176048 1402972689 473542968 681643274 -842714067 304179724 1689767840 2135197429 949913316 2119083782 -1425714918 -1796382743 -771271866 -279386992 -381165181 1095190752 -1069825744 1173435802 -280614917 -2083033003 1250833210 -107432164 350155105 -252797203
REM
CELL 1.54180   15.00000   15.00000   15.00000   90.00000   90.00000   90.00000
LATT -1
SFAC C  
C      1  0.5213000000000  0.3023250000000  0.6165530000000 1.0
C      1  0.3188210000000  0.4163320000000  0.6162860000000 1.0
C      1  0.3660520000000  0.6432100000000  0.6071140000000 1.0
C      1  0.5950660000000  0.6744110000000  0.6153810000000 1.0
C      1  0.6938680000000  0.4637280000000  0.6163390000000 1.0
C      1  0.5213000000000  0.3023250000000  0.3834470000000 1.0
C      1  0.3188210000000  0.4163320000000  0.3837140000000 1.0
C      1  0.3660520000000  0.6432100000000  0.3928860000000 1.0
C      1  0.5950660000000  0.6744110000000  0.3846190000000 1.0
C      1  0.6938690000000  0.4637280000000  0.3836610000000 1.0
C      1  0.5458150000000  0.4309080000000  0.4433680000000 1.0
C      1  0.4512720000000  0.4392430000000  0.4270430000000 1.0
C      1  0.4247820000000  0.5283310000000  0.4497200000000 1.0
C      1  0.5054370000000  0.5846210000000  0.4507590000000 1.0
C      1  0.5803380000000  0.5242770000000  0.4430550000000 1.0
C      1  0.5458150000000  0.4309080000000  0.5566320000000 1.0
C      1  0.4512720000000  0.4392430000000  0.5729570000000 1.0
C      1  0.4247820000000  0.5283310000000  0.5502800000000 1.0
C      1  0.5054370000000  0.5846210000000  0.5492410000000 1.0
C      1  0.5803380000000  0.5242770000000  0.5569450000000 1.0
C      1  0.6167810000000  0.5399110000000  0.2968870000000 1.0
C      1  0.5765790000000  0.3955760000000  0.2998290000000 1.0
C      1  0.4216330000000  0.3966190000000  0.2927890000000 1.0
C      1  0.3972560000000  0.5289510000000  0.2904100000000 1.0
C      1  0.5008520000000  0.6177630000000  0.2974920000000 1.0
C      1  0.6167810000000  0.5399110000000  0.7031130000000 1.0
C      1  0.5765790000000  0.3955760000000  0.7001710000000 1.0
C      1  0.4216330000000  0.3966190000000  0.7072110000000 1.0
C      1  0.3972560000000  0.5289510000000  0.7095900000000 1.0
C      1  0.5008520000000  0.6177630000000  0.7025080000000 1.0
C      1  0.4492700000000  0.2891620000000  0.4511470000000 1.0
C      1  0.2840980000000  0.4791450000000  0.4510520000000 1.0
C      1  0.4161080000000  0.7014020000000  0.4506720000000 1.0
C      1  0.6637520000000  0.6424430000000  0.4505190000000 1.0
C      1  0.6825810000000  0.3891290000000  0.4505610000000 1.0
C      1  0.4492700000000  0.2891620000000  0.5488530000000 1.0
C      1  0.2840980000000  0.4791450000000  0.5489480000000 1.0
C      1  0.4161080000000  0.7014020000000  0.5493280000000 1.0
C      1  0.6637520000000  0.6424430000000  0.5494810000000 1.0
C      1  0.6825810000000  0.3891290000000  0.5494390000000 1.0
C      1  0.6368670000000  0.4575450000000  0.6940600000000 1.0
C      1  0.4997270000000  0.3579090000000  0.6926880000000 1.0
C      1  0.3598630000000  0.4521400000000  0.6978670000000 1.0
C      1  0.4136130000000  0.6103730000000  0.6846580000000 1.0
C      1  0.5842030000000  0.6195130000000  0.6947250000000 1.0
C      1  0.6368670000000  0.4575450000000  0.3059400000000 1.0
C      1  0.4997270000000  0.3579090000000  0.3073120000000 1.0
C      1  0.3598630000000  0.4521400000000  0.3021330000000 1.0
C      1  0.4136130000000  0.6103730000000  0.3153420000000 1.0
C      1  0.5842030000000  0.6195130000000  0.3052750000000 1.0
C      1  0.5994680000000  0.3453500000000  0.5742860000000 1.0
C      1  0.3908620000000  0.3651730000000  0.5707640000000 1.0
C      1  0.3187210000000  0.5728680000000  0.5549770000000 1.0
C      1  0.5104710000000  0.6830750000000  0.5664200000000 1.0
C      1  0.6745440000000  0.5485650000000  0.5709490000000 1.0
C      1  0.5994690000000  0.3453500000000  0.4257140000000 1.0
C      1  0.3908620000000  0.3651730000000  0.4292360000000 1.0
C      1  0.3187200000000  0.5728680000000  0.4450230000000 1.0
C      1  0.5104710000000  0.6830750000000  0.4335800000000 1.0
C      1  0.6745440000000  0.5485650000000  0.4290500000000 1.0
END
