TITL C-1525613-7943-660 0.148646271121286 3375 -8565.69628101878 0 0 60 (Cs) n - 1
REM
REM in /home/nfs/bkarasulu/CARBON/AIRSS/Generating-Clusters/ReaxFF-fromJPCA2015/Units_Real/Try2-Higher-symm/Only-C60
REM
REM
REM
REM
REM
REM ./C.cell (863b2abdce7293c0672fb3ba77bf323a)
REM AIRSS Version 0.9.1 bugfix July 2018 build 013d7b7c2542+ Fri, 06 Jul 2018 19:26:36 +0100
REM compiler GCC version 9.2.1 20190827 (Red Hat 9.2.1-1)
REM options -cpp -mtune=generic -march=x86-64 -g -O0 -fpre-include=/usr/include/finclude/math-vector-fortran.h
REM seed -939877428 -577116986 -429355574 -444865920 13797543 1994325719 462935987 904535210 944763588 504068795 1499899890 1012646759 1766365976 -163763434 -528770041 990634294 853692470 1833781929 1709334991 -780893576 863460395 1363061843 -1279480366 -618249637 -1986862337 417264962 -1378843977 -622950841 1865003071 1507481937 -2024794482 -1621124137 -530538018
REM
CELL 1.54180   15.00000   15.00000   15.00000   90.00000   90.00000   90.00000
LATT -1
SFAC C  
C      1  0.3953380000000  0.6242130000000  0.3106590000000 1.0
C      1  0.3498690000000  0.4385570000000  0.3105040000000 1.0
C      1  0.5123950000000  0.3375960000000  0.3107740000000 1.0
C      1  0.6600970000000  0.4591270000000  0.3162150000000 1.0
C      1  0.5861790000000  0.6366190000000  0.3099670000000 1.0
C      1  0.3953400000000  0.6242140000000  0.6893410000000 1.0
C      1  0.3498690000000  0.4385550000000  0.6894970000000 1.0
C      1  0.5123940000000  0.3375960000000  0.6892260000000 1.0
C      1  0.6600980000000  0.4591260000000  0.6837860000000 1.0
C      1  0.5861780000000  0.6366200000000  0.6900330000000 1.0
C      1  0.6142540000000  0.6796340000000  0.6058570000000 1.0
C      1  0.3641650000000  0.6643260000000  0.6054230000000 1.0
C      1  0.3013490000000  0.4223880000000  0.6058210000000 1.0
C      1  0.5118910000000  0.2873990000000  0.6046980000000 1.0
C      1  0.7028080000000  0.4477230000000  0.5970520000000 1.0
C      1  0.6142530000000  0.6796330000000  0.3941430000000 1.0
C      1  0.3641640000000  0.6643250000000  0.3945770000000 1.0
C      1  0.3013490000000  0.4223890000000  0.3941790000000 1.0
C      1  0.5118920000000  0.2873990000000  0.3953020000000 1.0
C      1  0.7028080000000  0.4477230000000  0.4029480000000 1.0
C      1  0.4306480000000  0.3877870000000  0.6717630000000 1.0
C      1  0.5904040000000  0.3916830000000  0.6678820000000 1.0
C      1  0.6236340000000  0.5485620000000  0.6716840000000 1.0
C      1  0.4909090000000  0.6330990000000  0.6721920000000 1.0
C      1  0.3715580000000  0.5318450000000  0.6716400000000 1.0
C      1  0.4306470000000  0.3877870000000  0.3282370000000 1.0
C      1  0.5904040000000  0.3916840000000  0.3321180000000 1.0
C      1  0.6236340000000  0.5485610000000  0.3283160000000 1.0
C      1  0.4909090000000  0.6331000000000  0.3278080000000 1.0
C      1  0.3715590000000  0.5318440000000  0.3283600000000 1.0
C      1  0.3026720000000  0.6042210000000  0.4522610000000 1.0
C      1  0.3385680000000  0.3440700000000  0.4518900000000 1.0
C      1  0.5944460000000  0.3013070000000  0.4530940000000 1.0
C      1  0.7215450000000  0.5328140000000  0.4514500000000 1.0
C      1  0.5373660000000  0.7201410000000  0.4524910000000 1.0
C      1  0.3026720000000  0.6042240000000  0.5477390000000 1.0
C      1  0.3385690000000  0.3440700000000  0.5481100000000 1.0
C      1  0.5944460000000  0.3013070000000  0.5469060000000 1.0
C      1  0.7215450000000  0.5328140000000  0.5485500000000 1.0
C      1  0.5373660000000  0.7201410000000  0.5475090000000 1.0
C      1  0.4220480000000  0.5197410000000  0.5902450000000 1.0
C      1  0.4578420000000  0.4315230000000  0.5898740000000 1.0
C      1  0.5525070000000  0.4369530000000  0.5895360000000 1.0
C      1  0.5743630000000  0.5293860000000  0.5912680000000 1.0
C      1  0.4946580000000  0.5807720000000  0.5912480000000 1.0
C      1  0.4220480000000  0.5197410000000  0.4097540000000 1.0
C      1  0.4578420000000  0.4315230000000  0.4101260000000 1.0
C      1  0.5525070000000  0.4369530000000  0.4104640000000 1.0
C      1  0.5743630000000  0.5293860000000  0.4087320000000 1.0
C      1  0.4946580000000  0.5807710000000  0.4087530000000 1.0
C      1  0.4185990000000  0.2904360000000  0.4295750000000 1.0
C      1  0.6763930000000  0.3662630000000  0.4522980000000 1.0
C      1  0.6868390000000  0.6245890000000  0.4291440000000 1.0
C      1  0.4405120000000  0.7164890000000  0.4297540000000 1.0
C      1  0.2761420000000  0.5107370000000  0.4296700000000 1.0
C      1  0.4185990000000  0.2904360000000  0.5704250000000 1.0
C      1  0.6763930000000  0.3662630000000  0.5477020000000 1.0
C      1  0.6868390000000  0.6245890000000  0.5708560000000 1.0
C      1  0.4405130000000  0.7164890000000  0.5702460000000 1.0
C      1  0.2761430000000  0.5107380000000  0.5703290000000 1.0
END
