TITL C-1525613-7943-1517 -0.000217594763299075 3375 -7840.26484146899 0 0 60 (C5v) n - 1
REM
REM in /home/nfs/bkarasulu/CARBON/AIRSS/Generating-Clusters/ReaxFF-fromJPCA2015/Units_Real/Try2-Higher-symm/Only-C60
REM
REM
REM
REM
REM
REM ./C.cell (863b2abdce7293c0672fb3ba77bf323a)
REM AIRSS Version 0.9.1 bugfix July 2018 build 013d7b7c2542+ Fri, 06 Jul 2018 19:26:36 +0100
REM compiler GCC version 9.2.1 20190827 (Red Hat 9.2.1-1)
REM options -cpp -mtune=generic -march=x86-64 -g -O0 -fpre-include=/usr/include/finclude/math-vector-fortran.h
REM seed 809948684 -770186715 638694171 1683746618 -1291039289 289679286 -1905077495 -1305938645 1638450321 2051432714 503387166 643357119 895252040 997067059 -1397663252 1106811260 -1026182670 261220609 -1064666056 -1643790653 654657209 -1635471561 905251168 751445624 -1412580606 -1792325843 1150616396 560335890 -1345751432 -489160837 -260376825 1501035057 -784610913
REM
CELL 1.54180   15.00000   15.00000   15.00000   90.00000   90.00000   90.00000
LATT -1
SFAC C  
C      1  0.6260510000000  0.5075610000000  0.3912570000000 1.0
C      1  0.6653410000000  0.5164700000000  0.4861620000000 1.0
C      1  0.6423730000000  0.5075580000000  0.5862780000000 1.0
C      1  0.5642530000000  0.5164690000000  0.6529710000000 1.0
C      1  0.4619400000000  0.5075560000000  0.6620660000000 1.0
C      1  0.3743710000000  0.5164710000000  0.6083790000000 1.0
C      1  0.3341040000000  0.5075590000000  0.5138840000000 1.0
C      1  0.3581040000000  0.5164730000000  0.4140120000000 1.0
C      1  0.4355310000000  0.5075610000000  0.3465150000000 1.0
C      1  0.5379320000000  0.5164730000000  0.3384770000000 1.0
C      1  0.7097840000000  0.3626060000000  0.5493510000000 1.0
C      1  0.6408370000000  0.3626050000000  0.6631210000000 1.0
C      1  0.5178890000000  0.3626040000000  0.7147640000000 1.0
C      1  0.3883810000000  0.3626050000000  0.6843500000000 1.0
C      1  0.3012720000000  0.3626070000000  0.5833780000000 1.0
C      1  0.2901770000000  0.3626080000000  0.4508110000000 1.0
C      1  0.3592900000000  0.3626100000000  0.3367650000000 1.0
C      1  0.4819410000000  0.3626090000000  0.2852470000000 1.0
C      1  0.6117630000000  0.3626090000000  0.3157350000000 1.0
C      1  0.6986620000000  0.3626080000000  0.4164620000000 1.0
C      1  0.6969850000000  0.5802670000000  0.6193740000000 1.0
C      1  0.5897040000000  0.5863120000000  0.7135650000000 1.0
C      1  0.4473410000000  0.5802650000000  0.7242320000000 1.0
C      1  0.3246090000000  0.5863140000000  0.6513100000000 1.0
C      1  0.2704700000000  0.5802680000000  0.5192110000000 1.0
C      1  0.3018980000000  0.5863170000000  0.3799510000000 1.0
C      1  0.4108020000000  0.5802700000000  0.2876420000000 1.0
C      1  0.5529570000000  0.5863170000000  0.2744970000000 1.0
C      1  0.6744020000000  0.5802700000000  0.3495460000000 1.0
C      1  0.7308330000000  0.5863140000000  0.4806820000000 1.0
C      1  0.4637880000000  0.6477870000000  0.6542010000000 1.0
C      1  0.3800280000000  0.6521690000000  0.6035010000000 1.0
C      1  0.3421570000000  0.6477890000000  0.5132120000000 1.0
C      1  0.3644930000000  0.6521710000000  0.4178840000000 1.0
C      1  0.4386600000000  0.6477910000000  0.3539670000000 1.0
C      1  0.5362250000000  0.6521710000000  0.3457510000000 1.0
C      1  0.6199330000000  0.6477910000000  0.3965370000000 1.0
C      1  0.6578960000000  0.6521690000000  0.4867870000000 1.0
C      1  0.6354620000000  0.6477880000000  0.5820920000000 1.0
C      1  0.5613600000000  0.6521670000000  0.6460860000000 1.0
C      1  0.5594200000000  0.4978420000000  0.2469740000000 1.0
C      1  0.6981390000000  0.4931600000000  0.3290670000000 1.0
C      1  0.7590060000000  0.4978390000000  0.4783230000000 1.0
C      1  0.7237950000000  0.4931560000000  0.6356200000000 1.0
C      1  0.6006520000000  0.4978360000000  0.7396290000000 1.0
C      1  0.4401740000000  0.4931540000000  0.7547510000000 1.0
C      1  0.3032030000000  0.4978380000000  0.6697750000000 1.0
C      1  0.2392290000000  0.4931580000000  0.5218240000000 1.0
C      1  0.2777200000000  0.4978420000000  0.3652980000000 1.0
C      1  0.3986620000000  0.4931610000000  0.2587380000000 1.0
C      1  0.4428730000000  0.3942590000000  0.7432550000000 1.0
C      1  0.3135020000000  0.3989530000000  0.6608890000000 1.0
C      1  0.2509940000000  0.3942620000000  0.5208390000000 1.0
C      1  0.2893530000000  0.3989570000000  0.3723470000000 1.0
C      1  0.4032340000000  0.3942650000000  0.2696230000000 1.0
C      1  0.5563110000000  0.3989570000000  0.2602160000000 1.0
C      1  0.6891990000000  0.3942640000000  0.3367790000000 1.0
C      1  0.7454510000000  0.3989550000000  0.4794560000000 1.0
C      1  0.7136980000000  0.3942600000000  0.6294990000000 1.0
C      1  0.5953840000000  0.3989520000000  0.7270860000000 1.0
END
