TITL C-1525613-7943-6713 0.0244576599044513 3375 -9034.94475164274 0 0 60 (C2) n - 1
REM
REM in /home/nfs/bkarasulu/CARBON/AIRSS/Generating-Clusters/ReaxFF-fromJPCA2015/Units_Real/Try2-Higher-symm/Only-C60
REM
REM
REM
REM
REM
REM ./C.cell (863b2abdce7293c0672fb3ba77bf323a)
REM AIRSS Version 0.9.1 bugfix July 2018 build 013d7b7c2542+ Fri, 06 Jul 2018 19:26:36 +0100
REM compiler GCC version 9.2.1 20190827 (Red Hat 9.2.1-1)
REM options -cpp -mtune=generic -march=x86-64 -g -O0 -fpre-include=/usr/include/finclude/math-vector-fortran.h
REM seed -1322658525 1621411515 -895718477 -235565863 -1301030367 1573291977 1829634489 1967749430 -2134165685 1773130722 655281409 -1025369440 1921835091 1010150236 1656947732 -1472885120 1754207721 105022919 -3182239 -958282711 1188498223 -436000414 -1426726860 -166280402 -827580417 -1378108779 2110618884 -1136527871 550608879 -1513557120 -1074151361 -1040156501 1764276867
REM
CELL 1.54180   15.00000   15.00000   15.00000   90.00000   90.00000   90.00000
LATT -1
SFAC C  
C      1  0.4566790000000  0.3447510000000  0.3457410000000 1.0
C      1  0.5544370000000  0.3482480000000  0.3488890000000 1.0
C      1  0.6361850000000  0.3449800000000  0.4077630000000 1.0
C      1  0.6589660000000  0.3434020000000  0.5061040000000 1.0
C      1  0.6236740000000  0.3493150000000  0.5975010000000 1.0
C      1  0.5433170000000  0.3448660000000  0.6542260000000 1.0
C      1  0.4455640000000  0.3482280000000  0.6511380000000 1.0
C      1  0.3638760000000  0.3451430000000  0.5922310000000 1.0
C      1  0.3410890000000  0.3432480000000  0.4939770000000 1.0
C      1  0.3764360000000  0.3493850000000  0.4024810000000 1.0
C      1  0.3015440000000  0.4049680000000  0.6295520000000 1.0
C      1  0.2551770000000  0.3832440000000  0.4646480000000 1.0
C      1  0.2872110000000  0.3831260000000  0.3712790000000 1.0
C      1  0.4587560000000  0.3829600000000  0.2532090000000 1.0
C      1  0.5571760000000  0.3850420000000  0.2564440000000 1.0
C      1  0.6984230000000  0.4049490000000  0.3704870000000 1.0
C      1  0.7447450000000  0.3832710000000  0.5354560000000 1.0
C      1  0.7127850000000  0.3830560000000  0.6287150000000 1.0
C      1  0.5411790000000  0.3829920000000  0.7467670000000 1.0
C      1  0.4428730000000  0.3850160000000  0.7435270000000 1.0
C      1  0.3523090000000  0.6804550000000  0.5385680000000 1.0
C      1  0.3959450000000  0.7049000000000  0.4629720000000 1.0
C      1  0.4484290000000  0.7227960000000  0.3984270000000 1.0
C      1  0.5188250000000  0.7330610000000  0.3569000000000 1.0
C      1  0.5878180000000  0.7147710000000  0.3971770000000 1.0
C      1  0.6476980000000  0.6804280000000  0.4614500000000 1.0
C      1  0.6040650000000  0.7049180000000  0.5370360000000 1.0
C      1  0.5515840000000  0.7228600000000  0.6015710000000 1.0
C      1  0.4811920000000  0.7331460000000  0.6430930000000 1.0
C      1  0.4121900000000  0.7148380000000  0.6028150000000 1.0
C      1  0.5894410000000  0.5522490000000  0.6309280000000 1.0
C      1  0.4941160000000  0.5602280000000  0.6589720000000 1.0
C      1  0.4052010000000  0.5479670000000  0.6259450000000 1.0
C      1  0.3459330000000  0.5741950000000  0.5445550000000 1.0
C      1  0.3520170000000  0.5509970000000  0.4440580000000 1.0
C      1  0.4106070000000  0.5522720000000  0.3690920000000 1.0
C      1  0.5058090000000  0.5603570000000  0.3410700000000 1.0
C      1  0.5947330000000  0.5480240000000  0.3740270000000 1.0
C      1  0.6540690000000  0.5741640000000  0.4554560000000 1.0
C      1  0.6479070000000  0.5509070000000  0.5559350000000 1.0
C      1  0.6513930000000  0.5197570000000  0.3009550000000 1.0
C      1  0.7432080000000  0.5231330000000  0.4309830000000 1.0
C      1  0.7355260000000  0.5229250000000  0.5859050000000 1.0
C      1  0.6404710000000  0.5131510000000  0.7061310000000 1.0
C      1  0.4929080000000  0.5273560000000  0.7525630000000 1.0
C      1  0.3486490000000  0.5197520000000  0.6989960000000 1.0
C      1  0.2568110000000  0.5231350000000  0.5689720000000 1.0
C      1  0.2644070000000  0.5228430000000  0.4140730000000 1.0
C      1  0.3595040000000  0.5131470000000  0.2938440000000 1.0
C      1  0.5071090000000  0.5274210000000  0.2474270000000 1.0
C      1  0.7378550000000  0.4838410000000  0.3413600000000 1.0
C      1  0.7733590000000  0.4749400000000  0.5086340000000 1.0
C      1  0.7203850000000  0.4724870000000  0.6685400000000 1.0
C      1  0.5741260000000  0.4740000000000  0.7657530000000 1.0
C      1  0.4101400000000  0.4765720000000  0.7622470000000 1.0
C      1  0.2621330000000  0.4838810000000  0.6586950000000 1.0
C      1  0.2266790000000  0.4748770000000  0.4913650000000 1.0
C      1  0.2795890000000  0.4724830000000  0.3314800000000 1.0
C      1  0.4258750000000  0.4739680000000  0.2341710000000 1.0
C      1  0.5898930000000  0.4766090000000  0.2377240000000 1.0
END
