TITL C-1525613-7943-3133 0.883763265880605 3375 -7666.2890468095 0 0 60 (C1) n - 1
REM
REM in /home/nfs/bkarasulu/CARBON/AIRSS/Generating-Clusters/ReaxFF-fromJPCA2015/Units_Real/Try2-Higher-symm/Only-C60
REM
REM
REM
REM
REM
REM ./C.cell (863b2abdce7293c0672fb3ba77bf323a)
REM AIRSS Version 0.9.1 bugfix July 2018 build 013d7b7c2542+ Fri, 06 Jul 2018 19:26:36 +0100
REM compiler GCC version 9.2.1 20190827 (Red Hat 9.2.1-1)
REM options -cpp -mtune=generic -march=x86-64 -g -O0 -fpre-include=/usr/include/finclude/math-vector-fortran.h
REM seed -1178156141 599195131 -1487682762 -99255926 -792047414 -703257657 280726497 2064651201 -1910852176 1234455372 323923895 1610318890 -261115353 528500267 697561692 -773041013 -410739431 1698397715 -1109778690 -1108038243 1208732084 1746466408 1149666811 1061027294 236107460 1987466439 -896156502 -408406151 1348364436 -334067094 437099097 -1099121318 -248492473
REM
CELL 1.54180   15.00000   15.00000   15.00000   90.00000   90.00000   90.00000
LATT -1
SFAC C  
C      1  0.5578920000000  0.5624030000000  0.7447910000000 1.0
C      1  0.4592150000000  0.5740740000000  0.7474820000000 1.0
C      1  0.4177590000000  0.4840750000000  0.7474990000000 1.0
C      1  0.4902530000000  0.4167990000000  0.7469060000000 1.0
C      1  0.5769630000000  0.4653290000000  0.7477280000000 1.0
C      1  0.4421270000000  0.5622280000000  0.2551310000000 1.0
C      1  0.5409510000000  0.5737760000000  0.2526800000000 1.0
C      1  0.5821330000000  0.4840100000000  0.2524300000000 1.0
C      1  0.5098630000000  0.4167410000000  0.2529460000000 1.0
C      1  0.4229400000000  0.4652900000000  0.2522340000000 1.0
C      1  0.3167380000000  0.6150970000000  0.5441330000000 1.0
C      1  0.3338700000000  0.3597470000000  0.5454940000000 1.0
C      1  0.5826170000000  0.2989980000000  0.5462740000000 1.0
C      1  0.7159050000000  0.5150950000000  0.5475570000000 1.0
C      1  0.5503410000000  0.7113910000000  0.5470300000000 1.0
C      1  0.6845960000000  0.6146070000000  0.4554110000000 1.0
C      1  0.6662290000000  0.3599410000000  0.4545270000000 1.0
C      1  0.4171780000000  0.2985970000000  0.4536970000000 1.0
C      1  0.2835200000000  0.5154550000000  0.4526330000000 1.0
C      1  0.4475910000000  0.7095350000000  0.4551570000000 1.0
C      1  0.4444810000000  0.7188180000000  0.5574370000000 1.0
C      1  0.2735780000000  0.5150890000000  0.5556360000000 1.0
C      1  0.4148210000000  0.2904600000000  0.5561060000000 1.0
C      1  0.6734640000000  0.3556940000000  0.5569860000000 1.0
C      1  0.6910880000000  0.6187270000000  0.5573810000000 1.0
C      1  0.5571640000000  0.7187300000000  0.4436900000000 1.0
C      1  0.7261180000000  0.5151280000000  0.4443770000000 1.0
C      1  0.5850730000000  0.2907690000000  0.4437880000000 1.0
C      1  0.3265390000000  0.3558000000000  0.4430510000000 1.0
C      1  0.3078770000000  0.6189800000000  0.4425380000000 1.0
C      1  0.3177540000000  0.4334730000000  0.3902620000000 1.0
C      1  0.5078350000000  0.3068830000000  0.3904740000000 1.0
C      1  0.6853100000000  0.4469950000000  0.3903520000000 1.0
C      1  0.6098780000000  0.6603790000000  0.3893690000000 1.0
C      1  0.3808170000000  0.6512510000000  0.3913380000000 1.0
C      1  0.6823140000000  0.4331230000000  0.6099930000000 1.0
C      1  0.4921550000000  0.3068110000000  0.6094200000000 1.0
C      1  0.3145870000000  0.4468940000000  0.6096580000000 1.0
C      1  0.3903620000000  0.6606410000000  0.6094670000000 1.0
C      1  0.6183350000000  0.6514100000000  0.6083340000000 1.0
C      1  0.4047000000000  0.4257870000000  0.5212050000000 1.0
C      1  0.5380260000000  0.3836330000000  0.5185660000000 1.0
C      1  0.6188830000000  0.5004140000000  0.5153480000000 1.0
C      1  0.5353180000000  0.6176460000000  0.5163830000000 1.0
C      1  0.4044320000000  0.5724460000000  0.5171230000000 1.0
C      1  0.5953250000000  0.4263710000000  0.4791480000000 1.0
C      1  0.4623760000000  0.3836820000000  0.4817670000000 1.0
C      1  0.3807910000000  0.4998400000000  0.4845770000000 1.0
C      1  0.4650750000000  0.6172110000000  0.4829210000000 1.0
C      1  0.5973400000000  0.5727100000000  0.4819830000000 1.0
C      1  0.4392120000000  0.5837900000000  0.3503310000000 1.0
C      1  0.4028750000000  0.4601860000000  0.3473580000000 1.0
C      1  0.5018810000000  0.3996960000000  0.3490510000000 1.0
C      1  0.5967910000000  0.4727820000000  0.3485590000000 1.0
C      1  0.5566000000000  0.5838230000000  0.3489700000000 1.0
C      1  0.5607060000000  0.5831160000000  0.6493630000000 1.0
C      1  0.5970720000000  0.4607330000000  0.6525460000000 1.0
C      1  0.4980790000000  0.3997400000000  0.6507150000000 1.0
C      1  0.4031730000000  0.4727630000000  0.6512270000000 1.0
C      1  0.4431150000000  0.5843850000000  0.6514610000000 1.0
END
