TITL C-1525613-7943-6914 0.000210879988113525 3375 -9250.43966029213 0 0 60 (C1) n - 1
REM
REM in /home/nfs/bkarasulu/CARBON/AIRSS/Generating-Clusters/ReaxFF-fromJPCA2015/Units_Real/Try2-Higher-symm/Only-C60
REM
REM
REM
REM
REM
REM ./C.cell (863b2abdce7293c0672fb3ba77bf323a)
REM AIRSS Version 0.9.1 bugfix July 2018 build 013d7b7c2542+ Fri, 06 Jul 2018 19:26:36 +0100
REM compiler GCC version 9.2.1 20190827 (Red Hat 9.2.1-1)
REM options -cpp -mtune=generic -march=x86-64 -g -O0 -fpre-include=/usr/include/finclude/math-vector-fortran.h
REM seed -1064426131 177683418 -705543342 -51621653 -689120369 -436211439 1549125684 -742113380 9992107 -1766609045 -351965023 442437949 1318209250 -481675115 681660659 -101205366 1037048288 1157437218 37963673 -608367635 -1576478361 -2144298385 -1042919160 -116861654 -1130461310 -1840347392 1514451668 -648369275 -459230834 1192090833 1011353405 1727458499 -216507993
REM
CELL 1.54180   15.00000   15.00000   15.00000   90.00000   90.00000   90.00000
LATT -1
SFAC C  
C      1  0.5044990000000  0.6711490000000  0.3191290000000 1.0
C      1  0.4102590000000  0.6474310000000  0.3206210000000 1.0
C      1  0.3622630000000  0.5572800000000  0.3290860000000 1.0
C      1  0.3964460000000  0.4731790000000  0.3180870000000 1.0
C      1  0.4082460000000  0.3845610000000  0.3252360000000 1.0
C      1  0.4945440000000  0.3289050000000  0.3201160000000 1.0
C      1  0.5885750000000  0.3529140000000  0.3214140000000 1.0
C      1  0.6362710000000  0.4428020000000  0.3310040000000 1.0
C      1  0.6011830000000  0.5261400000000  0.3190230000000 1.0
C      1  0.5905860000000  0.6146360000000  0.3257390000000 1.0
C      1  0.4839970000000  0.2524210000000  0.4757560000000 1.0
C      1  0.6377630000000  0.2806580000000  0.4747300000000 1.0
C      1  0.7329220000000  0.4172840000000  0.4772370000000 1.0
C      1  0.7661170000000  0.5655730000000  0.4913700000000 1.0
C      1  0.6754240000000  0.6833940000000  0.4664680000000 1.0
C      1  0.5166460000000  0.7481420000000  0.4751210000000 1.0
C      1  0.3618910000000  0.7189590000000  0.4746800000000 1.0
C      1  0.2674930000000  0.5813950000000  0.4769510000000 1.0
C      1  0.2342790000000  0.4332750000000  0.4919050000000 1.0
C      1  0.3248340000000  0.3156710000000  0.4672340000000 1.0
C      1  0.3541460000000  0.6716470000000  0.6684020000000 1.0
C      1  0.2958260000000  0.5968090000000  0.6666060000000 1.0
C      1  0.2922670000000  0.4257670000000  0.6719880000000 1.0
C      1  0.3463370000000  0.3434150000000  0.6715310000000 1.0
C      1  0.4757050000000  0.3148600000000  0.6487490000000 1.0
C      1  0.6430420000000  0.3266490000000  0.6672200000000 1.0
C      1  0.7029460000000  0.4009100000000  0.6667690000000 1.0
C      1  0.7087920000000  0.5718670000000  0.6736620000000 1.0
C      1  0.6530510000000  0.6546610000000  0.6760180000000 1.0
C      1  0.5253980000000  0.6908370000000  0.6530430000000 1.0
C      1  0.2914390000000  0.6653710000000  0.5144610000000 1.0
C      1  0.2473840000000  0.5115040000000  0.5390080000000 1.0
C      1  0.2582890000000  0.3504240000000  0.5298260000000 1.0
C      1  0.3990470000000  0.2763760000000  0.5116570000000 1.0
C      1  0.5622480000000  0.2652570000000  0.5305710000000 1.0
C      1  0.7084170000000  0.3331800000000  0.5146400000000 1.0
C      1  0.7527160000000  0.4872620000000  0.5393960000000 1.0
C      1  0.7427840000000  0.6486130000000  0.5273800000000 1.0
C      1  0.6029480000000  0.7269240000000  0.5102950000000 1.0
C      1  0.4377910000000  0.7348390000000  0.5299860000000 1.0
C      1  0.3911910000000  0.7239420000000  0.3801680000000 1.0
C      1  0.2882790000000  0.5392820000000  0.3929770000000 1.0
C      1  0.2699430000000  0.4457650000000  0.4054450000000 1.0
C      1  0.3302030000000  0.3718240000000  0.3870780000000 1.0
C      1  0.5118920000000  0.2533820000000  0.3805660000000 1.0
C      1  0.6082140000000  0.2764230000000  0.3807250000000 1.0
C      1  0.7119620000000  0.4593680000000  0.3934220000000 1.0
C      1  0.7297300000000  0.5528390000000  0.4053820000000 1.0
C      1  0.6694100000000  0.6265850000000  0.3864730000000 1.0
C      1  0.4875810000000  0.7466630000000  0.3795580000000 1.0
C      1  0.5591080000000  0.2976520000000  0.6247220000000 1.0
C      1  0.7156780000000  0.3292700000000  0.6097620000000 1.0
C      1  0.7168470000000  0.4870610000000  0.6278700000000 1.0
C      1  0.7364010000000  0.6496530000000  0.6248370000000 1.0
C      1  0.6010570000000  0.7103510000000  0.6117320000000 1.0
C      1  0.4392300000000  0.7028920000000  0.6265140000000 1.0
C      1  0.2829220000000  0.6686850000000  0.6095490000000 1.0
C      1  0.2833820000000  0.5105640000000  0.6274140000000 1.0
C      1  0.2673060000000  0.3502220000000  0.6248430000000 1.0
C      1  0.4048550000000  0.3046350000000  0.6088510000000 1.0
END
