TITL C-1525613-7943-145 -0.00193169647643479 3375 -8829.56720942186 0 0 60 (Cs) n - 1
REM
REM in /home/nfs/bkarasulu/CARBON/AIRSS/Generating-Clusters/ReaxFF-fromJPCA2015/Units_Real/Try2-Higher-symm/Only-C60
REM
REM
REM
REM
REM
REM ./C.cell (863b2abdce7293c0672fb3ba77bf323a)
REM AIRSS Version 0.9.1 bugfix July 2018 build 013d7b7c2542+ Fri, 06 Jul 2018 19:26:36 +0100
REM compiler GCC version 9.2.1 20190827 (Red Hat 9.2.1-1)
REM options -cpp -mtune=generic -march=x86-64 -g -O0 -fpre-include=/usr/include/finclude/math-vector-fortran.h
REM seed -1567706842 -1415848025 744413911 1667908271 -1423063273 -619207553 1377471881 -745744309 -1387498606 -1632136791 -265287622 1110258567 1246363973 -1589450052 689029360 -1463215816 1005710341 910677130 -244538953 1195331264 569412775 1675246023 1556933808 -58702850 177030023 -2005747282 738335567 1565334785 1260737771 -189966566 -1983795492 -1428126536 59409655
REM
CELL 1.54180   15.00000   15.00000   15.00000   90.00000   90.00000   90.00000
LATT -1
SFAC C  
C      1  0.2564220000000  0.6381530000000  0.4236400000000 1.0
C      1  0.2213080000000  0.4878570000000  0.3849590000000 1.0
C      1  0.2442460000000  0.3430120000000  0.4625530000000 1.0
C      1  0.2609270000000  0.4185020000000  0.6273540000000 1.0
C      1  0.2248740000000  0.5727920000000  0.5771780000000 1.0
C      1  0.7428870000000  0.6380400000000  0.4236770000000 1.0
C      1  0.7783130000000  0.4880190000000  0.3849560000000 1.0
C      1  0.7562220000000  0.3430680000000  0.4625410000000 1.0
C      1  0.7400560000000  0.4182500000000  0.6274170000000 1.0
C      1  0.7750400000000  0.5727100000000  0.5770540000000 1.0
C      1  0.6664550000000  0.3121290000000  0.4298180000000 1.0
C      1  0.6736300000000  0.3611610000000  0.6758790000000 1.0
C      1  0.6765090000000  0.5787760000000  0.6721980000000 1.0
C      1  0.6717560000000  0.7012210000000  0.4363490000000 1.0
C      1  0.6721560000000  0.5471580000000  0.2955290000000 1.0
C      1  0.3336950000000  0.3119660000000  0.4290850000000 1.0
C      1  0.3264250000000  0.3610140000000  0.6761980000000 1.0
C      1  0.3232540000000  0.5798880000000  0.6723570000000 1.0
C      1  0.3283950000000  0.7008280000000  0.4357010000000 1.0
C      1  0.3280680000000  0.5477230000000  0.2959450000000 1.0
C      1  0.7488190000000  0.5184860000000  0.6470920000000 1.0
C      1  0.7663340000000  0.6044340000000  0.5056780000000 1.0
C      1  0.7450240000000  0.5680700000000  0.3536430000000 1.0
C      1  0.7954230000000  0.4199060000000  0.4175250000000 1.0
C      1  0.7582250000000  0.3899180000000  0.5426230000000 1.0
C      1  0.2516610000000  0.5187680000000  0.6470720000000 1.0
C      1  0.2331540000000  0.6045480000000  0.5057300000000 1.0
C      1  0.2543890000000  0.5680180000000  0.3535920000000 1.0
C      1  0.2046320000000  0.4196970000000  0.4176470000000 1.0
C      1  0.2426470000000  0.3899800000000  0.5425880000000 1.0
C      1  0.5910760000000  0.3860180000000  0.7109130000000 1.0
C      1  0.5951390000000  0.6095030000000  0.6290520000000 1.0
C      1  0.5899910000000  0.7105650000000  0.3974700000000 1.0
C      1  0.5954040000000  0.4933600000000  0.3038360000000 1.0
C      1  0.5862540000000  0.3038700000000  0.4751050000000 1.0
C      1  0.4079010000000  0.3844510000000  0.7119000000000 1.0
C      1  0.4047550000000  0.6110850000000  0.6295480000000 1.0
C      1  0.4101920000000  0.7088130000000  0.3961770000000 1.0
C      1  0.4050630000000  0.4941440000000  0.3043680000000 1.0
C      1  0.4138210000000  0.3031820000000  0.4737610000000 1.0
C      1  0.5477730000000  0.4695790000000  0.7121380000000 1.0
C      1  0.5480900000000  0.6445810000000  0.5546590000000 1.0
C      1  0.5470660000000  0.6560780000000  0.3307340000000 1.0
C      1  0.5478490000000  0.4321270000000  0.3604420000000 1.0
C      1  0.5475280000000  0.3205020000000  0.5601050000000 1.0
C      1  0.4526070000000  0.4698180000000  0.7128920000000 1.0
C      1  0.4520010000000  0.6446990000000  0.5545620000000 1.0
C      1  0.4520810000000  0.6554140000000  0.3314420000000 1.0
C      1  0.4524120000000  0.4322050000000  0.3603950000000 1.0
C      1  0.4526540000000  0.3202630000000  0.5600800000000 1.0
C      1  0.5942570000000  0.3235670000000  0.6426090000000 1.0
C      1  0.5906400000000  0.5520810000000  0.7009240000000 1.0
C      1  0.5947330000000  0.6983220000000  0.4897080000000 1.0
C      1  0.5899100000000  0.5841670000000  0.2832320000000 1.0
C      1  0.5898190000000  0.3538020000000  0.3961580000000 1.0
C      1  0.4047660000000  0.3225060000000  0.6436870000000 1.0
C      1  0.4089950000000  0.5543440000000  0.7014920000000 1.0
C      1  0.4056690000000  0.6978160000000  0.4888800000000 1.0
C      1  0.4102980000000  0.5855290000000  0.2848970000000 1.0
C      1  0.4103080000000  0.3535130000000  0.3952560000000 1.0
END
