TITL C-1525613-7943-1915 0.00611310174375233 3375 -8961.05396202039 0 0 60 (C5) n - 1
REM
REM in /home/nfs/bkarasulu/CARBON/AIRSS/Generating-Clusters/ReaxFF-fromJPCA2015/Units_Real/Try2-Higher-symm/Only-C60
REM
REM
REM
REM
REM
REM ./C.cell (863b2abdce7293c0672fb3ba77bf323a)
REM AIRSS Version 0.9.1 bugfix July 2018 build 013d7b7c2542+ Fri, 06 Jul 2018 19:26:36 +0100
REM compiler GCC version 9.2.1 20190827 (Red Hat 9.2.1-1)
REM options -cpp -mtune=generic -march=x86-64 -g -O0 -fpre-include=/usr/include/finclude/math-vector-fortran.h
REM seed -71126034 252496763 1155313595 2055362943 -1882806627 -1339063225 614619195 -844336751 -916345609 1542985217 4832493 -1308949916 -1938598839 365970335 524807332 -1030075573 -1237019589 -1448113169 -2012953817 -1953604497 1316201198 -1454482545 1960780376 1584978304 2131883814 -524157061 -538424077 -992238883 -915012457 736584824 1817553772 1491148523 -1405206275
REM
CELL 1.54180   15.00000   15.00000   15.00000   90.00000   90.00000   90.00000
LATT -1
SFAC C  
C      1  0.5496780000000  0.5886530000000  0.4369710000000 1.0
C      1  0.5752050000000  0.5887870000000  0.5277830000000 1.0
C      1  0.4968460000000  0.5888330000000  0.5802880000000 1.0
C      1  0.4227760000000  0.5887760000000  0.5218850000000 1.0
C      1  0.4553960000000  0.5886640000000  0.4333540000000 1.0
C      1  0.5496660000000  0.4113200000000  0.4369670000000 1.0
C      1  0.5752050000000  0.4111870000000  0.5277780000000 1.0
C      1  0.4968510000000  0.4111390000000  0.5802910000000 1.0
C      1  0.4227740000000  0.4111950000000  0.5218950000000 1.0
C      1  0.4553840000000  0.4113070000000  0.4333610000000 1.0
C      1  0.6292560000000  0.6636160000000  0.5640740000000 1.0
C      1  0.4788530000000  0.6637030000000  0.6428080000000 1.0
C      1  0.3577640000000  0.6636420000000  0.5241090000000 1.0
C      1  0.4331990000000  0.6635690000000  0.3722680000000 1.0
C      1  0.6008830000000  0.6635520000000  0.3969360000000 1.0
C      1  0.6292750000000  0.3363790000000  0.5640750000000 1.0
C      1  0.4788540000000  0.3362880000000  0.6428330000000 1.0
C      1  0.3577420000000  0.3363480000000  0.5241220000000 1.0
C      1  0.4331800000000  0.3364240000000  0.3722550000000 1.0
C      1  0.6008870000000  0.3364400000000  0.3969150000000 1.0
C      1  0.4670500000000  0.7407910000000  0.4233840000000 1.0
C      1  0.5627640000000  0.7407630000000  0.4449890000000 1.0
C      1  0.5717320000000  0.7407970000000  0.5426990000000 1.0
C      1  0.4815850000000  0.7408460000000  0.5814750000000 1.0
C      1  0.4168770000000  0.7408360000000  0.5077130000000 1.0
C      1  0.4670400000000  0.2592190000000  0.4233910000000 1.0
C      1  0.5627560000000  0.2592460000000  0.4449870000000 1.0
C      1  0.5717340000000  0.2592140000000  0.5426960000000 1.0
C      1  0.4815900000000  0.2591610000000  0.5814810000000 1.0
C      1  0.4168740000000  0.2591730000000  0.5077250000000 1.0
C      1  0.5049950000000  0.5488130000000  0.7239420000000 1.0
C      1  0.2884740000000  0.5488230000000  0.5740220000000 1.0
C      1  0.3642480000000  0.5488210000000  0.3217230000000 1.0
C      1  0.6276150000000  0.5488240000000  0.3156690000000 1.0
C      1  0.7147260000000  0.5488220000000  0.5643090000000 1.0
C      1  0.5049950000000  0.4511960000000  0.7239400000000 1.0
C      1  0.2884750000000  0.4511870000000  0.5740200000000 1.0
C      1  0.3642500000000  0.4511880000000  0.3217220000000 1.0
C      1  0.6276150000000  0.4511840000000  0.3156720000000 1.0
C      1  0.7147280000000  0.4511890000000  0.5643090000000 1.0
C      1  0.4454840000000  0.3985870000000  0.2975980000000 1.0
C      1  0.6756820000000  0.3985970000000  0.3854790000000 1.0
C      1  0.6632130000000  0.3986170000000  0.6316310000000 1.0
C      1  0.4250470000000  0.3985580000000  0.6959230000000 1.0
C      1  0.2906080000000  0.3985700000000  0.4893170000000 1.0
C      1  0.4454830000000  0.6014210000000  0.2975950000000 1.0
C      1  0.6756860000000  0.6014100000000  0.3854770000000 1.0
C      1  0.6632130000000  0.6013920000000  0.6316330000000 1.0
C      1  0.4250470000000  0.6014510000000  0.6959200000000 1.0
C      1  0.2906090000000  0.6014380000000  0.4893170000000 1.0
C      1  0.6026500000000  0.4519750000000  0.6912940000000 1.0
C      1  0.3495640000000  0.4519520000000  0.6568560000000 1.0
C      1  0.3043960000000  0.4519540000000  0.4054420000000 1.0
C      1  0.5295060000000  0.4519530000000  0.2846460000000 1.0
C      1  0.7139480000000  0.4519570000000  0.4613980000000 1.0
C      1  0.6026510000000  0.5480350000000  0.6912970000000 1.0
C      1  0.3495610000000  0.5480560000000  0.6568580000000 1.0
C      1  0.3043930000000  0.5480540000000  0.4054390000000 1.0
C      1  0.5295070000000  0.5480580000000  0.2846450000000 1.0
C      1  0.7139530000000  0.5480520000000  0.4613980000000 1.0
END
