TITL C-1525613-7943-3990 0.139815824070229 3375 -8424.01686267099 0 0 60 (S10) n - 1
REM
REM in /home/nfs/bkarasulu/CARBON/AIRSS/Generating-Clusters/ReaxFF-fromJPCA2015/Units_Real/Try2-Higher-symm/Only-C60
REM
REM
REM
REM
REM
REM ./C.cell (863b2abdce7293c0672fb3ba77bf323a)
REM AIRSS Version 0.9.1 bugfix July 2018 build 013d7b7c2542+ Fri, 06 Jul 2018 19:26:36 +0100
REM compiler GCC version 9.2.1 20190827 (Red Hat 9.2.1-1)
REM options -cpp -mtune=generic -march=x86-64 -g -O0 -fpre-include=/usr/include/finclude/math-vector-fortran.h
REM seed 1970569473 1696662653 -487839120 -1552792685 -666075008 1008451820 -506248319 -747466464 827309658 1882718349 1244550467 524288767 1351586374 -1464080649 419616103 133990557 1141305068 -630618305 -372596087 -1743909488 23672517 -156096778 1334106801 -1874611777 1899367322 -271194411 651573173 -1523350221 -753716274 -931126318 -29518261 1391046594 1817318931
REM
CELL 1.54180   15.00000   15.00000   15.00000   90.00000   90.00000   90.00000
LATT -1
SFAC C  
C      1  0.3830700000000  0.6289160000000  0.3651260000000 1.0
C      1  0.3254890000000  0.3717320000000  0.4581980000000 1.0
C      1  0.3340270000000  0.6280180000000  0.5688620000000 1.0
C      1  0.4101860000000  0.3735380000000  0.6539020000000 1.0
C      1  0.5171830000000  0.6289910000000  0.6798440000000 1.0
C      1  0.6169300000000  0.3710840000000  0.6348740000000 1.0
C      1  0.6745110000000  0.6282680000000  0.5418020000000 1.0
C      1  0.6659730000000  0.3719820000000  0.4311380000000 1.0
C      1  0.5898140000000  0.6264620000000  0.3460980000000 1.0
C      1  0.4828170000000  0.3710090000000  0.3201560000000 1.0
C      1  0.5461010000000  0.6572830000000  0.4313110000000 1.0
C      1  0.4966450000000  0.3421330000000  0.4153530000000 1.0
C      1  0.4484830000000  0.6583490000000  0.4356850000000 1.0
C      1  0.4200230000000  0.3423580000000  0.4765880000000 1.0
C      1  0.4219030000000  0.6577810000000  0.5299780000000 1.0
C      1  0.4538990000000  0.3427170000000  0.5686890000000 1.0
C      1  0.5033550000000  0.6578670000000  0.5846470000000 1.0
C      1  0.5515170000000  0.3416510000000  0.5643150000000 1.0
C      1  0.5799770000000  0.6576420000000  0.5234120000000 1.0
C      1  0.5780970000000  0.3422190000000  0.4700220000000 1.0
C      1  0.5889880000000  0.5249000000000  0.7417690000000 1.0
C      1  0.7119500000000  0.4739500000000  0.6453930000000 1.0
C      1  0.7571260000000  0.5256270000000  0.4931300000000 1.0
C      1  0.7023430000000  0.4750670000000  0.3429120000000 1.0
C      1  0.5687110000000  0.5238200000000  0.2524410000000 1.0
C      1  0.4110120000000  0.4751000000000  0.2582310000000 1.0
C      1  0.2880500000000  0.5260500000000  0.3546070000000 1.0
C      1  0.2428740000000  0.4743730000000  0.5068700000000 1.0
C      1  0.2976570000000  0.5249330000000  0.6570880000000 1.0
C      1  0.4312890000000  0.4761800000000  0.7475590000000 1.0
C      1  0.6969480000000  0.5928920000000  0.4540720000000 1.0
C      1  0.6304820000000  0.4081780000000  0.3482360000000 1.0
C      1  0.5128290000000  0.5898570000000  0.2991530000000 1.0
C      1  0.3934680000000  0.4084530000000  0.3281930000000 1.0
C      1  0.3140890000000  0.5919040000000  0.4226600000000 1.0
C      1  0.3030520000000  0.4071080000000  0.5459280000000 1.0
C      1  0.3695180000000  0.5918220000000  0.6517640000000 1.0
C      1  0.4871710000000  0.4101430000000  0.7008470000000 1.0
C      1  0.6065320000000  0.5915470000000  0.6718070000000 1.0
C      1  0.6859110000000  0.4080960000000  0.5773400000000 1.0
C      1  0.3751220000000  0.5235880000000  0.4644790000000 1.0
C      1  0.3784200000000  0.4742740000000  0.5434510000000 1.0
C      1  0.4278480000000  0.5239490000000  0.6054410000000 1.0
C      1  0.5052270000000  0.4767550000000  0.6282000000000 1.0
C      1  0.5798020000000  0.5258120000000  0.6005970000000 1.0
C      1  0.6248780000000  0.4764120000000  0.5355210000000 1.0
C      1  0.6215800000000  0.5257260000000  0.4565490000000 1.0
C      1  0.5721520000000  0.4760510000000  0.3945590000000 1.0
C      1  0.4947730000000  0.5232450000000  0.3718000000000 1.0
C      1  0.4201980000000  0.4741880000000  0.3994030000000 1.0
C      1  0.7332950000000  0.4475290000000  0.4327310000000 1.0
C      1  0.6458650000000  0.5517290000000  0.3078050000000 1.0
C      1  0.5053510000000  0.4452070000000  0.2552110000000 1.0
C      1  0.3642120000000  0.5548800000000  0.2987710000000 1.0
C      1  0.2727190000000  0.4472920000000  0.4166990000000 1.0
C      1  0.2667050000000  0.5524710000000  0.5672690000000 1.0
C      1  0.3541350000000  0.4482710000000  0.6921950000000 1.0
C      1  0.4946490000000  0.5547930000000  0.7447890000000 1.0
C      1  0.6357880000000  0.4451200000000  0.7012290000000 1.0
C      1  0.7272810000000  0.5527080000000  0.5833010000000 1.0
END
