TITL C-1525613-7943-3690 0.0515120308850315 3375 -8544.47777580481 0 0 60 (C1) n - 1
REM
REM in /home/nfs/bkarasulu/CARBON/AIRSS/Generating-Clusters/ReaxFF-fromJPCA2015/Units_Real/Try2-Higher-symm/Only-C60
REM
REM
REM
REM
REM
REM ./C.cell (863b2abdce7293c0672fb3ba77bf323a)
REM AIRSS Version 0.9.1 bugfix July 2018 build 013d7b7c2542+ Fri, 06 Jul 2018 19:26:36 +0100
REM compiler GCC version 9.2.1 20190827 (Red Hat 9.2.1-1)
REM options -cpp -mtune=generic -march=x86-64 -g -O0 -fpre-include=/usr/include/finclude/math-vector-fortran.h
REM seed -1730059798 338916282 -1055440867 -1949837897 488596766 284129679 226190332 427967688 -308157966 675364820 235534299 -1289468165 1654744435 1500683148 -948268463 819490199 -1596631354 -1416669940 655428987 844929834 -123954657 -372451984 648050231 -1732232090 1794958474 1676202909 1845921346 -976651792 210115137 -1198858461 -774584010 -1577066852 1705491556
REM
CELL 1.54180   15.00000   15.00000   15.00000   90.00000   90.00000   90.00000
LATT -1
SFAC C  
C      1  0.5545640000000  0.3942820000000  0.2611240000000 1.0
C      1  0.6433890000000  0.4129680000000  0.2866490000000 1.0
C      1  0.6383550000000  0.5037770000000  0.2558240000000 1.0
C      1  0.5952850000000  0.5812900000000  0.2581120000000 1.0
C      1  0.5368120000000  0.6459090000000  0.2913700000000 1.0
C      1  0.4643820000000  0.6105770000000  0.2445840000000 1.0
C      1  0.3742310000000  0.5855880000000  0.2578600000000 1.0
C      1  0.3915950000000  0.4968940000000  0.2302150000000 1.0
C      1  0.4235210000000  0.4184730000000  0.2411540000000 1.0
C      1  0.4748880000000  0.3558980000000  0.2883580000000 1.0
C      1  0.2265060000000  0.6179110000000  0.5791340000000 1.0
C      1  0.3280790000000  0.4967130000000  0.5447670000000 1.0
C      1  0.2911450000000  0.2951290000000  0.5890380000000 1.0
C      1  0.4510850000000  0.2793150000000  0.5466160000000 1.0
C      1  0.6043400000000  0.2329660000000  0.5593520000000 1.0
C      1  0.7355330000000  0.3923590000000  0.5325020000000 1.0
C      1  0.6893250000000  0.5228840000000  0.5421340000000 1.0
C      1  0.6973440000000  0.7081550000000  0.5814790000000 1.0
C      1  0.5347450000000  0.7221240000000  0.5520000000000 1.0
C      1  0.3755670000000  0.7730580000000  0.5193350000000 1.0
C      1  0.2861450000000  0.5189030000000  0.4632380000000 1.0
C      1  0.2190610000000  0.2615640000000  0.5855000000000 1.0
C      1  0.4434400000000  0.2662740000000  0.4530320000000 1.0
C      1  0.5995410000000  0.2695870000000  0.4797030000000 1.0
C      1  0.7404090000000  0.3696720000000  0.4435540000000 1.0
C      1  0.7238870000000  0.5270510000000  0.4478020000000 1.0
C      1  0.7680790000000  0.7426640000000  0.5692980000000 1.0
C      1  0.5475800000000  0.7295650000000  0.4581610000000 1.0
C      1  0.3868350000000  0.7179450000000  0.4571230000000 1.0
C      1  0.2240940000000  0.6018630000000  0.4858680000000 1.0
C      1  0.5430400000000  0.2978470000000  0.6026910000000 1.0
C      1  0.6070720000000  0.3694040000000  0.5719660000000 1.0
C      1  0.6780030000000  0.4317290000000  0.6015630000000 1.0
C      1  0.6119590000000  0.5804310000000  0.5309560000000 1.0
C      1  0.6089750000000  0.6648200000000  0.5958930000000 1.0
C      1  0.4341580000000  0.7295510000000  0.5870380000000 1.0
C      1  0.3808360000000  0.6555010000000  0.6011210000000 1.0
C      1  0.3247270000000  0.5790620000000  0.6156710000000 1.0
C      1  0.3885250000000  0.4248690000000  0.5285040000000 1.0
C      1  0.3822250000000  0.3374350000000  0.5931750000000 1.0
C      1  0.5801070000000  0.5693800000000  0.4426830000000 1.0
C      1  0.5243230000000  0.6459230000000  0.3988090000000 1.0
C      1  0.4190710000000  0.6467840000000  0.4065170000000 1.0
C      1  0.3637190000000  0.5818500000000  0.3586730000000 1.0
C      1  0.3521850000000  0.4917610000000  0.3965180000000 1.0
C      1  0.4140260000000  0.4265850000000  0.4383600000000 1.0
C      1  0.4741600000000  0.3511820000000  0.3965770000000 1.0
C      1  0.5742890000000  0.3395000000000  0.4196890000000 1.0
C      1  0.6478330000000  0.3998380000000  0.3913900000000 1.0
C      1  0.6402290000000  0.5073430000000  0.3940690000000 1.0
C      1  0.4207230000000  0.3686280000000  0.6901010000000 1.0
C      1  0.5132730000000  0.3404990000000  0.7001660000000 1.0
C      1  0.5788990000000  0.3984230000000  0.7202240000000 1.0
C      1  0.6503940000000  0.4551420000000  0.7092070000000 1.0
C      1  0.6275610000000  0.5440280000000  0.7145250000000 1.0
C      1  0.5964000000000  0.6285350000000  0.6991270000000 1.0
C      1  0.5113380000000  0.6128020000000  0.7329100000000 1.0
C      1  0.4331580000000  0.5809430000000  0.7365250000000 1.0
C      1  0.3563440000000  0.5360610000000  0.7120510000000 1.0
C      1  0.3926850000000  0.4527880000000  0.7084150000000 1.0
END
