TITL C-1525613-7943-7732 0.118212380371141 3375 -8147.71278131347 0 0 60 (C5) n - 1
REM
REM in /home/nfs/bkarasulu/CARBON/AIRSS/Generating-Clusters/ReaxFF-fromJPCA2015/Units_Real/Try2-Higher-symm/Only-C60
REM
REM
REM
REM
REM
REM ./C.cell (863b2abdce7293c0672fb3ba77bf323a)
REM AIRSS Version 0.9.1 bugfix July 2018 build 013d7b7c2542+ Fri, 06 Jul 2018 19:26:36 +0100
REM compiler GCC version 9.2.1 20190827 (Red Hat 9.2.1-1)
REM options -cpp -mtune=generic -march=x86-64 -g -O0 -fpre-include=/usr/include/finclude/math-vector-fortran.h
REM seed 601450275 1268179727 843039309 1188938305 -960744784 -1673409574 -902760994 248925122 1125735411 -2063606720 1438139205 -310860163 -1221481979 -880448864 -609744520 71793634 1592219613 568201712 -1372254601 969185615 1590696615 -1360232256 749524620 -1804400832 -1140856843 -212054644 -438871581 891869809 312098601 -1570173192 326742366 -1917172042 865466409
REM
CELL 1.54180   15.00000   15.00000   15.00000   90.00000   90.00000   90.00000
LATT -1
SFAC C  
C      1  0.4502970000000  0.2807540000000  0.4356360000000 1.0
C      1  0.4233590000000  0.2807550000000  0.5272540000000 1.0
C      1  0.5023360000000  0.2806950000000  0.5812200000000 1.0
C      1  0.5781260000000  0.2807650000000  0.5228300000000 1.0
C      1  0.5458720000000  0.2807600000000  0.4329200000000 1.0
C      1  0.4502970000000  0.7192460000000  0.4356360000000 1.0
C      1  0.4233590000000  0.7192450000000  0.5272540000000 1.0
C      1  0.5023360000000  0.7193050000000  0.5812200000000 1.0
C      1  0.5781260000000  0.7192350000000  0.5228300000000 1.0
C      1  0.5458720000000  0.7192400000000  0.4329200000000 1.0
C      1  0.4245230000000  0.4487250000000  0.4545250000000 1.0
C      1  0.4334310000000  0.4487410000000  0.5577400000000 1.0
C      1  0.5343310000000  0.4487370000000  0.5811670000000 1.0
C      1  0.5877880000000  0.4487250000000  0.4924090000000 1.0
C      1  0.5199090000000  0.4487510000000  0.4141480000000 1.0
C      1  0.4245230000000  0.5512750000000  0.4545250000000 1.0
C      1  0.4334310000000  0.5512590000000  0.5577400000000 1.0
C      1  0.5343310000000  0.5512630000000  0.5811670000000 1.0
C      1  0.5877880000000  0.5512750000000  0.4924090000000 1.0
C      1  0.5199090000000  0.5512490000000  0.4141480000000 1.0
C      1  0.4850770000000  0.3836950000000  0.7269280000000 1.0
C      1  0.7112380000000  0.3837230000000  0.5843510000000 1.0
C      1  0.6454290000000  0.3836800000000  0.3251930000000 1.0
C      1  0.3786720000000  0.3837440000000  0.3075990000000 1.0
C      1  0.2795530000000  0.3836930000000  0.5559180000000 1.0
C      1  0.4850770000000  0.6163050000000  0.7269280000000 1.0
C      1  0.7112380000000  0.6162770000000  0.5843510000000 1.0
C      1  0.6454290000000  0.6163200000000  0.3251930000000 1.0
C      1  0.3786720000000  0.6162560000000  0.3075990000000 1.0
C      1  0.2795530000000  0.6163070000000  0.5559180000000 1.0
C      1  0.5652140000000  0.3974760000000  0.6762930000000 1.0
C      1  0.6878720000000  0.3974630000000  0.4924600000000 1.0
C      1  0.5508880000000  0.3975130000000  0.3190310000000 1.0
C      1  0.3436120000000  0.3974400000000  0.3956820000000 1.0
C      1  0.3524670000000  0.3974850000000  0.6165100000000 1.0
C      1  0.5652140000000  0.6025240000000  0.6762930000000 1.0
C      1  0.6878720000000  0.6025370000000  0.4924600000000 1.0
C      1  0.5508880000000  0.6024870000000  0.3190310000000 1.0
C      1  0.3436120000000  0.6025600000000  0.3956820000000 1.0
C      1  0.3524670000000  0.6025150000000  0.6165100000000 1.0
C      1  0.5382080000000  0.5473600000000  0.7560930000000 1.0
C      1  0.7552940000000  0.5472700000000  0.5427590000000 1.0
C      1  0.6195780000000  0.5472760000000  0.2704250000000 1.0
C      1  0.3186100000000  0.5472950000000  0.3153590000000 1.0
C      1  0.2683280000000  0.5472820000000  0.6154650000000 1.0
C      1  0.5382080000000  0.4526400000000  0.7560930000000 1.0
C      1  0.7552940000000  0.4527300000000  0.5427590000000 1.0
C      1  0.6195780000000  0.4527240000000  0.2704250000000 1.0
C      1  0.3186100000000  0.4527050000000  0.3153590000000 1.0
C      1  0.2683280000000  0.4527180000000  0.6154650000000 1.0
C      1  0.3910320000000  0.3151670000000  0.3681810000000 1.0
C      1  0.3409690000000  0.3151410000000  0.5628930000000 1.0
C      1  0.5106950000000  0.3151880000000  0.6707450000000 1.0
C      1  0.6656370000000  0.3151380000000  0.5425860000000 1.0
C      1  0.5916560000000  0.3151760000000  0.3556810000000 1.0
C      1  0.3910320000000  0.6848330000000  0.3681810000000 1.0
C      1  0.3409690000000  0.6848590000000  0.5628930000000 1.0
C      1  0.5106950000000  0.6848120000000  0.6707450000000 1.0
C      1  0.6656370000000  0.6848620000000  0.5425860000000 1.0
C      1  0.5916560000000  0.6848240000000  0.3556810000000 1.0
END
