TITL C-1525613-7943-2533 0.147794087308675 3375 -8612.86186419435 0 0 60 (C1) n - 1
REM
REM in /home/nfs/bkarasulu/CARBON/AIRSS/Generating-Clusters/ReaxFF-fromJPCA2015/Units_Real/Try2-Higher-symm/Only-C60
REM
REM
REM
REM
REM
REM ./C.cell (863b2abdce7293c0672fb3ba77bf323a)
REM AIRSS Version 0.9.1 bugfix July 2018 build 013d7b7c2542+ Fri, 06 Jul 2018 19:26:36 +0100
REM compiler GCC version 9.2.1 20190827 (Red Hat 9.2.1-1)
REM options -cpp -mtune=generic -march=x86-64 -g -O0 -fpre-include=/usr/include/finclude/math-vector-fortran.h
REM seed 1147437636 1255017883 1528856722 593971713 102338809 659342142 -1925945467 -302559494 -286335169 1399896837 -1674349810 -210276043 -1770934108 1844220527 1052329903 -310314372 -349746548 438542255 1260125825 358636980 519776272 2012773454 90479311 -1962043006 1138006177 -1786489572 -257346522 -606005616 -1850927313 -1450622900 981129361 -467190312 1845406494
REM
CELL 1.54180   15.00000   15.00000   15.00000   90.00000   90.00000   90.00000
LATT -1
SFAC C  
C      1  0.5588190000000  0.4828970000000  0.5661510000000 1.0
C      1  0.4406320000000  0.4521280000000  0.5346700000000 1.0
C      1  0.5939190000000  0.4017340000000  0.5170090000000 1.0
C      1  0.4003040000000  0.4120410000000  0.4528820000000 1.0
C      1  0.6118130000000  0.4431860000000  0.4126620000000 1.0
C      1  0.3743540000000  0.5075050000000  0.3930430000000 1.0
C      1  0.5926460000000  0.5538890000000  0.4172500000000 1.0
C      1  0.3898420000000  0.5978540000000  0.4596230000000 1.0
C      1  0.5533470000000  0.5663130000000  0.5117040000000 1.0
C      1  0.4401500000000  0.5522970000000  0.5341510000000 1.0
C      1  0.6423890000000  0.5971930000000  0.5482770000000 1.0
C      1  0.3583700000000  0.5520440000000  0.5947340000000 1.0
C      1  0.6464720000000  0.5000520000000  0.6107490000000 1.0
C      1  0.3578470000000  0.4369780000000  0.5881320000000 1.0
C      1  0.6838180000000  0.4343280000000  0.5446640000000 1.0
C      1  0.3127330000000  0.4185740000000  0.5000890000000 1.0
C      1  0.6970990000000  0.4702150000000  0.4552710000000 1.0
C      1  0.2928300000000  0.4997600000000  0.4499450000000 1.0
C      1  0.6807970000000  0.5657740000000  0.4614650000000 1.0
C      1  0.3085270000000  0.5744250000000  0.5111220000000 1.0
C      1  0.3927080000000  0.3680660000000  0.6627160000000 1.0
C      1  0.5911390000000  0.3002980000000  0.5509240000000 1.0
C      1  0.4080080000000  0.3106720000000  0.4223020000000 1.0
C      1  0.5982070000000  0.3882330000000  0.3278000000000 1.0
C      1  0.4013160000000  0.5129940000000  0.2950040000000 1.0
C      1  0.5954000000000  0.6264180000000  0.3399620000000 1.0
C      1  0.4073070000000  0.7020230000000  0.4427740000000 1.0
C      1  0.6113260000000  0.6945290000000  0.5771860000000 1.0
C      1  0.3949150000000  0.6130600000000  0.6749940000000 1.0
C      1  0.6071740000000  0.4873040000000  0.7106550000000 1.0
C      1  0.4542460000000  0.7234300000000  0.3600680000000 1.0
C      1  0.5602160000000  0.7538440000000  0.5189590000000 1.0
C      1  0.4497120000000  0.6923620000000  0.6608970000000 1.0
C      1  0.5539810000000  0.5605000000000  0.7463120000000 1.0
C      1  0.4466080000000  0.4044990000000  0.7352230000000 1.0
C      1  0.5484400000000  0.2832980000000  0.6368960000000 1.0
C      1  0.4460780000000  0.2428320000000  0.4814390000000 1.0
C      1  0.5550230000000  0.2996190000000  0.3315080000000 1.0
C      1  0.4485340000000  0.4398150000000  0.2478390000000 1.0
C      1  0.5539550000000  0.5966830000000  0.2565710000000 1.0
C      1  0.5931550000000  0.7212780000000  0.4417600000000 1.0
C      1  0.4147270000000  0.7123540000000  0.5805380000000 1.0
C      1  0.5923940000000  0.6236640000000  0.6943170000000 1.0
C      1  0.4110990000000  0.4874320000000  0.7300130000000 1.0
C      1  0.5879370000000  0.3540330000000  0.6784220000000 1.0
C      1  0.4124090000000  0.2786640000000  0.5580460000000 1.0
C      1  0.5855450000000  0.2786830000000  0.4144190000000 1.0
C      1  0.4170980000000  0.3732340000000  0.3001050000000 1.0
C      1  0.5880210000000  0.5119590000000  0.2637080000000 1.0
C      1  0.4200960000000  0.6514740000000  0.3155460000000 1.0
C      1  0.5558870000000  0.6976380000000  0.6574350000000 1.0
C      1  0.4481440000000  0.5686800000000  0.7434640000000 1.0
C      1  0.5529130000000  0.4115660000000  0.7382520000000 1.0
C      1  0.4427730000000  0.2870580000000  0.6426700000000 1.0
C      1  0.5508450000000  0.2376300000000  0.4882730000000 1.0
C      1  0.4504040000000  0.2959280000000  0.3355790000000 1.0
C      1  0.5530150000000  0.4294490000000  0.2500840000000 1.0
C      1  0.4491760000000  0.5902850000000  0.2557450000000 1.0
C      1  0.5589600000000  0.7154150000000  0.3574510000000 1.0
C      1  0.4544030000000  0.7539130000000  0.5105540000000 1.0
END
