TITL C-1525613-7943-5178 -0.00504310746210989 3375 -8674.46771715542 0 0 60 (Cs) n - 1
REM
REM in /home/nfs/bkarasulu/CARBON/AIRSS/Generating-Clusters/ReaxFF-fromJPCA2015/Units_Real/Try2-Higher-symm/Only-C60
REM
REM
REM
REM
REM
REM ./C.cell (863b2abdce7293c0672fb3ba77bf323a)
REM AIRSS Version 0.9.1 bugfix July 2018 build 013d7b7c2542+ Fri, 06 Jul 2018 19:26:36 +0100
REM compiler GCC version 9.2.1 20190827 (Red Hat 9.2.1-1)
REM options -cpp -mtune=generic -march=x86-64 -g -O0 -fpre-include=/usr/include/finclude/math-vector-fortran.h
REM seed -1302806050 -806847403 -1973245722 -311768544 -599493275 -1119865247 -1752419893 -2104405043 452858110 -808107581 -284773717 719484086 1611685935 -2025556804 -1390235722 -1007712255 -1547648654 -266691578 331824508 1242345250 -1838441149 -1692830992 1228693632 252809452 -1577043722 -1164242447 1975889365 1428190273 1217903633 -2033878743 2068492113 1899550220 550379077
REM
CELL 1.54180   15.00000   15.00000   15.00000   90.00000   90.00000   90.00000
LATT -1
SFAC C  
C      1  0.4496020000000  0.2309220000000  0.3184300000000 1.0
C      1  0.2356100000000  0.4705710000000  0.3192010000000 1.0
C      1  0.3896670000000  0.7420890000000  0.2984780000000 1.0
C      1  0.6897540000000  0.6861090000000  0.3240340000000 1.0
C      1  0.7375690000000  0.3734800000000  0.3176520000000 1.0
C      1  0.5503990000000  0.2309250000000  0.3184300000000 1.0
C      1  0.7643920000000  0.4705790000000  0.3192020000000 1.0
C      1  0.6103290000000  0.7420900000000  0.2984770000000 1.0
C      1  0.3102430000000  0.6861070000000  0.3240340000000 1.0
C      1  0.2624240000000  0.3734840000000  0.3176550000000 1.0
C      1  0.5491560000000  0.7264720000000  0.6383550000000 1.0
C      1  0.7287360000000  0.5228250000000  0.6218680000000 1.0
C      1  0.5923500000000  0.2898560000000  0.6259600000000 1.0
C      1  0.3280760000000  0.3475270000000  0.6254140000000 1.0
C      1  0.3016560000000  0.6161760000000  0.6214440000000 1.0
C      1  0.4508480000000  0.7264700000000  0.6383520000000 1.0
C      1  0.2712320000000  0.5228350000000  0.6219000000000 1.0
C      1  0.4076460000000  0.2898550000000  0.6259540000000 1.0
C      1  0.6719280000000  0.3475050000000  0.6254540000000 1.0
C      1  0.6983570000000  0.6161670000000  0.6214390000000 1.0
C      1  0.3257940000000  0.6580560000000  0.5370110000000 1.0
C      1  0.5922950000000  0.7051010000000  0.5527430000000 1.0
C      1  0.7254040000000  0.4763710000000  0.5362420000000 1.0
C      1  0.5474740000000  0.2750670000000  0.5405970000000 1.0
C      1  0.3020340000000  0.3854920000000  0.5391650000000 1.0
C      1  0.6742140000000  0.6580620000000  0.5370150000000 1.0
C      1  0.4077070000000  0.7051030000000  0.5527400000000 1.0
C      1  0.2744650000000  0.4764220000000  0.5362970000000 1.0
C      1  0.4525180000000  0.2750730000000  0.5406020000000 1.0
C      1  0.6980400000000  0.3854210000000  0.5392150000000 1.0
C      1  0.3278910000000  0.4944800000000  0.3575410000000 1.0
C      1  0.4513540000000  0.6631110000000  0.3234130000000 1.0
C      1  0.6257430000000  0.6129460000000  0.3581610000000 1.0
C      1  0.6459580000000  0.3990810000000  0.3565410000000 1.0
C      1  0.4505450000000  0.3268040000000  0.3552720000000 1.0
C      1  0.6721060000000  0.4944830000000  0.3575020000000 1.0
C      1  0.5486400000000  0.6631140000000  0.3234160000000 1.0
C      1  0.3742540000000  0.6129440000000  0.3581700000000 1.0
C      1  0.3540470000000  0.3990780000000  0.3565890000000 1.0
C      1  0.5494670000000  0.3268120000000  0.3552810000000 1.0
C      1  0.6293090000000  0.4077480000000  0.6926610000000 1.0
C      1  0.4512400000000  0.3501410000000  0.6927020000000 1.0
C      1  0.3399820000000  0.5003700000000  0.6914290000000 1.0
C      1  0.4500860000000  0.6512140000000  0.7026330000000 1.0
C      1  0.6273240000000  0.5932280000000  0.6886920000000 1.0
C      1  0.3706880000000  0.4077510000000  0.6926580000000 1.0
C      1  0.5487540000000  0.3501410000000  0.6927040000000 1.0
C      1  0.6600300000000  0.5003670000000  0.6914220000000 1.0
C      1  0.5499200000000  0.6512130000000  0.7026340000000 1.0
C      1  0.3726820000000  0.5932290000000  0.6886950000000 1.0
C      1  0.6258630000000  0.6004570000000  0.4655370000000 1.0
C      1  0.6298980000000  0.4040730000000  0.4688530000000 1.0
C      1  0.4494340000000  0.3440290000000  0.4679640000000 1.0
C      1  0.3396230000000  0.5029670000000  0.4647850000000 1.0
C      1  0.4547430000000  0.6432720000000  0.4971870000000 1.0
C      1  0.3741320000000  0.6004420000000  0.4655330000000 1.0
C      1  0.3702040000000  0.4039820000000  0.4687370000000 1.0
C      1  0.5505200000000  0.3439980000000  0.4679500000000 1.0
C      1  0.6603900000000  0.5030520000000  0.4647720000000 1.0
C      1  0.5452550000000  0.6432650000000  0.4972030000000 1.0
END
