TITL C-1525613-7943-1591 0.00133542730294429 3375 -9532.26168587716 0 0 60 (D5d) n - 1
REM
REM in /home/nfs/bkarasulu/CARBON/AIRSS/Generating-Clusters/ReaxFF-fromJPCA2015/Units_Real/Try2-Higher-symm/Only-C60
REM
REM
REM
REM
REM
REM ./C.cell (863b2abdce7293c0672fb3ba77bf323a)
REM AIRSS Version 0.9.1 bugfix July 2018 build 013d7b7c2542+ Fri, 06 Jul 2018 19:26:36 +0100
REM compiler GCC version 9.2.1 20190827 (Red Hat 9.2.1-1)
REM options -cpp -mtune=generic -march=x86-64 -g -O0 -fpre-include=/usr/include/finclude/math-vector-fortran.h
REM seed -2012146302 -823927801 -721077991 -312803312 -1409210077 -1791128759 28374915 -511981852 -1941119728 -1046933848 -2047773393 -1333542661 2036135356 -1065577620 -1876694396 -1263190061 -536896007 531225651 264783149 583145808 -1312119385 602743386 -736928809 2032520001 -1804205382 1273599762 2136234053 774927156 -2048737832 -34476949 287631332 1189915714 -1410250424
REM
CELL 1.54180   15.00000   15.00000   15.00000   90.00000   90.00000   90.00000
LATT -1
SFAC C  
C      1  0.5409310000000  0.5251340000000  0.2676220000000 1.0
C      1  0.5408910000000  0.7288990000000  0.4520710000000 1.0
C      1  0.5409010000000  0.6163060000000  0.7027630000000 1.0
C      1  0.5409670000000  0.3430110000000  0.6732480000000 1.0
C      1  0.5409610000000  0.2866380000000  0.4042870000000 1.0
C      1  0.5409190000000  0.5250350000000  0.7323710000000 1.0
C      1  0.5408930000000  0.7288720000000  0.5480230000000 1.0
C      1  0.5409030000000  0.6164000000000  0.2972610000000 1.0
C      1  0.5409580000000  0.3430890000000  0.3266900000000 1.0
C      1  0.5409590000000  0.2866030000000  0.5956250000000 1.0
C      1  0.3100240000000  0.6501810000000  0.4505620000000 1.0
C      1  0.3100450000000  0.5933900000000  0.6274360000000 1.0
C      1  0.3101190000000  0.4075610000000  0.6281940000000 1.0
C      1  0.3100830000000  0.3493920000000  0.4517810000000 1.0
C      1  0.3101070000000  0.4993380000000  0.3420600000000 1.0
C      1  0.3100430000000  0.6501350000000  0.5494980000000 1.0
C      1  0.3100540000000  0.5934500000000  0.3726150000000 1.0
C      1  0.3101330000000  0.4076350000000  0.3717980000000 1.0
C      1  0.3100700000000  0.3493530000000  0.5481910000000 1.0
C      1  0.3100940000000  0.4992610000000  0.6579460000000 1.0
C      1  0.4591110000000  0.3835910000000  0.7027330000000 1.0
C      1  0.4591020000000  0.2711200000000  0.4519840000000 1.0
C      1  0.4590800000000  0.4749580000000  0.2676020000000 1.0
C      1  0.4590450000000  0.7133850000000  0.4043510000000 1.0
C      1  0.4590360000000  0.6568880000000  0.6732950000000 1.0
C      1  0.4591000000000  0.3836850000000  0.2972220000000 1.0
C      1  0.4590920000000  0.2710900000000  0.5479390000000 1.0
C      1  0.4590720000000  0.4748540000000  0.7323740000000 1.0
C      1  0.4590300000000  0.7133350000000  0.5957030000000 1.0
C      1  0.4590330000000  0.6569640000000  0.3267450000000 1.0
C      1  0.6899330000000  0.6506420000000  0.4518210000000 1.0
C      1  0.6898910000000  0.5923800000000  0.6282270000000 1.0
C      1  0.6899530000000  0.4065480000000  0.6274170000000 1.0
C      1  0.6899490000000  0.3498770000000  0.4505000000000 1.0
C      1  0.6898940000000  0.5007430000000  0.3420440000000 1.0
C      1  0.6899380000000  0.6506070000000  0.5482300000000 1.0
C      1  0.6898940000000  0.5924440000000  0.3718040000000 1.0
C      1  0.6899430000000  0.4066140000000  0.3725570000000 1.0
C      1  0.6899540000000  0.3498570000000  0.5494370000000 1.0
C      1  0.6898920000000  0.5006690000000  0.6579450000000 1.0
C      1  0.6215730000000  0.6498510000000  0.6662240000000 1.0
C      1  0.6216280000000  0.3881910000000  0.6938330000000 1.0
C      1  0.6216410000000  0.2810190000000  0.4535590000000 1.0
C      1  0.6216130000000  0.4765490000000  0.2774930000000 1.0
C      1  0.6215820000000  0.7045190000000  0.4088740000000 1.0
C      1  0.6215860000000  0.6499330000000  0.3338080000000 1.0
C      1  0.6216310000000  0.3882760000000  0.3061220000000 1.0
C      1  0.6216520000000  0.2809920000000  0.5463630000000 1.0
C      1  0.6216140000000  0.4764560000000  0.7224940000000 1.0
C      1  0.6215950000000  0.7044770000000  0.5911980000000 1.0
C      1  0.3783610000000  0.7190240000000  0.4536430000000 1.0
C      1  0.3783640000000  0.6117240000000  0.6938580000000 1.0
C      1  0.3784310000000  0.3500610000000  0.6661920000000 1.0
C      1  0.3784160000000  0.2955330000000  0.4088070000000 1.0
C      1  0.3783910000000  0.5235540000000  0.2775250000000 1.0
C      1  0.3783410000000  0.7189940000000  0.5464560000000 1.0
C      1  0.3783550000000  0.6118230000000  0.3061670000000 1.0
C      1  0.3784360000000  0.3501480000000  0.3337790000000 1.0
C      1  0.3784150000000  0.2954870000000  0.5911310000000 1.0
C      1  0.3783790000000  0.5234570000000  0.7225050000000 1.0
END
