TITL C-1525613-7943-5209 -0.0153537942836004 3375 -9178.73489006896 0 0 60 (S10) n - 1
REM
REM in /home/nfs/bkarasulu/CARBON/AIRSS/Generating-Clusters/ReaxFF-fromJPCA2015/Units_Real/Try2-Higher-symm/Only-C60
REM
REM
REM
REM
REM
REM ./C.cell (863b2abdce7293c0672fb3ba77bf323a)
REM AIRSS Version 0.9.1 bugfix July 2018 build 013d7b7c2542+ Fri, 06 Jul 2018 19:26:36 +0100
REM compiler GCC version 9.2.1 20190827 (Red Hat 9.2.1-1)
REM options -cpp -mtune=generic -march=x86-64 -g -O0 -fpre-include=/usr/include/finclude/math-vector-fortran.h
REM seed -1317510523 1537616303 903891436 -1009717508 -776293883 -1286964387 574587183 -333957514 -168908836 -2053647353 110453594 -2046280312 -1946056968 -1960145767 296894597 -1376663330 1480547812 -190063450 457795548 -518432044 -1293130452 -1387513359 718300781 200405693 -79577588 -1456175896 1778569151 1352211400 -163875367 -542115324 -625220712 18743403 313473740
REM
CELL 1.54180   15.00000   15.00000   15.00000   90.00000   90.00000   90.00000
LATT -1
SFAC C  
C      1  0.7337990000000  0.3681510000000  0.4550870000000 1.0
C      1  0.6116470000000  0.2559340000000  0.5448910000000 1.0
C      1  0.4468570000000  0.2369590000000  0.4550580000000 1.0
C      1  0.3023900000000  0.3184170000000  0.5449140000000 1.0
C      1  0.2333650000000  0.4692480000000  0.4551580000000 1.0
C      1  0.2662400000000  0.6318310000000  0.5449260000000 1.0
C      1  0.3883860000000  0.7440420000000  0.4550700000000 1.0
C      1  0.5531510000000  0.7630620000000  0.5449180000000 1.0
C      1  0.6976380000000  0.6816010000000  0.4551230000000 1.0
C      1  0.7666320000000  0.5307440000000  0.5449000000000 1.0
C      1  0.5823410000000  0.6548280000000  0.3107770000000 1.0
C      1  0.6579450000000  0.5770670000000  0.6890510000000 1.0
C      1  0.6728820000000  0.4696800000000  0.3108770000000 1.0
C      1  0.6221140000000  0.3736260000000  0.6890510000000 1.0
C      1  0.5245240000000  0.3259900000000  0.3109520000000 1.0
C      1  0.4175420000000  0.3447940000000  0.6890450000000 1.0
C      1  0.3422930000000  0.4230870000000  0.3107640000000 1.0
C      1  0.3269470000000  0.5304670000000  0.6890610000000 1.0
C      1  0.3776540000000  0.6263830000000  0.3110120000000 1.0
C      1  0.4755030000000  0.6740160000000  0.6890570000000 1.0
C      1  0.5404470000000  0.5724610000000  0.2715290000000 1.0
C      1  0.5754410000000  0.5351060000000  0.7285710000000 1.0
C      1  0.5815450000000  0.4846430000000  0.2715230000000 1.0
C      1  0.5567460000000  0.4391030000000  0.7285550000000 1.0
C      1  0.5098830000000  0.4176780000000  0.2713800000000 1.0
C      1  0.4596410000000  0.4272310000000  0.7285660000000 1.0
C      1  0.4247140000000  0.4646950000000  0.2715040000000 1.0
C      1  0.4183190000000  0.5159190000000  0.7285670000000 1.0
C      1  0.4434830000000  0.5606630000000  0.2713710000000 1.0
C      1  0.4898980000000  0.5825960000000  0.7285680000000 1.0
C      1  0.3867040000000  0.3466870000000  0.3413340000000 1.0
C      1  0.3182660000000  0.4425870000000  0.6587040000000 1.0
C      1  0.3192550000000  0.5604690000000  0.3413120000000 1.0
C      1  0.3892430000000  0.6550890000000  0.6587110000000 1.0
C      1  0.5017270000000  0.6907690000000  0.3414040000000 1.0
C      1  0.6132890000000  0.6532790000000  0.6586980000000 1.0
C      1  0.6817030000000  0.5572670000000  0.3412440000000 1.0
C      1  0.6807780000000  0.4396230000000  0.6586930000000 1.0
C      1  0.6107510000000  0.3446680000000  0.3414010000000 1.0
C      1  0.4984460000000  0.3094090000000  0.6586990000000 1.0
C      1  0.4698140000000  0.7566850000000  0.5008470000000 1.0
C      1  0.6264470000000  0.7254020000000  0.4991760000000 1.0
C      1  0.7347930000000  0.6080170000000  0.5008420000000 1.0
C      1  0.7534490000000  0.4494000000000  0.4991630000000 1.0
C      1  0.6752610000000  0.3100550000000  0.5008490000000 1.0
C      1  0.5301590000000  0.2433130000000  0.4991430000000 1.0
C      1  0.3735440000000  0.2746030000000  0.5008330000000 1.0
C      1  0.2651990000000  0.3919960000000  0.4991610000000 1.0
C      1  0.2465520000000  0.5506190000000  0.5008520000000 1.0
C      1  0.3247160000000  0.6899250000000  0.4991750000000 1.0
C      1  0.4163490000000  0.7063490000000  0.3595530000000 1.0
C      1  0.5537140000000  0.7161110000000  0.6404540000000 1.0
C      1  0.6704660000000  0.6432910000000  0.3595290000000 1.0
C      1  0.7221350000000  0.5156950000000  0.6404510000000 1.0
C      1  0.6889470000000  0.3822300000000  0.3594800000000 1.0
C      1  0.5835840000000  0.2935830000000  0.6404510000000 1.0
C      1  0.4463540000000  0.2839340000000  0.3595260000000 1.0
C      1  0.3295270000000  0.3567190000000  0.6404410000000 1.0
C      1  0.2777940000000  0.4843490000000  0.3595960000000 1.0
C      1  0.3110630000000  0.6178510000000  0.6404520000000 1.0
END
