TITL C-1525613-7943-3671 -0.018238703455544 3375 -9094.79581055858 0 0 60 (Ci) n - 1
REM
REM in /home/nfs/bkarasulu/CARBON/AIRSS/Generating-Clusters/ReaxFF-fromJPCA2015/Units_Real/Try2-Higher-symm/Only-C60
REM
REM
REM
REM
REM
REM ./C.cell (863b2abdce7293c0672fb3ba77bf323a)
REM AIRSS Version 0.9.1 bugfix July 2018 build 013d7b7c2542+ Fri, 06 Jul 2018 19:26:36 +0100
REM compiler GCC version 9.2.1 20190827 (Red Hat 9.2.1-1)
REM options -cpp -mtune=generic -march=x86-64 -g -O0 -fpre-include=/usr/include/finclude/math-vector-fortran.h
REM seed 1527134945 -1742829488 1469426609 438859954 -1155993721 201816326 -16069383 65182566 -1685044775 540853481 -1446293726 2071815894 584461803 2024878012 -1628696491 -460308095 -1151143955 -1575721443 1242941677 1356742149 -1627011937 120910973 777296012 -477883679 -612244173 162884002 1913060431 659493371 1950092437 528691736 578714986 517001218 -305405972
REM
CELL 1.54180   15.00000   15.00000   15.00000   90.00000   90.00000   90.00000
LATT -1
SFAC C  
C      1  0.3426390000000  0.4174810000000  0.6028810000000 1.0
C      1  0.3230210000000  0.5241870000000  0.4004340000000 1.0
C      1  0.3742990000000  0.6243220000000  0.6018820000000 1.0
C      1  0.4695310000000  0.6743410000000  0.3977490000000 1.0
C      1  0.5801340000000  0.6597160000000  0.5995160000000 1.0
C      1  0.6573610000000  0.5825190000000  0.3971190000000 1.0
C      1  0.6769790000000  0.4758130000000  0.5995660000000 1.0
C      1  0.6257010000000  0.3756780000000  0.3981180000000 1.0
C      1  0.5304690000000  0.3256590000000  0.6022510000000 1.0
C      1  0.4198660000000  0.3402840000000  0.4004840000000 1.0
C      1  0.5356250000000  0.5709240000000  0.5807390000000 1.0
C      1  0.5690730000000  0.5362320000000  0.4163140000000 1.0
C      1  0.5783300000000  0.4895880000000  0.5811410000000 1.0
C      1  0.5552650000000  0.4449800000000  0.4175130000000 1.0
C      1  0.5138990000000  0.4234560000000  0.5829280000000 1.0
C      1  0.4643750000000  0.4290760000000  0.4192610000000 1.0
C      1  0.4309270000000  0.4637680000000  0.5836860000000 1.0
C      1  0.4216700000000  0.5104120000000  0.4188590000000 1.0
C      1  0.4447350000000  0.5550200000000  0.5824870000000 1.0
C      1  0.4861010000000  0.5765440000000  0.4170720000000 1.0
C      1  0.6395850000000  0.5743840000000  0.2879340000000 1.0
C      1  0.6529840000000  0.4805500000000  0.7069290000000 1.0
C      1  0.6094090000000  0.3937590000000  0.2896020000000 1.0
C      1  0.5267800000000  0.3497010000000  0.7104590000000 1.0
C      1  0.4313190000000  0.3628570000000  0.2929620000000 1.0
C      1  0.3604150000000  0.4256160000000  0.7120660000000 1.0
C      1  0.3470160000000  0.5194500000000  0.2930710000000 1.0
C      1  0.3905910000000  0.6062410000000  0.7103980000000 1.0
C      1  0.4732200000000  0.6502990000000  0.2895410000000 1.0
C      1  0.5686810000000  0.6371430000000  0.7070380000000 1.0
C      1  0.6836130000000  0.3888840000000  0.5433460000000 1.0
C      1  0.5821250000000  0.3021570000000  0.4562990000000 1.0
C      1  0.4507200000000  0.2914320000000  0.5457610000000 1.0
C      1  0.3358750000000  0.3589400000000  0.4580580000000 1.0
C      1  0.2857660000000  0.4824290000000  0.5459770000000 1.0
C      1  0.3163870000000  0.6111160000000  0.4566540000000 1.0
C      1  0.4178750000000  0.6978430000000  0.5437010000000 1.0
C      1  0.5492800000000  0.7085680000000  0.4542390000000 1.0
C      1  0.6641250000000  0.6410600000000  0.5419420000000 1.0
C      1  0.7142340000000  0.5175710000000  0.4540230000000 1.0
C      1  0.4124860000000  0.5811350000000  0.2726010000000 1.0
C      1  0.4813530000000  0.6170440000000  0.7290090000000 1.0
C      1  0.5579520000000  0.6168110000000  0.2765390000000 1.0
C      1  0.6006480000000  0.5534460000000  0.7349070000000 1.0
C      1  0.6272290000000  0.4830430000000  0.2770520000000 1.0
C      1  0.5875140000000  0.4188650000000  0.7273990000000 1.0
C      1  0.5186470000000  0.3829560000000  0.2709910000000 1.0
C      1  0.4420480000000  0.3831890000000  0.7234610000000 1.0
C      1  0.3993520000000  0.4465540000000  0.2650930000000 1.0
C      1  0.3727710000000  0.5169570000000  0.7229480000000 1.0
C      1  0.6364320000000  0.6661860000000  0.4540020000000 1.0
C      1  0.7090280000000  0.5553030000000  0.5416890000000 1.0
C      1  0.6989350000000  0.4218280000000  0.4550350000000 1.0
C      1  0.6157020000000  0.3199800000000  0.5441180000000 1.0
C      1  0.4867980000000  0.2856460000000  0.4575470000000 1.0
C      1  0.3635680000000  0.3338140000000  0.5459980000000 1.0
C      1  0.2909720000000  0.4446970000000  0.4583110000000 1.0
C      1  0.3010650000000  0.5781720000000  0.5449650000000 1.0
C      1  0.3842980000000  0.6800200000000  0.4558820000000 1.0
C      1  0.5132020000000  0.7143540000000  0.5424530000000 1.0
END
