TITL C-1525613-7943-1891 0.263573654855396 3375 -8861.05740096849 0 0 60 (C5v) n - 1
REM
REM in /home/nfs/bkarasulu/CARBON/AIRSS/Generating-Clusters/ReaxFF-fromJPCA2015/Units_Real/Try2-Higher-symm/Only-C60
REM
REM
REM
REM
REM
REM ./C.cell (863b2abdce7293c0672fb3ba77bf323a)
REM AIRSS Version 0.9.1 bugfix July 2018 build 013d7b7c2542+ Fri, 06 Jul 2018 19:26:36 +0100
REM compiler GCC version 9.2.1 20190827 (Red Hat 9.2.1-1)
REM options -cpp -mtune=generic -march=x86-64 -g -O0 -fpre-include=/usr/include/finclude/math-vector-fortran.h
REM seed -1416655496 1841579117 773836774 -624882445 -1146410105 2120907275 864554372 -2109990440 -786092806 -629040710 620445301 -1630735101 -161271913 971533041 1918083439 738781174 -1272183045 822964463 -1916421563 410995749 -672522680 1224412710 -348518758 -1678772522 822041167 5079929 -1928570829 1276499760 -86215493 -1934988222 -430082363 847672408 -1001380367
REM
CELL 1.54180   15.00000   15.00000   15.00000   90.00000   90.00000   90.00000
LATT -1
SFAC C  
C      1  0.5484420000000  0.3490700000000  0.3165100000000 1.0
C      1  0.3710230000000  0.4070710000000  0.3157970000000 1.0
C      1  0.3717570000000  0.5937650000000  0.3163600000000 1.0
C      1  0.5496770000000  0.6504730000000  0.3164730000000 1.0
C      1  0.6587850000000  0.4993260000000  0.3165680000000 1.0
C      1  0.4515590000000  0.3490360000000  0.3166260000000 1.0
C      1  0.6289230000000  0.4069830000000  0.3158090000000 1.0
C      1  0.6281860000000  0.5937900000000  0.3161810000000 1.0
C      1  0.4504490000000  0.6505780000000  0.3164630000000 1.0
C      1  0.3412030000000  0.4992740000000  0.3164240000000 1.0
C      1  0.3256680000000  0.3441340000000  0.3776790000000 1.0
C      1  0.2975270000000  0.6180160000000  0.3776170000000 1.0
C      1  0.5494650000000  0.7283720000000  0.3779530000000 1.0
C      1  0.7330050000000  0.5236560000000  0.3778550000000 1.0
C      1  0.5943050000000  0.2860010000000  0.3780780000000 1.0
C      1  0.6745040000000  0.3441170000000  0.3777260000000 1.0
C      1  0.7023670000000  0.6178410000000  0.3775340000000 1.0
C      1  0.4504390000000  0.7285100000000  0.3779650000000 1.0
C      1  0.2671440000000  0.5237430000000  0.3778360000000 1.0
C      1  0.4057470000000  0.2858870000000  0.3780670000000 1.0
C      1  0.5480750000000  0.3518490000000  0.7024340000000 1.0
C      1  0.3742040000000  0.4087950000000  0.7011070000000 1.0
C      1  0.3740910000000  0.5918770000000  0.7019170000000 1.0
C      1  0.5482860000000  0.6482950000000  0.7026370000000 1.0
C      1  0.6558630000000  0.4999320000000  0.7027870000000 1.0
C      1  0.4519640000000  0.3518250000000  0.7025550000000 1.0
C      1  0.6257870000000  0.4088060000000  0.7010940000000 1.0
C      1  0.6259600000000  0.5918270000000  0.7020250000000 1.0
C      1  0.4516680000000  0.6482930000000  0.7026130000000 1.0
C      1  0.3440930000000  0.5000040000000  0.7028750000000 1.0
C      1  0.2818050000000  0.3774130000000  0.4587520000000 1.0
C      1  0.3158160000000  0.6696370000000  0.4587480000000 1.0
C      1  0.6044920000000  0.7273900000000  0.4588090000000 1.0
C      1  0.7485070000000  0.4709510000000  0.4587700000000 1.0
C      1  0.5490590000000  0.2544580000000  0.4588080000000 1.0
C      1  0.7181210000000  0.3774190000000  0.4587170000000 1.0
C      1  0.6841460000000  0.6696220000000  0.4587930000000 1.0
C      1  0.3955710000000  0.7273420000000  0.4588090000000 1.0
C      1  0.2514560000000  0.4709790000000  0.4588400000000 1.0
C      1  0.4509670000000  0.2544780000000  0.4587350000000 1.0
C      1  0.4517330000000  0.7439530000000  0.5366860000000 1.0
C      1  0.7173730000000  0.6214460000000  0.5365730000000 1.0
C      1  0.6824580000000  0.3311620000000  0.5359700000000 1.0
C      1  0.3954170000000  0.2740780000000  0.5369380000000 1.0
C      1  0.2528090000000  0.5294140000000  0.5366750000000 1.0
C      1  0.5484850000000  0.7442680000000  0.5365190000000 1.0
C      1  0.2826230000000  0.6214470000000  0.5365870000000 1.0
C      1  0.3174650000000  0.3310540000000  0.5359540000000 1.0
C      1  0.6045800000000  0.2742010000000  0.5369610000000 1.0
C      1  0.7471060000000  0.5293900000000  0.5366730000000 1.0
C      1  0.4345820000000  0.3260640000000  0.6090190000000 1.0
C      1  0.3148050000000  0.5101360000000  0.6089790000000 1.0
C      1  0.4520310000000  0.6788520000000  0.6086710000000 1.0
C      1  0.6552470000000  0.6007310000000  0.6083080000000 1.0
C      1  0.6419760000000  0.3835090000000  0.6067680000000 1.0
C      1  0.5655040000000  0.3260580000000  0.6090220000000 1.0
C      1  0.6851320000000  0.5100780000000  0.6089770000000 1.0
C      1  0.5476120000000  0.6789790000000  0.6084180000000 1.0
C      1  0.3448640000000  0.6007860000000  0.6082720000000 1.0
C      1  0.3580930000000  0.3835630000000  0.6066850000000 1.0
END
