TITL C-1525613-7943-1498 0.101482835467631 3375 -8467.73407464061 0 0 60 (Ci) n - 1
REM
REM in /home/nfs/bkarasulu/CARBON/AIRSS/Generating-Clusters/ReaxFF-fromJPCA2015/Units_Real/Try2-Higher-symm/Only-C60
REM
REM
REM
REM
REM
REM ./C.cell (863b2abdce7293c0672fb3ba77bf323a)
REM AIRSS Version 0.9.1 bugfix July 2018 build 013d7b7c2542+ Fri, 06 Jul 2018 19:26:36 +0100
REM compiler GCC version 9.2.1 20190827 (Red Hat 9.2.1-1)
REM options -cpp -mtune=generic -march=x86-64 -g -O0 -fpre-include=/usr/include/finclude/math-vector-fortran.h
REM seed -35454281 -1156173625 -1260261972 -140320875 1263790305 -1135355316 -1932645823 2131353749 -1811826390 310384589 -1573376775 79616007 2080126535 1657012103 2008869038 1620177076 2083856061 1924263986 -422544016 1202337882 1808514677 1406654549 -481905057 -661908781 1874023407 -572076674 1329246188 387448609 916874720 -778610252 1825126072 1873587596 -879677854
REM
CELL 1.54180   15.00000   15.00000   15.00000   90.00000   90.00000   90.00000
LATT -1
SFAC C  
C      1  0.4921480000000  0.7308740000000  0.5535000000000 1.0
C      1  0.6282950000000  0.6903900000000  0.4467590000000 1.0
C      1  0.7057240000000  0.5729210000000  0.5530330000000 1.0
C      1  0.7235610000000  0.4362020000000  0.4452280000000 1.0
C      1  0.6350860000000  0.3288830000000  0.5538510000000 1.0
C      1  0.5082940000000  0.2696750000000  0.4470290000000 1.0
C      1  0.3720800000000  0.3097110000000  0.5531440000000 1.0
C      1  0.2938900000000  0.4267530000000  0.4477690000000 1.0
C      1  0.2771600000000  0.5634980000000  0.5538440000000 1.0
C      1  0.3688830000000  0.6676470000000  0.4471990000000 1.0
C      1  0.5590020000000  0.2663860000000  0.5340980000000 1.0
C      1  0.4109110000000  0.2746160000000  0.4660240000000 1.0
C      1  0.2974960000000  0.3715400000000  0.5336030000000 1.0
C      1  0.2575330000000  0.5174340000000  0.4658670000000 1.0
C      1  0.3145680000000  0.6523750000000  0.5334230000000 1.0
C      1  0.4422380000000  0.7340850000000  0.4664410000000 1.0
C      1  0.5894250000000  0.7255710000000  0.5337720000000 1.0
C      1  0.7022230000000  0.6277720000000  0.4668100000000 1.0
C      1  0.7425700000000  0.4822570000000  0.5335340000000 1.0
C      1  0.6859370000000  0.3472610000000  0.4664200000000 1.0
C      1  0.4249450000000  0.4610660000000  0.4334610000000 1.0
C      1  0.4199020000000  0.5066080000000  0.5731820000000 1.0
C      1  0.4376910000000  0.5591100000000  0.4331310000000 1.0
C      1  0.4838160000000  0.5771950000000  0.5711830000000 1.0
C      1  0.5321600000000  0.5749140000000  0.4275410000000 1.0
C      1  0.5742310000000  0.5406890000000  0.5667750000000 1.0
C      1  0.5799750000000  0.4932930000000  0.4265620000000 1.0
C      1  0.5629350000000  0.4428200000000  0.5681470000000 1.0
C      1  0.5149670000000  0.4233170000000  0.4288490000000 1.0
C      1  0.4683500000000  0.4250430000000  0.5721730000000 1.0
C      1  0.4282910000000  0.5622600000000  0.3324300000000 1.0
C      1  0.4813200000000  0.5890770000000  0.6688950000000 1.0
C      1  0.5369260000000  0.5856340000000  0.3302730000000 1.0
C      1  0.5814280000000  0.5459690000000  0.6674230000000 1.0
C      1  0.5914500000000  0.4915770000000  0.3288140000000 1.0
C      1  0.5710140000000  0.4383130000000  0.6679900000000 1.0
C      1  0.5188720000000  0.4113330000000  0.3311540000000 1.0
C      1  0.4626290000000  0.4145590000000  0.6696470000000 1.0
C      1  0.4181260000000  0.4553710000000  0.3331860000000 1.0
C      1  0.4081510000000  0.5080600000000  0.6709600000000 1.0
C      1  0.6678430000000  0.6047840000000  0.6415500000000 1.0
C      1  0.6963670000000  0.4831750000000  0.3607190000000 1.0
C      1  0.6520300000000  0.3735860000000  0.6435560000000 1.0
C      1  0.5444920000000  0.3095940000000  0.3620380000000 1.0
C      1  0.4229440000000  0.3175640000000  0.6394750000000 1.0
C      1  0.3318970000000  0.3957160000000  0.3591950000000 1.0
C      1  0.3035020000000  0.5167590000000  0.6389850000000 1.0
C      1  0.3474810000000  0.6247720000000  0.3570780000000 1.0
C      1  0.4553060000000  0.6906400000000  0.6382190000000 1.0
C      1  0.5772840000000  0.6822570000000  0.3604440000000 1.0
C      1  0.4940870000000  0.2723620000000  0.6009450000000 1.0
C      1  0.3657300000000  0.3161640000000  0.3946290000000 1.0
C      1  0.2832480000000  0.4351890000000  0.6002370000000 1.0
C      1  0.2788080000000  0.5722180000000  0.3918280000000 1.0
C      1  0.3717740000000  0.6842780000000  0.5989880000000 1.0
C      1  0.5065250000000  0.7281330000000  0.3990610000000 1.0
C      1  0.6343700000000  0.6841690000000  0.6054160000000 1.0
C      1  0.7161500000000  0.5646690000000  0.3998920000000 1.0
C      1  0.7175440000000  0.4260600000000  0.6039590000000 1.0
C      1  0.6284150000000  0.3158510000000  0.4006610000000 1.0
END
