TITL C-1525613-7943-1817 0.000678275445468517 3375 -9507.08068769082 0 0 60 (D5d) n - 1
REM
REM in /home/nfs/bkarasulu/CARBON/AIRSS/Generating-Clusters/ReaxFF-fromJPCA2015/Units_Real/Try2-Higher-symm/Only-C60
REM
REM
REM
REM
REM
REM ./C.cell (863b2abdce7293c0672fb3ba77bf323a)
REM AIRSS Version 0.9.1 bugfix July 2018 build 013d7b7c2542+ Fri, 06 Jul 2018 19:26:36 +0100
REM compiler GCC version 9.2.1 20190827 (Red Hat 9.2.1-1)
REM options -cpp -mtune=generic -march=x86-64 -g -O0 -fpre-include=/usr/include/finclude/math-vector-fortran.h
REM seed 1584677178 -1503618630 576631931 -1576003559 -1264595934 -112859501 -365248884 -881047829 -1056867919 -1626519457 -1004280245 -698500559 1565392127 -1310077665 1630661322 841558245 -1957846289 -1776775565 -1412156134 1556535268 1190582947 992653162 871135476 2066356960 -1095706446 53682283 -962950765 1149698112 1137417766 758572069 508133365 -658901622 1263950357
REM
CELL 1.54180   15.00000   15.00000   15.00000   90.00000   90.00000   90.00000
LATT -1
SFAC C  
C      1  0.4590070000000  0.7345680000000  0.5486770000000 1.0
C      1  0.4589950000000  0.5261950000000  0.7381230000000 1.0
C      1  0.4589710000000  0.2816280000000  0.5984920000000 1.0
C      1  0.4589700000000  0.3388480000000  0.3227490000000 1.0
C      1  0.4589950000000  0.6187790000000  0.2919630000000 1.0
C      1  0.4590050000000  0.7345680000000  0.4513300000000 1.0
C      1  0.4589860000000  0.5261980000000  0.2618790000000 1.0
C      1  0.4589680000000  0.2816290000000  0.4015040000000 1.0
C      1  0.4589770000000  0.3388470000000  0.6772470000000 1.0
C      1  0.4590020000000  0.6187770000000  0.7080420000000 1.0
C      1  0.6927090000000  0.6510780000000  0.5497270000000 1.0
C      1  0.6926930000000  0.4993760000000  0.6590460000000 1.0
C      1  0.6926850000000  0.3485150000000  0.5485700000000 1.0
C      1  0.6926820000000  0.4069800000000  0.3709620000000 1.0
C      1  0.6926980000000  0.5939680000000  0.3716800000000 1.0
C      1  0.6927060000000  0.6510770000000  0.4502710000000 1.0
C      1  0.6926870000000  0.4993780000000  0.3409480000000 1.0
C      1  0.6926830000000  0.3485150000000  0.4514200000000 1.0
C      1  0.6926860000000  0.4069800000000  0.6290280000000 1.0
C      1  0.6927040000000  0.5939680000000  0.6283190000000 1.0
C      1  0.3744150000000  0.2754400000000  0.5491120000000 1.0
C      1  0.3744200000000  0.3839060000000  0.3015950000000 1.0
C      1  0.3744430000000  0.6528250000000  0.3282710000000 1.0
C      1  0.3744520000000  0.7105600000000  0.5922710000000 1.0
C      1  0.3744360000000  0.4773220000000  0.7287600000000 1.0
C      1  0.3744130000000  0.2754400000000  0.4508870000000 1.0
C      1  0.3744270000000  0.3839040000000  0.6984040000000 1.0
C      1  0.3744490000000  0.6528250000000  0.6717370000000 1.0
C      1  0.3744480000000  0.7105600000000  0.4077380000000 1.0
C      1  0.3744270000000  0.4773240000000  0.2712430000000 1.0
C      1  0.3073170000000  0.5930170000000  0.3709670000000 1.0
C      1  0.3073250000000  0.6514760000000  0.5485810000000 1.0
C      1  0.3073130000000  0.5006220000000  0.6590640000000 1.0
C      1  0.3073010000000  0.3489330000000  0.5497290000000 1.0
C      1  0.3073000000000  0.4060340000000  0.3716740000000 1.0
C      1  0.3073210000000  0.5930180000000  0.6290440000000 1.0
C      1  0.3073230000000  0.6514750000000  0.4514300000000 1.0
C      1  0.3073080000000  0.5006230000000  0.3409420000000 1.0
C      1  0.3072980000000  0.3489320000000  0.4502720000000 1.0
C      1  0.3073060000000  0.4060340000000  0.6283270000000 1.0
C      1  0.6255560000000  0.3471770000000  0.6717240000000 1.0
C      1  0.6255470000000  0.2894390000000  0.4077310000000 1.0
C      1  0.6255640000000  0.5226760000000  0.2712530000000 1.0
C      1  0.6255830000000  0.7245620000000  0.4508880000000 1.0
C      1  0.6255800000000  0.6160920000000  0.6983950000000 1.0
C      1  0.6255490000000  0.3471780000000  0.3282680000000 1.0
C      1  0.6255500000000  0.2894390000000  0.5922600000000 1.0
C      1  0.6255720000000  0.5226730000000  0.7287440000000 1.0
C      1  0.6255850000000  0.7245620000000  0.5491130000000 1.0
C      1  0.6255720000000  0.6160940000000  0.3016050000000 1.0
C      1  0.5410110000000  0.4738040000000  0.7381140000000 1.0
C      1  0.5409910000000  0.2654370000000  0.5486700000000 1.0
C      1  0.5409960000000  0.3812240000000  0.2919630000000 1.0
C      1  0.5410190000000  0.6611490000000  0.3227580000000 1.0
C      1  0.5410290000000  0.7183690000000  0.5984930000000 1.0
C      1  0.5410030000000  0.4738060000000  0.2618840000000 1.0
C      1  0.5409890000000  0.2654370000000  0.4513240000000 1.0
C      1  0.5410030000000  0.3812220000000  0.7080320000000 1.0
C      1  0.5410260000000  0.6611470000000  0.6772460000000 1.0
C      1  0.5410250000000  0.7183690000000  0.4015110000000 1.0
END
