TITL C-1525613-7943-7488 0.00786158814669567 3375 -9227.92518208121 0 0 60 (C1) n - 1
REM
REM in /home/nfs/bkarasulu/CARBON/AIRSS/Generating-Clusters/ReaxFF-fromJPCA2015/Units_Real/Try2-Higher-symm/Only-C60
REM
REM
REM
REM
REM
REM ./C.cell (863b2abdce7293c0672fb3ba77bf323a)
REM AIRSS Version 0.9.1 bugfix July 2018 build 013d7b7c2542+ Fri, 06 Jul 2018 19:26:36 +0100
REM compiler GCC version 9.2.1 20190827 (Red Hat 9.2.1-1)
REM options -cpp -mtune=generic -march=x86-64 -g -O0 -fpre-include=/usr/include/finclude/math-vector-fortran.h
REM seed -553279199 -801287025 -1220240937 351544191 382315340 718456047 383932049 2043514834 481892560 -802152777 -880848852 1932311189 -1219949324 -170638527 -1663536322 -1386193630 -479746877 731772723 -341785443 2009592196 610158199 2108057740 2092767833 -1495107284 -1000533645 597997110 1002390017 -100844682 43020946 -805959478 -1785759485 1712263345 935778462
REM
CELL 1.54180   15.00000   15.00000   15.00000   90.00000   90.00000   90.00000
LATT -1
SFAC C  
C      1  0.3250620000000  0.5312010000000  0.4290320000000 1.0
C      1  0.6712370000000  0.4967080000000  0.4200250000000 1.0
C      1  0.3159060000000  0.4340140000000  0.4440350000000 1.0
C      1  0.6656000000000  0.4260620000000  0.4855740000000 1.0
C      1  0.3281290000000  0.4155580000000  0.5363710000000 1.0
C      1  0.6753320000000  0.4672600000000  0.5700690000000 1.0
C      1  0.3314390000000  0.5016550000000  0.5790230000000 1.0
C      1  0.6809720000000  0.5647820000000  0.5545410000000 1.0
C      1  0.3424870000000  0.5712500000000  0.5127180000000 1.0
C      1  0.6696460000000  0.5834030000000  0.4619880000000 1.0
C      1  0.6264370000000  0.4912170000000  0.7246460000000 1.0
C      1  0.3624710000000  0.6146800000000  0.6888370000000 1.0
C      1  0.6463240000000  0.7125530000000  0.5830950000000 1.0
C      1  0.3817190000000  0.7100320000000  0.4397470000000 1.0
C      1  0.6208540000000  0.6522060000000  0.3079190000000 1.0
C      1  0.3699280000000  0.5065650000000  0.2742230000000 1.0
C      1  0.6388280000000  0.3864870000000  0.3082260000000 1.0
C      1  0.3503430000000  0.2861100000000  0.4159160000000 1.0
C      1  0.6188340000000  0.2844090000000  0.5656120000000 1.0
C      1  0.3800700000000  0.3495380000000  0.6858090000000 1.0
C      1  0.3806430000000  0.6628110000000  0.5298420000000 1.0
C      1  0.6354090000000  0.6746060000000  0.4174750000000 1.0
C      1  0.3449930000000  0.5706220000000  0.3431580000000 1.0
C      1  0.6701530000000  0.4792710000000  0.3244670000000 1.0
C      1  0.3282890000000  0.3708270000000  0.3719820000000 1.0
C      1  0.6208970000000  0.3309580000000  0.4712260000000 1.0
C      1  0.3645820000000  0.3256480000000  0.5824780000000 1.0
C      1  0.6539680000000  0.4276930000000  0.6556810000000 1.0
C      1  0.3405440000000  0.5183380000000  0.6734800000000 1.0
C      1  0.6694770000000  0.6276340000000  0.6271690000000 1.0
C      1  0.5319620000000  0.2485680000000  0.5931590000000 1.0
C      1  0.4684750000000  0.3374610000000  0.7244740000000 1.0
C      1  0.5326090000000  0.4985350000000  0.7567160000000 1.0
C      1  0.4619590000000  0.6394620000000  0.6771150000000 1.0
C      1  0.5483510000000  0.7175250000000  0.5511480000000 1.0
C      1  0.4660420000000  0.7509040000000  0.4085280000000 1.0
C      1  0.5278280000000  0.6648250000000  0.2749070000000 1.0
C      1  0.4647810000000  0.5027380000000  0.2388740000000 1.0
C      1  0.5386170000000  0.3625820000000  0.3219770000000 1.0
C      1  0.4502740000000  0.2795310000000  0.4465680000000 1.0
C      1  0.3689990000000  0.6659080000000  0.3525150000000 1.0
C      1  0.6591650000000  0.5673230000000  0.2747610000000 1.0
C      1  0.3721630000000  0.4100000000000  0.2936700000000 1.0
C      1  0.6621160000000  0.3331700000000  0.3825000000000 1.0
C      1  0.3218180000000  0.2812270000000  0.5060730000000 1.0
C      1  0.6301660000000  0.3322650000000  0.6500150000000 1.0
C      1  0.3706980000000  0.4397460000000  0.7226780000000 1.0
C      1  0.6281360000000  0.5891330000000  0.7066780000000 1.0
C      1  0.3315120000000  0.6819700000000  0.6278040000000 1.0
C      1  0.6779070000000  0.7172650000000  0.4937890000000 1.0
C      1  0.4629480000000  0.4307300000000  0.7610080000000 1.0
C      1  0.5323730000000  0.5944980000000  0.7300640000000 1.0
C      1  0.4688340000000  0.6771910000000  0.5903380000000 1.0
C      1  0.5474060000000  0.7262550000000  0.4555210000000 1.0
C      1  0.4499900000000  0.7110400000000  0.3196060000000 1.0
C      1  0.5216900000000  0.5755560000000  0.2539470000000 1.0
C      1  0.4667280000000  0.4058350000000  0.2704360000000 1.0
C      1  0.5279070000000  0.3197620000000  0.4062130000000 1.0
C      1  0.4529040000000  0.2725690000000  0.5424220000000 1.0
C      1  0.5450710000000  0.2923260000000  0.6821330000000 1.0
END
