TITL C-1525613-7943-1483 0.0736419689439871 3375 -8334.40756140972 0 0 60 (C1) n - 1
REM
REM in /home/nfs/bkarasulu/CARBON/AIRSS/Generating-Clusters/ReaxFF-fromJPCA2015/Units_Real/Try2-Higher-symm/Only-C60
REM
REM
REM
REM
REM
REM ./C.cell (863b2abdce7293c0672fb3ba77bf323a)
REM AIRSS Version 0.9.1 bugfix July 2018 build 013d7b7c2542+ Fri, 06 Jul 2018 19:26:36 +0100
REM compiler GCC version 9.2.1 20190827 (Red Hat 9.2.1-1)
REM options -cpp -mtune=generic -march=x86-64 -g -O0 -fpre-include=/usr/include/finclude/math-vector-fortran.h
REM seed 1120996157 -41614581 317943086 993339680 1908152943 -2033555200 1455952986 -280787043 478858894 -328212232 1123722127 1546184778 -100229245 1197725629 -1746904275 109298000 -479958942 2053101698 270474258 -990711017 -1370527231 -1079546352 -293964978 2058343398 1056487270 -1054251869 -956635230 -1014991471 -1854368804 51755655 2001797524 1912036971 -1522037841
REM
CELL 1.54180   15.00000   15.00000   15.00000   90.00000   90.00000   90.00000
LATT -1
SFAC C  
C      1  0.7318050000000  0.5391940000000  0.6281970000000 1.0
C      1  0.6912960000000  0.4669260000000  0.6018240000000 1.0
C      1  0.6518070000000  0.4220240000000  0.5515710000000 1.0
C      1  0.6058410000000  0.4049640000000  0.4733440000000 1.0
C      1  0.6489340000000  0.4641850000000  0.4201070000000 1.0
C      1  0.6934280000000  0.5254050000000  0.3804620000000 1.0
C      1  0.7394930000000  0.5955710000000  0.3714840000000 1.0
C      1  0.7562730000000  0.6279160000000  0.4458840000000 1.0
C      1  0.7621860000000  0.6323420000000  0.5322350000000 1.0
C      1  0.7599640000000  0.6111320000000  0.6100980000000 1.0
C      1  0.3257900000000  0.5704310000000  0.3003270000000 1.0
C      1  0.3287450000000  0.6518080000000  0.3563180000000 1.0
C      1  0.3347990000000  0.7125020000000  0.5166620000000 1.0
C      1  0.2919260000000  0.6363470000000  0.6216980000000 1.0
C      1  0.3208480000000  0.5851410000000  0.6946670000000 1.0
C      1  0.3290270000000  0.4158700000000  0.7068380000000 1.0
C      1  0.3313650000000  0.3329100000000  0.6522010000000 1.0
C      1  0.3249500000000  0.3026950000000  0.4912190000000 1.0
C      1  0.3004480000000  0.3205880000000  0.3280870000000 1.0
C      1  0.3351960000000  0.3985080000000  0.2825320000000 1.0
C      1  0.3920480000000  0.3384690000000  0.3283430000000 1.0
C      1  0.3688930000000  0.4851700000000  0.3032730000000 1.0
C      1  0.4015830000000  0.6223980000000  0.3111200000000 1.0
C      1  0.3722850000000  0.6785460000000  0.4386900000000 1.0
C      1  0.3222220000000  0.7260950000000  0.6029510000000 1.0
C      1  0.3760000000000  0.6552270000000  0.6684340000000 1.0
C      1  0.3672270000000  0.5031570000000  0.6949290000000 1.0
C      1  0.4087420000000  0.3629650000000  0.6988510000000 1.0
C      1  0.3731530000000  0.3128050000000  0.5661480000000 1.0
C      1  0.2967780000000  0.3008980000000  0.4177960000000 1.0
C      1  0.5422500000000  0.2622780000000  0.5893360000000 1.0
C      1  0.5470670000000  0.2600460000000  0.4340880000000 1.0
C      1  0.5459910000000  0.3376540000000  0.3124050000000 1.0
C      1  0.5404940000000  0.4781100000000  0.2534850000000 1.0
C      1  0.5569700000000  0.6205700000000  0.2973430000000 1.0
C      1  0.5449050000000  0.7230980000000  0.4122650000000 1.0
C      1  0.5576130000000  0.7180640000000  0.5636110000000 1.0
C      1  0.5447840000000  0.6489830000000  0.6914160000000 1.0
C      1  0.5381830000000  0.5096420000000  0.7473160000000 1.0
C      1  0.5652690000000  0.3668200000000  0.6977230000000 1.0
C      1  0.5015600000000  0.6386390000000  0.5416750000000 1.0
C      1  0.4672620000000  0.6037070000000  0.6270220000000 1.0
C      1  0.4615340000000  0.5075470000000  0.6657180000000 1.0
C      1  0.4810520000000  0.4027130000000  0.6411520000000 1.0
C      1  0.4720100000000  0.3411640000000  0.5571860000000 1.0
C      1  0.5112700000000  0.3566040000000  0.4621600000000 1.0
C      1  0.4664050000000  0.3864710000000  0.3735810000000 1.0
C      1  0.4626820000000  0.4841640000000  0.3348310000000 1.0
C      1  0.4755960000000  0.5831020000000  0.3582760000000 1.0
C      1  0.4710150000000  0.6470340000000  0.4487200000000 1.0
C      1  0.5765610000000  0.2563840000000  0.3481670000000 1.0
C      1  0.5752030000000  0.3925000000000  0.2442260000000 1.0
C      1  0.5830550000000  0.5583640000000  0.2338200000000 1.0
C      1  0.5845900000000  0.7036540000000  0.3301180000000 1.0
C      1  0.5825400000000  0.7794690000000  0.4812320000000 1.0
C      1  0.5852950000000  0.7228900000000  0.6513980000000 1.0
C      1  0.5721990000000  0.5948960000000  0.7622580000000 1.0
C      1  0.5852440000000  0.4301840000000  0.7617930000000 1.0
C      1  0.5897480000000  0.2813410000000  0.6659810000000 1.0
C      1  0.5686040000000  0.2017250000000  0.5154040000000 1.0
END
