TITL C-1525613-7943-2685 -0.0822776547787862 3375 -8845.70661140605 0 0 60 (Ci) n - 1
REM
REM in /home/nfs/bkarasulu/CARBON/AIRSS/Generating-Clusters/ReaxFF-fromJPCA2015/Units_Real/Try2-Higher-symm/Only-C60
REM
REM
REM
REM
REM
REM ./C.cell (863b2abdce7293c0672fb3ba77bf323a)
REM AIRSS Version 0.9.1 bugfix July 2018 build 013d7b7c2542+ Fri, 06 Jul 2018 19:26:36 +0100
REM compiler GCC version 9.2.1 20190827 (Red Hat 9.2.1-1)
REM options -cpp -mtune=generic -march=x86-64 -g -O0 -fpre-include=/usr/include/finclude/math-vector-fortran.h
REM seed 616346963 -914071325 704519380 -1772416480 1438282709 578425368 -548654442 -1506470834 -1671673690 -1213740960 -822057745 1101667053 -694572514 343398441 1777026479 1412463666 1989392268 -2051918602 1546905741 -898148474 464543022 1803403749 -1190675553 1537788088 1742757646 283625713 967144825 1843061007 -1179117075 -23465556 -1437097327 -284521749 362987362
REM
CELL 1.54180   15.00000   15.00000   15.00000   90.00000   90.00000   90.00000
LATT -1
SFAC C  
C      1  0.5074480000000  0.4138350000000  0.2699970000000 1.0
C      1  0.4572470000000  0.4254800000000  0.7285770000000 1.0
C      1  0.4196640000000  0.4652320000000  0.2701760000000 1.0
C      1  0.4165280000000  0.5186940000000  0.7293040000000 1.0
C      1  0.4415050000000  0.5645260000000  0.2706710000000 1.0
C      1  0.4926050000000  0.5862520000000  0.7300310000000 1.0
C      1  0.5427500000000  0.5745650000000  0.2710130000000 1.0
C      1  0.5803230000000  0.5347690000000  0.7297970000000 1.0
C      1  0.5835310000000  0.4813840000000  0.2705600000000 1.0
C      1  0.5584650000000  0.4354850000000  0.7289600000000 1.0
C      1  0.3510550000000  0.4447270000000  0.3277250000000 1.0
C      1  0.3499500000000  0.5437710000000  0.6713790000000 1.0
C      1  0.4013160000000  0.6241510000000  0.3279070000000 1.0
C      1  0.4945480000000  0.6575410000000  0.6722330000000 1.0
C      1  0.5875470000000  0.6300660000000  0.3287920000000 1.0
C      1  0.6490150000000  0.5554090000000  0.6723510000000 1.0
C      1  0.6500310000000  0.4563830000000  0.3286110000000 1.0
C      1  0.5987440000000  0.3757190000000  0.6718900000000 1.0
C      1  0.5054820000000  0.3426140000000  0.3278410000000 1.0
C      1  0.4124240000000  0.3697250000000  0.6710140000000 1.0
C      1  0.2886450000000  0.4571160000000  0.3914920000000 1.0
C      1  0.3050140000000  0.5889440000000  0.6080370000000 1.0
C      1  0.3944740000000  0.6874990000000  0.3917280000000 1.0
C      1  0.5242720000000  0.7136130000000  0.6086080000000 1.0
C      1  0.6451340000000  0.6579590000000  0.3921670000000 1.0
C      1  0.7113530000000  0.5427360000000  0.6085510000000 1.0
C      1  0.6950520000000  0.4112680000000  0.3919170000000 1.0
C      1  0.6055030000000  0.3122780000000  0.6080940000000 1.0
C      1  0.4757980000000  0.2865160000000  0.3914660000000 1.0
C      1  0.3546130000000  0.3420170000000  0.6077420000000 1.0
C      1  0.5510460000000  0.2919830000000  0.4499600000000 1.0
C      1  0.4186020000000  0.3016660000000  0.5493770000000 1.0
C      1  0.3169650000000  0.3864880000000  0.4492370000000 1.0
C      1  0.2868570000000  0.5159840000000  0.5491850000000 1.0
C      1  0.3358230000000  0.6389040000000  0.4493710000000 1.0
C      1  0.4490150000000  0.7081120000000  0.5501100000000 1.0
C      1  0.5812120000000  0.6980910000000  0.4506660000000 1.0
C      1  0.6831120000000  0.6135380000000  0.5509480000000 1.0
C      1  0.7129940000000  0.4841610000000  0.4509290000000 1.0
C      1  0.6643920000000  0.3608460000000  0.5506150000000 1.0
C      1  0.4826550000000  0.6877250000000  0.4541210000000 1.0
C      1  0.5967190000000  0.6623290000000  0.5465900000000 1.0
C      1  0.6736590000000  0.5749190000000  0.4551790000000 1.0
C      1  0.6838940000000  0.4582180000000  0.5469800000000 1.0
C      1  0.6248990000000  0.3578780000000  0.4548300000000 1.0
C      1  0.5172020000000  0.3121960000000  0.5459130000000 1.0
C      1  0.4033370000000  0.3377030000000  0.4535560000000 1.0
C      1  0.3262620000000  0.4252060000000  0.5449430000000 1.0
C      1  0.3161170000000  0.5416060000000  0.4530820000000 1.0
C      1  0.3753140000000  0.6420680000000  0.5451640000000 1.0
C      1  0.4218640000000  0.5172020000000  0.4314780000000 1.0
C      1  0.4472090000000  0.5601000000000  0.5660390000000 1.0
C      1  0.4922500000000  0.5793370000000  0.4322900000000 1.0
C      1  0.5408430000000  0.5691480000000  0.5675990000000 1.0
C      1  0.5732300000000  0.5317920000000  0.4340300000000 1.0
C      1  0.5782860000000  0.4827050000000  0.5686390000000 1.0
C      1  0.5528070000000  0.4399380000000  0.4342020000000 1.0
C      1  0.5075580000000  0.4204380000000  0.5676850000000 1.0
C      1  0.4591810000000  0.4310510000000  0.4326070000000 1.0
C      1  0.4266600000000  0.4683940000000  0.5660410000000 1.0
END
