TITL C-1525613-7943-4977 -0.000441849997659575 3375 -8917.27154509266 0 0 60 (S10) n - 1
REM
REM in /home/nfs/bkarasulu/CARBON/AIRSS/Generating-Clusters/ReaxFF-fromJPCA2015/Units_Real/Try2-Higher-symm/Only-C60
REM
REM
REM
REM
REM
REM ./C.cell (863b2abdce7293c0672fb3ba77bf323a)
REM AIRSS Version 0.9.1 bugfix July 2018 build 013d7b7c2542+ Fri, 06 Jul 2018 19:26:36 +0100
REM compiler GCC version 9.2.1 20190827 (Red Hat 9.2.1-1)
REM options -cpp -mtune=generic -march=x86-64 -g -O0 -fpre-include=/usr/include/finclude/math-vector-fortran.h
REM seed 2017123422 -2139217339 1755791381 -580266377 2071979571 514879560 2104502744 -861941949 -165854295 1332065818 -1736959434 1404909548 2094111701 -184264629 1808549581 1507188109 1444607486 -1064798088 -622617383 1525883117 -102312746 -741500593 -275479316 1089574219 -718045551 108578242 1151879815 62768595 1138073307 -888382461 -1286917190 1469177617 -1309801983
REM
CELL 1.54180   15.00000   15.00000   15.00000   90.00000   90.00000   90.00000
LATT -1
SFAC C  
C      1  0.6363490000000  0.5577910000000  0.5200900000000 1.0
C      1  0.6442600000000  0.4665890000000  0.4798280000000 1.0
C      1  0.5970860000000  0.3881970000000  0.5202140000000 1.0
C      1  0.5128120000000  0.3524620000000  0.4799350000000 1.0
C      1  0.4236610000000  0.3731290000000  0.5202640000000 1.0
C      1  0.3636520000000  0.4422090000000  0.4799100000000 1.0
C      1  0.3557400000000  0.5334110000000  0.5201720000000 1.0
C      1  0.4029140000000  0.6118030000000  0.4797870000000 1.0
C      1  0.4871880000000  0.6475380000000  0.5200650000000 1.0
C      1  0.5763390000000  0.6268710000000  0.4797360000000 1.0
C      1  0.7239790000000  0.4852980000000  0.6471800000000 1.0
C      1  0.6724390000000  0.3562960000000  0.3528330000000 1.0
C      1  0.5551600000000  0.2825410000000  0.6473550000000 1.0
C      1  0.4166870000000  0.2914910000000  0.3529350000000 1.0
C      1  0.3101600000000  0.3804440000000  0.6473480000000 1.0
C      1  0.2760210000000  0.5147030000000  0.3528210000000 1.0
C      1  0.3275620000000  0.6437040000000  0.6471670000000 1.0
C      1  0.4448410000000  0.7174590000000  0.3526450000000 1.0
C      1  0.5833130000000  0.7085100000000  0.6470640000000 1.0
C      1  0.6898400000000  0.6195550000000  0.3526520000000 1.0
C      1  0.1946560000000  0.5383240000000  0.3727620000000 1.0
C      1  0.2756100000000  0.7106190000000  0.6271870000000 1.0
C      1  0.4421560000000  0.8021550000000  0.3725290000000 1.0
C      1  0.6309010000000  0.7785930000000  0.6270740000000 1.0
C      1  0.7695520000000  0.6482890000000  0.3725580000000 1.0
C      1  0.8053440000000  0.4616770000000  0.6272400000000 1.0
C      1  0.7243910000000  0.2893800000000  0.3728120000000 1.0
C      1  0.5578450000000  0.1978450000000  0.6274720000000 1.0
C      1  0.3690990000000  0.2214080000000  0.3729260000000 1.0
C      1  0.2304470000000  0.3517110000000  0.6274410000000 1.0
C      1  0.3194570000000  0.5458300000000  0.6075040000000 1.0
C      1  0.3807870000000  0.6430840000000  0.3924390000000 1.0
C      1  0.4877450000000  0.6859450000000  0.6073710000000 1.0
C      1  0.5992930000000  0.6575190000000  0.3923780000000 1.0
C      1  0.6730060000000  0.5691900000000  0.6074060000000 1.0
C      1  0.6805430000000  0.4541700000000  0.3924960000000 1.0
C      1  0.6192130000000  0.3569160000000  0.6075610000000 1.0
C      1  0.5122550000000  0.3140560000000  0.3926290000000 1.0
C      1  0.4007070000000  0.3424800000000  0.6076220000000 1.0
C      1  0.3269940000000  0.4308100000000  0.3925940000000 1.0
C      1  0.6660650000000  0.5213770000000  0.3261940000000 1.0
C      1  0.6470600000000  0.4198700000000  0.6737700000000 1.0
C      1  0.5717310000000  0.3485490000000  0.3263330000000 1.0
C      1  0.4691530000000  0.3354970000000  0.6738690000000 1.0
C      1  0.3782090000000  0.3848580000000  0.3263540000000 1.0
C      1  0.3339350000000  0.4786230000000  0.6738050000000 1.0
C      1  0.3529400000000  0.5801300000000  0.3262300000000 1.0
C      1  0.4282700000000  0.6514510000000  0.6736670000000 1.0
C      1  0.5308460000000  0.6645030000000  0.3261310000000 1.0
C      1  0.6217910000000  0.6151430000000  0.6736450000000 1.0
C      1  0.4643410000000  0.5756970000000  0.7206960000000 1.0
C      1  0.5154610000000  0.5819640000000  0.2792030000000 1.0
C      1  0.5608690000000  0.5574590000000  0.7206850000000 1.0
C      1  0.5828330000000  0.5104700000000  0.2792340000000 1.0
C      1  0.5733520000000  0.4600190000000  0.7207470000000 1.0
C      1  0.5356590000000  0.4243030000000  0.2793030000000 1.0
C      1  0.4845380000000  0.4180360000000  0.7207960000000 1.0
C      1  0.4391310000000  0.4425410000000  0.2793150000000 1.0
C      1  0.4171660000000  0.4895290000000  0.7207650000000 1.0
C      1  0.4266480000000  0.5399810000000  0.2792530000000 1.0
END
