TITL C-1525613-7943-6453 0.0586108212311252 3375 -8843.79893190429 0 0 60 (C1) n - 1
REM
REM in /home/nfs/bkarasulu/CARBON/AIRSS/Generating-Clusters/ReaxFF-fromJPCA2015/Units_Real/Try2-Higher-symm/Only-C60
REM
REM
REM
REM
REM
REM ./C.cell (863b2abdce7293c0672fb3ba77bf323a)
REM AIRSS Version 0.9.1 bugfix July 2018 build 013d7b7c2542+ Fri, 06 Jul 2018 19:26:36 +0100
REM compiler GCC version 9.2.1 20190827 (Red Hat 9.2.1-1)
REM options -cpp -mtune=generic -march=x86-64 -g -O0 -fpre-include=/usr/include/finclude/math-vector-fortran.h
REM seed -435875631 -417358343 1697584254 1661696589 2016246208 851694342 432459114 661950272 348343074 -459528744 55906785 -748004353 1610235453 1489720838 1930908856 -1936980 1343364142 1776077269 111221204 -647922326 -1513242126 -649523820 22989691 -1371685630 1271044760 1861663367 -75182983 8480534 -71643267 1962574927 755264010 1674111237 -747105138
REM
CELL 1.54180   15.00000   15.00000   15.00000   90.00000   90.00000   90.00000
LATT -1
SFAC C  
C      1  0.6891390000000  0.3957210000000  0.4588950000000 1.0
C      1  0.7093530000000  0.5363070000000  0.5410430000000 1.0
C      1  0.6502810000000  0.6577480000000  0.4531490000000 1.0
C      1  0.5363500000000  0.7138700000000  0.5467840000000 1.0
C      1  0.4065920000000  0.6958660000000  0.4549540000000 1.0
C      1  0.3096550000000  0.6041340000000  0.5417660000000 1.0
C      1  0.2881620000000  0.4635620000000  0.4584840000000 1.0
C      1  0.3488250000000  0.3438990000000  0.5472110000000 1.0
C      1  0.4628300000000  0.2863940000000  0.4538050000000 1.0
C      1  0.5928410000000  0.3030820000000  0.5449990000000 1.0
C      1  0.5784520000000  0.4800840000000  0.5756460000000 1.0
C      1  0.5762810000000  0.5367310000000  0.4247530000000 1.0
C      1  0.5413900000000  0.5659010000000  0.5966700000000 1.0
C      1  0.4919700000000  0.5773420000000  0.4135760000000 1.0
C      1  0.4483540000000  0.5566240000000  0.6004350000000 1.0
C      1  0.4248060000000  0.5121680000000  0.4440230000000 1.0
C      1  0.4262530000000  0.4717820000000  0.5553520000000 1.0
C      1  0.4641360000000  0.4330980000000  0.3998710000000 1.0
C      1  0.5053560000000  0.4217170000000  0.5862850000000 1.0
C      1  0.5567360000000  0.4460870000000  0.4011610000000 1.0
C      1  0.4849200000000  0.7101640000000  0.3977320000000 1.0
C      1  0.3641720000000  0.6622560000000  0.5992170000000 1.0
C      1  0.3249970000000  0.5409970000000  0.4059840000000 1.0
C      1  0.3314620000000  0.4305090000000  0.5950240000000 1.0
C      1  0.3887840000000  0.3201140000000  0.4010480000000 1.0
C      1  0.5138410000000  0.2890830000000  0.6021850000000 1.0
C      1  0.6350690000000  0.3373020000000  0.4007150000000 1.0
C      1  0.6767470000000  0.4561760000000  0.5972010000000 1.0
C      1  0.6701850000000  0.5725470000000  0.4019170000000 1.0
C      1  0.6107850000000  0.6810930000000  0.5997630000000 1.0
C      1  0.7110670000000  0.4955740000000  0.4573490000000 1.0
C      1  0.6738480000000  0.6319560000000  0.5417210000000 1.0
C      1  0.5658130000000  0.7099200000000  0.4542860000000 1.0
C      1  0.4342870000000  0.7054900000000  0.5472730000000 1.0
C      1  0.3315100000000  0.6299100000000  0.4525510000000 1.0
C      1  0.2862660000000  0.5043970000000  0.5435570000000 1.0
C      1  0.3246050000000  0.3680080000000  0.4579620000000 1.0
C      1  0.4332410000000  0.2908570000000  0.5461010000000 1.0
C      1  0.5648730000000  0.2942140000000  0.4524470000000 1.0
C      1  0.6682570000000  0.3677620000000  0.5474540000000 1.0
C      1  0.3569190000000  0.4385050000000  0.7038890000000 1.0
C      1  0.4272840000000  0.3754830000000  0.3152030000000 1.0
C      1  0.5114960000000  0.3617070000000  0.6792710000000 1.0
C      1  0.5994270000000  0.3910870000000  0.3123030000000 1.0
C      1  0.6515560000000  0.4665310000000  0.7072070000000 1.0
C      1  0.6428540000000  0.5626310000000  0.2921640000000 1.0
C      1  0.5745180000000  0.6259500000000  0.6862040000000 1.0
C      1  0.4860950000000  0.6373190000000  0.3211620000000 1.0
C      1  0.4025550000000  0.6075520000000  0.6860370000000 1.0
C      1  0.3485580000000  0.5326980000000  0.2969100000000 1.0
C      1  0.5742320000000  0.6245640000000  0.2671740000000 1.0
C      1  0.4849820000000  0.6471060000000  0.7270410000000 1.0
C      1  0.3996710000000  0.6091610000000  0.2695320000000 1.0
C      1  0.3536130000000  0.5278580000000  0.7355050000000 1.0
C      1  0.3659720000000  0.4440690000000  0.2656160000000 1.0
C      1  0.4230820000000  0.3745000000000  0.7321020000000 1.0
C      1  0.5170780000000  0.3529200000000  0.2726220000000 1.0
C      1  0.5971760000000  0.3915620000000  0.7306380000000 1.0
C      1  0.6461870000000  0.4723370000000  0.2640760000000 1.0
C      1  0.6342520000000  0.5560150000000  0.7350000000000 1.0
END
