TITL C-1525613-7943-5858 0.000170087097910863 3375 -7704.72777432931 0 0 60 (C2) n - 1
REM
REM in /home/nfs/bkarasulu/CARBON/AIRSS/Generating-Clusters/ReaxFF-fromJPCA2015/Units_Real/Try2-Higher-symm/Only-C60
REM
REM
REM
REM
REM
REM ./C.cell (863b2abdce7293c0672fb3ba77bf323a)
REM AIRSS Version 0.9.1 bugfix July 2018 build 013d7b7c2542+ Fri, 06 Jul 2018 19:26:36 +0100
REM compiler GCC version 9.2.1 20190827 (Red Hat 9.2.1-1)
REM options -cpp -mtune=generic -march=x86-64 -g -O0 -fpre-include=/usr/include/finclude/math-vector-fortran.h
REM seed -1131325911 -1011576252 -1146958902 828974239 -1297948504 2138096512 -746780950 -891762538 -1697298027 -2063858261 -136858818 679006050 -2071992777 894281669 -707714410 2127174518 1950659207 -2102534596 -957260412 -1864358315 -767224766 -1357282439 2082128230 -132152278 -323963261 73512868 103465300 -665890505 -382351734 -1541352057 1681358790 -939251953 -1197472822
REM
CELL 1.54180   15.00000   15.00000   15.00000   90.00000   90.00000   90.00000
LATT -1
SFAC C  
C      1  0.3240960000000  0.5519580000000  0.5659340000000 1.0
C      1  0.3239780000000  0.5770950000000  0.4686160000000 1.0
C      1  0.3293600000000  0.4928180000000  0.4154410000000 1.0
C      1  0.3264200000000  0.4152110000000  0.4788840000000 1.0
C      1  0.3222910000000  0.4516670000000  0.5720370000000 1.0
C      1  0.6759040000000  0.5519580000000  0.4340660000000 1.0
C      1  0.6760220000000  0.5770950000000  0.5313830000000 1.0
C      1  0.6706400000000  0.4928180000000  0.5845590000000 1.0
C      1  0.6735800000000  0.4152110000000  0.5211170000000 1.0
C      1  0.6777090000000  0.4516660000000  0.4279630000000 1.0
C      1  0.6138760000000  0.5133290000000  0.7092990000000 1.0
C      1  0.6136330000000  0.6990880000000  0.5494510000000 1.0
C      1  0.6132400000000  0.6107210000000  0.3257360000000 1.0
C      1  0.6090730000000  0.3685730000000  0.3414340000000 1.0
C      1  0.6083550000000  0.3038900000000  0.5688990000000 1.0
C      1  0.3861240000000  0.5133290000000  0.2907010000000 1.0
C      1  0.3863670000000  0.6990880000000  0.4505480000000 1.0
C      1  0.3867600000000  0.6107210000000  0.6742640000000 1.0
C      1  0.3909270000000  0.3685730000000  0.6585660000000 1.0
C      1  0.3916450000000  0.3038900000000  0.4311020000000 1.0
C      1  0.4488260000000  0.5827200000000  0.2661300000000 1.0
C      1  0.4417560000000  0.3076980000000  0.3500330000000 1.0
C      1  0.4549080000000  0.2986390000000  0.6436930000000 1.0
C      1  0.4488110000000  0.5731740000000  0.7370280000000 1.0
C      1  0.4487840000000  0.7479410000000  0.5053480000000 1.0
C      1  0.5511740000000  0.5827210000000  0.7338700000000 1.0
C      1  0.5582440000000  0.3076980000000  0.6499680000000 1.0
C      1  0.5450920000000  0.2986380000000  0.3563080000000 1.0
C      1  0.5511890000000  0.5731730000000  0.2629720000000 1.0
C      1  0.5512160000000  0.7479410000000  0.4946510000000 1.0
C      1  0.4274540000000  0.4173290000000  0.4967980000000 1.0
C      1  0.4232730000000  0.4695150000000  0.5750540000000 1.0
C      1  0.4276350000000  0.5618040000000  0.5526520000000 1.0
C      1  0.4264250000000  0.5703870000000  0.4579850000000 1.0
C      1  0.4331900000000  0.4803190000000  0.4192450000000 1.0
C      1  0.5725460000000  0.4173290000000  0.5032020000000 1.0
C      1  0.5767270000000  0.4695150000000  0.4249460000000 1.0
C      1  0.5723650000000  0.5618030000000  0.4473480000000 1.0
C      1  0.5735750000000  0.5703870000000  0.5420140000000 1.0
C      1  0.5668100000000  0.4803190000000  0.5807550000000 1.0
C      1  0.5886320000000  0.2806660000000  0.4378250000000 1.0
C      1  0.5868680000000  0.3833290000000  0.6974880000000 1.0
C      1  0.5922330000000  0.6385750000000  0.6712010000000 1.0
C      1  0.5917560000000  0.7087260000000  0.4197560000000 1.0
C      1  0.5916190000000  0.4899760000000  0.2792390000000 1.0
C      1  0.4113680000000  0.2806660000000  0.5621760000000 1.0
C      1  0.4131320000000  0.3833280000000  0.3025120000000 1.0
C      1  0.4077670000000  0.6385750000000  0.3287980000000 1.0
C      1  0.4082440000000  0.7087260000000  0.5802440000000 1.0
C      1  0.4083810000000  0.4899770000000  0.7207610000000 1.0
C      1  0.4316390000000  0.4560280000000  0.3231080000000 1.0
C      1  0.4282480000000  0.3239110000000  0.4972990000000 1.0
C      1  0.4279810000000  0.4407780000000  0.6623550000000 1.0
C      1  0.4270640000000  0.6383120000000  0.6099610000000 1.0
C      1  0.4263940000000  0.6458240000000  0.4050590000000 1.0
C      1  0.5683610000000  0.4560280000000  0.6768930000000 1.0
C      1  0.5717520000000  0.3239110000000  0.5027010000000 1.0
C      1  0.5720190000000  0.4407770000000  0.3376460000000 1.0
C      1  0.5729350000000  0.6383110000000  0.3900390000000 1.0
C      1  0.5736060000000  0.6458240000000  0.5949410000000 1.0
END
