TITL C-1525613-7943-3331 0.0905851374106669 3375 -8589.36457207465 0 0 60 (Cs) n - 1
REM
REM in /home/nfs/bkarasulu/CARBON/AIRSS/Generating-Clusters/ReaxFF-fromJPCA2015/Units_Real/Try2-Higher-symm/Only-C60
REM
REM
REM
REM
REM
REM ./C.cell (863b2abdce7293c0672fb3ba77bf323a)
REM AIRSS Version 0.9.1 bugfix July 2018 build 013d7b7c2542+ Fri, 06 Jul 2018 19:26:36 +0100
REM compiler GCC version 9.2.1 20190827 (Red Hat 9.2.1-1)
REM options -cpp -mtune=generic -march=x86-64 -g -O0 -fpre-include=/usr/include/finclude/math-vector-fortran.h
REM seed 272344997 1670906511 1406928417 669555385 1275921865 1241937094 405836960 -779149405 136535982 2126553642 1430485661 -1375562935 -1410733464 788102099 -22972132 -930351169 605530748 -1590665595 798253515 -382984579 -1893346160 -1035706283 -418646613 1021567386 1326259542 645503089 262096690 -1357314170 -1527267686 -853728625 -857768592 1524545097 -1879132242
REM
CELL 1.54180   15.00000   15.00000   15.00000   90.00000   90.00000   90.00000
LATT -1
SFAC C  
C      1  0.5928090000000  0.3406150000000  0.4665170000000 1.0
C      1  0.4930140000000  0.3322170000000  0.4098140000000 1.0
C      1  0.4092440000000  0.3308680000000  0.4791320000000 1.0
C      1  0.4492770000000  0.3356010000000  0.5780980000000 1.0
C      1  0.5617790000000  0.3401300000000  0.5722170000000 1.0
C      1  0.5928580000000  0.6593290000000  0.4664750000000 1.0
C      1  0.4930480000000  0.6677490000000  0.4097910000000 1.0
C      1  0.4092630000000  0.6691450000000  0.4791180000000 1.0
C      1  0.4492610000000  0.6644030000000  0.5781010000000 1.0
C      1  0.5617780000000  0.6598460000000  0.5721730000000 1.0
C      1  0.6169900000000  0.4517050000000  0.3291660000000 1.0
C      1  0.3900000000000  0.4514270000000  0.3256280000000 1.0
C      1  0.2967030000000  0.4515580000000  0.5419290000000 1.0
C      1  0.4754300000000  0.4512020000000  0.7074850000000 1.0
C      1  0.6982820000000  0.4505480000000  0.6114950000000 1.0
C      1  0.6170690000000  0.5482220000000  0.3290760000000 1.0
C      1  0.3900350000000  0.5485370000000  0.3255930000000 1.0
C      1  0.2967210000000  0.5484510000000  0.5419560000000 1.0
C      1  0.4754520000000  0.5487940000000  0.7074840000000 1.0
C      1  0.6983110000000  0.5494610000000  0.6114370000000 1.0
C      1  0.5496910000000  0.5969230000000  0.2782710000000 1.0
C      1  0.3173520000000  0.5937770000000  0.3743120000000 1.0
C      1  0.3232950000000  0.5719270000000  0.6329690000000 1.0
C      1  0.5671040000000  0.5808230000000  0.7114230000000 1.0
C      1  0.7205490000000  0.5485290000000  0.4524190000000 1.0
C      1  0.5497960000000  0.4031190000000  0.2783510000000 1.0
C      1  0.3173940000000  0.4062330000000  0.3743050000000 1.0
C      1  0.3232700000000  0.4280560000000  0.6330070000000 1.0
C      1  0.5670880000000  0.4191910000000  0.7114680000000 1.0
C      1  0.7203330000000  0.4515580000000  0.4527620000000 1.0
C      1  0.3419120000000  0.2486500000000  0.4396200000000 1.0
C      1  0.3884470000000  0.2764230000000  0.6383040000000 1.0
C      1  0.5984680000000  0.2782950000000  0.6461410000000 1.0
C      1  0.6865700000000  0.2978580000000  0.4681100000000 1.0
C      1  0.5103950000000  0.2629550000000  0.3362150000000 1.0
C      1  0.3419180000000  0.7513270000000  0.4396010000000 1.0
C      1  0.3884730000000  0.7235460000000  0.6382780000000 1.0
C      1  0.5984380000000  0.7217070000000  0.6461150000000 1.0
C      1  0.6865450000000  0.7021970000000  0.4682770000000 1.0
C      1  0.5104060000000  0.7370380000000  0.3362270000000 1.0
C      1  0.6023180000000  0.4185240000000  0.6206780000000 1.0
C      1  0.6337170000000  0.4205570000000  0.4210340000000 1.0
C      1  0.4738720000000  0.4039490000000  0.3399230000000 1.0
C      1  0.3475230000000  0.4094580000000  0.4686240000000 1.0
C      1  0.4206780000000  0.4163100000000  0.6334680000000 1.0
C      1  0.6023050000000  0.5814810000000  0.6206660000000 1.0
C      1  0.6339700000000  0.5795600000000  0.4209530000000 1.0
C      1  0.4739190000000  0.5960740000000  0.3399190000000 1.0
C      1  0.3475230000000  0.5905220000000  0.4686460000000 1.0
C      1  0.4206630000000  0.5837030000000  0.6334410000000 1.0
C      1  0.5964020000000  0.3246030000000  0.7344540000000 1.0
C      1  0.7608710000000  0.3627820000000  0.4808190000000 1.0
C      1  0.5574880000000  0.3034860000000  0.2588590000000 1.0
C      1  0.3108810000000  0.3114460000000  0.3811740000000 1.0
C      1  0.3087830000000  0.3301970000000  0.6614570000000 1.0
C      1  0.5963830000000  0.6753980000000  0.7344300000000 1.0
C      1  0.7607910000000  0.6371320000000  0.4811190000000 1.0
C      1  0.5574650000000  0.6965120000000  0.2588380000000 1.0
C      1  0.3108880000000  0.6885660000000  0.3811760000000 1.0
C      1  0.3087910000000  0.6697990000000  0.6614640000000 1.0
END
