TITL C-1525613-7943-3501 0.00188027215002055 3375 -9579.83721755805 0 0 60 (Cs) n - 1
REM
REM in /home/nfs/bkarasulu/CARBON/AIRSS/Generating-Clusters/ReaxFF-fromJPCA2015/Units_Real/Try2-Higher-symm/Only-C60
REM
REM
REM
REM
REM
REM ./C.cell (863b2abdce7293c0672fb3ba77bf323a)
REM AIRSS Version 0.9.1 bugfix July 2018 build 013d7b7c2542+ Fri, 06 Jul 2018 19:26:36 +0100
REM compiler GCC version 9.2.1 20190827 (Red Hat 9.2.1-1)
REM options -cpp -mtune=generic -march=x86-64 -g -O0 -fpre-include=/usr/include/finclude/math-vector-fortran.h
REM seed -2053303461 1587955768 27410106 -756664306 1934716869 1258686838 -458508398 -850424088 -1267012786 -628508948 254599308 -167083087 -1433582167 251277559 123323448 -1992818138 789763061 -612047030 -1452322934 -2038348752 -1009551694 65517632 -1877659341 1068540160 1312042273 -1719815947 -1404080069 951825220 -1647931957 -1737656756 1324697348 859775172 -187173808
REM
CELL 1.54180   15.00000   15.00000   15.00000   90.00000   90.00000   90.00000
LATT -1
SFAC C  
C      1  0.5331170000000  0.2561860000000  0.4531830000000 1.0
C      1  0.2754670000000  0.3992990000000  0.4534360000000 1.0
C      1  0.3327160000000  0.6782720000000  0.4513930000000 1.0
C      1  0.6187860000000  0.7137770000000  0.4519600000000 1.0
C      1  0.7425740000000  0.4544930000000  0.4522810000000 1.0
C      1  0.5334540000000  0.2565390000000  0.5469960000000 1.0
C      1  0.2753370000000  0.3995780000000  0.5469550000000 1.0
C      1  0.3305680000000  0.6799310000000  0.5464670000000 1.0
C      1  0.6187240000000  0.7160480000000  0.5468930000000 1.0
C      1  0.7397040000000  0.4539540000000  0.5476950000000 1.0
C      1  0.5547790000000  0.4410570000000  0.6435580000000 1.0
C      1  0.4603060000000  0.4300740000000  0.6439760000000 1.0
C      1  0.4203370000000  0.5162310000000  0.6435570000000 1.0
C      1  0.4903580000000  0.5806520000000  0.6440030000000 1.0
C      1  0.5732480000000  0.5339330000000  0.6436510000000 1.0
C      1  0.5554070000000  0.4387550000000  0.3561570000000 1.0
C      1  0.4610060000000  0.4276040000000  0.3553680000000 1.0
C      1  0.4209750000000  0.5138360000000  0.3559100000000 1.0
C      1  0.4906330000000  0.5780360000000  0.3562680000000 1.0
C      1  0.5737600000000  0.5319280000000  0.3565670000000 1.0
C      1  0.3630190000000  0.2535730000000  0.4547020000000 1.0
C      1  0.2199900000000  0.5554550000000  0.4506300000000 1.0
C      1  0.4656950000000  0.7812300000000  0.4536460000000 1.0
C      1  0.7584270000000  0.6206660000000  0.4517320000000 1.0
C      1  0.6945420000000  0.2905120000000  0.4499290000000 1.0
C      1  0.3633580000000  0.2540320000000  0.5465270000000 1.0
C      1  0.2188380000000  0.5552410000000  0.5489350000000 1.0
C      1  0.4667800000000  0.7816740000000  0.5495730000000 1.0
C      1  0.7586410000000  0.6182650000000  0.5495830000000 1.0
C      1  0.6953280000000  0.2919140000000  0.5478370000000 1.0
C      1  0.7088640000000  0.3765090000000  0.4049690000000 1.0
C      1  0.4471660000000  0.2622620000000  0.4083560000000 1.0
C      1  0.2580390000000  0.4780570000000  0.4072600000000 1.0
C      1  0.4040480000000  0.7202160000000  0.4081050000000 1.0
C      1  0.6805150000000  0.6602600000000  0.4082280000000 1.0
C      1  0.7084440000000  0.3779150000000  0.5914960000000 1.0
C      1  0.4479810000000  0.2641180000000  0.5922260000000 1.0
C      1  0.2575600000000  0.4778980000000  0.5925990000000 1.0
C      1  0.4033320000000  0.7238290000000  0.5935570000000 1.0
C      1  0.6819420000000  0.6594160000000  0.5945010000000 1.0
C      1  0.4787650000000  0.6743100000000  0.3666170000000 1.0
C      1  0.6609140000000  0.5742520000000  0.3660170000000 1.0
C      1  0.6193440000000  0.3692660000000  0.3664100000000 1.0
C      1  0.4137050000000  0.3441640000000  0.3661120000000 1.0
C      1  0.3262360000000  0.5331600000000  0.3654320000000 1.0
C      1  0.4793660000000  0.6760480000000  0.6352870000000 1.0
C      1  0.6597530000000  0.5725050000000  0.6333120000000 1.0
C      1  0.6209880000000  0.3703740000000  0.6337760000000 1.0
C      1  0.4142470000000  0.3463610000000  0.6334010000000 1.0
C      1  0.3252890000000  0.5345100000000  0.6339920000000 1.0
C      1  0.2859270000000  0.6118490000000  0.4068520000000 1.0
C      1  0.5401580000000  0.7372950000000  0.4076670000000 1.0
C      1  0.7405910000000  0.5372210000000  0.4066660000000 1.0
C      1  0.6088760000000  0.2842990000000  0.4072580000000 1.0
C      1  0.3263390000000  0.3299870000000  0.4085370000000 1.0
C      1  0.2834890000000  0.6121290000000  0.5930800000000 1.0
C      1  0.5389890000000  0.7398530000000  0.5921910000000 1.0
C      1  0.7367660000000  0.5350030000000  0.5920900000000 1.0
C      1  0.6098670000000  0.2832120000000  0.5923240000000 1.0
C      1  0.3266300000000  0.3309750000000  0.5923130000000 1.0
END
