TITL C-1525613-7943-3112 0.102048381834946 3375 -8571.19501922912 0 0 60 (C2) n - 1
REM
REM in /home/nfs/bkarasulu/CARBON/AIRSS/Generating-Clusters/ReaxFF-fromJPCA2015/Units_Real/Try2-Higher-symm/Only-C60
REM
REM
REM
REM
REM
REM ./C.cell (863b2abdce7293c0672fb3ba77bf323a)
REM AIRSS Version 0.9.1 bugfix July 2018 build 013d7b7c2542+ Fri, 06 Jul 2018 19:26:36 +0100
REM compiler GCC version 9.2.1 20190827 (Red Hat 9.2.1-1)
REM options -cpp -mtune=generic -march=x86-64 -g -O0 -fpre-include=/usr/include/finclude/math-vector-fortran.h
REM seed 689353204 -1693330123 -816915789 1422842408 -1365644639 -794932710 1220935720 442730357 -1872413260 -1303792272 -49457314 -1627815753 1189354415 -1993749621 -1158497906 -704229979 -1330357686 1408702200 1895139987 -1281358605 410539803 -2071252732 -486706139 -1486361818 778533176 280565430 1486917547 -224543783 -1552770684 903855626 258604465 1076682281 292479309
REM
CELL 1.54180   15.00000   15.00000   15.00000   90.00000   90.00000   90.00000
LATT -1
SFAC C  
C      1  0.3744580000000  0.3682920000000  0.3371550000000 1.0
C      1  0.4523030000000  0.3322250000000  0.3837660000000 1.0
C      1  0.5391370000000  0.3214070000000  0.3407830000000 1.0
C      1  0.6211560000000  0.3645090000000  0.3761510000000 1.0
C      1  0.6727670000000  0.5526150000000  0.3725190000000 1.0
C      1  0.6255910000000  0.6317740000000  0.3371590000000 1.0
C      1  0.5476600000000  0.6677160000000  0.3837180000000 1.0
C      1  0.4608180000000  0.6786330000000  0.3407420000000 1.0
C      1  0.3788300000000  0.6355500000000  0.3760540000000 1.0
C      1  0.3272180000000  0.4473660000000  0.3725220000000 1.0
C      1  0.5287650000000  0.6064160000000  0.2364930000000 1.0
C      1  0.4425330000000  0.6369510000000  0.2496250000000 1.0
C      1  0.3613920000000  0.5903460000000  0.2923050000000 1.0
C      1  0.3366710000000  0.4966990000000  0.2903030000000 1.0
C      1  0.3822030000000  0.4150870000000  0.2466590000000 1.0
C      1  0.4712670000000  0.3936680000000  0.2365230000000 1.0
C      1  0.5575520000000  0.3631630000000  0.2496480000000 1.0
C      1  0.6386470000000  0.4097690000000  0.2924080000000 1.0
C      1  0.6633680000000  0.5033240000000  0.2902810000000 1.0
C      1  0.6178750000000  0.5850070000000  0.2466680000000 1.0
C      1  0.5889320000000  0.2653340000000  0.5532810000000 1.0
C      1  0.7042450000000  0.3724410000000  0.5371490000000 1.0
C      1  0.7429550000000  0.5241070000000  0.5280630000000 1.0
C      1  0.6895590000000  0.6492790000000  0.5685870000000 1.0
C      1  0.5698730000000  0.7478130000000  0.5475080000000 1.0
C      1  0.4109860000000  0.7345700000000  0.5530940000000 1.0
C      1  0.2956440000000  0.6275680000000  0.5370300000000 1.0
C      1  0.2571560000000  0.4758530000000  0.5282430000000 1.0
C      1  0.3104140000000  0.3505620000000  0.5687100000000 1.0
C      1  0.4301550000000  0.2523480000000  0.5478240000000 1.0
C      1  0.4427070000000  0.6530880000000  0.5156910000000 1.0
C      1  0.3716090000000  0.5981730000000  0.4694740000000 1.0
C      1  0.3421730000000  0.4816950000000  0.4665970000000 1.0
C      1  0.3770950000000  0.4009430000000  0.5140500000000 1.0
C      1  0.4540440000000  0.3392160000000  0.4837980000000 1.0
C      1  0.5572280000000  0.3467640000000  0.5157730000000 1.0
C      1  0.6283100000000  0.4017720000000  0.4695220000000 1.0
C      1  0.6577570000000  0.5182190000000  0.4665550000000 1.0
C      1  0.6229210000000  0.5989750000000  0.5140950000000 1.0
C      1  0.5458940000000  0.6606410000000  0.4836230000000 1.0
C      1  0.3058000000000  0.3311710000000  0.6681510000000 1.0
C      1  0.4329630000000  0.2881160000000  0.6338800000000 1.0
C      1  0.5888100000000  0.2884370000000  0.6359690000000 1.0
C      1  0.6850380000000  0.3922510000000  0.6286110000000 1.0
C      1  0.7401340000000  0.5245390000000  0.6265440000000 1.0
C      1  0.6942490000000  0.6688400000000  0.6681290000000 1.0
C      1  0.5670740000000  0.7117380000000  0.6338950000000 1.0
C      1  0.4111920000000  0.7116590000000  0.6357260000000 1.0
C      1  0.3150650000000  0.6077030000000  0.6284060000000 1.0
C      1  0.2598100000000  0.4754770000000  0.6267490000000 1.0
C      1  0.3431210000000  0.4798340000000  0.6869550000000 1.0
C      1  0.3779040000000  0.3912410000000  0.7111050000000 1.0
C      1  0.4648500000000  0.3488660000000  0.6985100000000 1.0
C      1  0.5651610000000  0.3561600000000  0.6999910000000 1.0
C      1  0.6343130000000  0.4267630000000  0.7007500000000 1.0
C      1  0.6568070000000  0.5202400000000  0.6867690000000 1.0
C      1  0.6220680000000  0.6088020000000  0.7109720000000 1.0
C      1  0.5352660000000  0.6511780000000  0.6982300000000 1.0
C      1  0.4348620000000  0.6438740000000  0.6999140000000 1.0
C      1  0.3656480000000  0.5732320000000  0.7005940000000 1.0
END
