TITL C-1525613-7943-1974 0.134720160521494 3375 -8906.38457530806 0 0 60 (C1) n - 1
REM
REM in /home/nfs/bkarasulu/CARBON/AIRSS/Generating-Clusters/ReaxFF-fromJPCA2015/Units_Real/Try2-Higher-symm/Only-C60
REM
REM
REM
REM
REM
REM ./C.cell (863b2abdce7293c0672fb3ba77bf323a)
REM AIRSS Version 0.9.1 bugfix July 2018 build 013d7b7c2542+ Fri, 06 Jul 2018 19:26:36 +0100
REM compiler GCC version 9.2.1 20190827 (Red Hat 9.2.1-1)
REM options -cpp -mtune=generic -march=x86-64 -g -O0 -fpre-include=/usr/include/finclude/math-vector-fortran.h
REM seed -2083935217 1967310788 188297386 -406742981 169091441 -1634739507 -322316821 -13802657 -500860079 910316922 1823128098 -1930885267 585299246 -1589405840 678284727 -678171936 66737566 2138261230 -162364402 -597648719 2001610281 2092804564 -811082799 1962861919 1280799540 -674018515 1801920743 -1711102679 -388619327 698064481 -813634945 -1168338150 -2105981773
REM
CELL 1.54180   15.00000   15.00000   15.00000   90.00000   90.00000   90.00000
LATT -1
SFAC C  
C      1  0.3036310000000  0.6263180000000  0.6108470000000 1.0
C      1  0.5472430000000  0.6249410000000  0.7157500000000 1.0
C      1  0.7286200000000  0.6257070000000  0.5182420000000 1.0
C      1  0.5936200000000  0.6159100000000  0.2816180000000 1.0
C      1  0.3317040000000  0.6120790000000  0.3444570000000 1.0
C      1  0.6960610000000  0.6261840000000  0.6108770000000 1.0
C      1  0.4531150000000  0.6249950000000  0.7140470000000 1.0
C      1  0.2711290000000  0.6257420000000  0.5180630000000 1.0
C      1  0.4064450000000  0.6159090000000  0.2815450000000 1.0
C      1  0.6683600000000  0.6119960000000  0.3445330000000 1.0
C      1  0.6954520000000  0.3636970000000  0.6087520000000 1.0
C      1  0.6656540000000  0.3978200000000  0.3617440000000 1.0
C      1  0.4120870000000  0.4004750000000  0.3000150000000 1.0
C      1  0.2720670000000  0.3648140000000  0.5169880000000 1.0
C      1  0.4515080000000  0.3677430000000  0.7184050000000 1.0
C      1  0.3045640000000  0.3637370000000  0.6087530000000 1.0
C      1  0.3342730000000  0.3978290000000  0.3618280000000 1.0
C      1  0.5878590000000  0.4004330000000  0.2999650000000 1.0
C      1  0.7278680000000  0.3649380000000  0.5169050000000 1.0
C      1  0.5488820000000  0.3673800000000  0.7185050000000 1.0
C      1  0.6895940000000  0.4622330000000  0.6069480000000 1.0
C      1  0.6357960000000  0.4704860000000  0.4097020000000 1.0
C      1  0.4410690000000  0.4820420000000  0.3543960000000 1.0
C      1  0.2870130000000  0.4625560000000  0.5160540000000 1.0
C      1  0.4541500000000  0.4661140000000  0.7177120000000 1.0
C      1  0.3101740000000  0.4623790000000  0.6070590000000 1.0
C      1  0.3640540000000  0.4705170000000  0.4097430000000 1.0
C      1  0.5589990000000  0.4820890000000  0.3543540000000 1.0
C      1  0.7126080000000  0.4625780000000  0.5160990000000 1.0
C      1  0.5466290000000  0.4657350000000  0.7180690000000 1.0
C      1  0.3737020000000  0.2975670000000  0.5851600000000 1.0
C      1  0.5487030000000  0.3020180000000  0.6438230000000 1.0
C      1  0.6563510000000  0.3007020000000  0.4917780000000 1.0
C      1  0.5482960000000  0.3184960000000  0.3404100000000 1.0
C      1  0.3716810000000  0.3126340000000  0.3988090000000 1.0
C      1  0.6266100000000  0.2972820000000  0.5851750000000 1.0
C      1  0.4515010000000  0.3020320000000  0.6438700000000 1.0
C      1  0.3435970000000  0.3005670000000  0.4917980000000 1.0
C      1  0.4516290000000  0.3184840000000  0.3403760000000 1.0
C      1  0.6283030000000  0.3125720000000  0.3987310000000 1.0
C      1  0.5489610000000  0.5298970000000  0.2665650000000 1.0
C      1  0.2983140000000  0.5261640000000  0.3845170000000 1.0
C      1  0.3267910000000  0.5430870000000  0.6565100000000 1.0
C      1  0.5974310000000  0.5441000000000  0.7117780000000 1.0
C      1  0.7426080000000  0.5419530000000  0.4716820000000 1.0
C      1  0.4510350000000  0.5298760000000  0.2665710000000 1.0
C      1  0.7016530000000  0.5261010000000  0.3845880000000 1.0
C      1  0.6731990000000  0.5427590000000  0.6568330000000 1.0
C      1  0.4035270000000  0.5455670000000  0.7110770000000 1.0
C      1  0.2571790000000  0.5419660000000  0.4714920000000 1.0
C      1  0.5489880000000  0.6936630000000  0.6456130000000 1.0
C      1  0.6579270000000  0.6911890000000  0.4936500000000 1.0
C      1  0.5487580000000  0.6841620000000  0.3396270000000 1.0
C      1  0.3737750000000  0.6797870000000  0.4020900000000 1.0
C      1  0.3731040000000  0.6922090000000  0.5871710000000 1.0
C      1  0.4505250000000  0.6928700000000  0.6456350000000 1.0
C      1  0.3417890000000  0.6912660000000  0.4935020000000 1.0
C      1  0.4513540000000  0.6841430000000  0.3396110000000 1.0
C      1  0.6262790000000  0.6797030000000  0.4022060000000 1.0
C      1  0.6262030000000  0.6918070000000  0.5873750000000 1.0
END
