TITL C-1525613-7943-6902 -0.00628264119979262 3375 -8743.07452319377 0 0 60 (D5h) n - 1
REM
REM in /home/nfs/bkarasulu/CARBON/AIRSS/Generating-Clusters/ReaxFF-fromJPCA2015/Units_Real/Try2-Higher-symm/Only-C60
REM
REM
REM
REM
REM
REM ./C.cell (863b2abdce7293c0672fb3ba77bf323a)
REM AIRSS Version 0.9.1 bugfix July 2018 build 013d7b7c2542+ Fri, 06 Jul 2018 19:26:36 +0100
REM compiler GCC version 9.2.1 20190827 (Red Hat 9.2.1-1)
REM options -cpp -mtune=generic -march=x86-64 -g -O0 -fpre-include=/usr/include/finclude/math-vector-fortran.h
REM seed 1714458109 -1947502608 -1176614645 -1527913599 -952318906 -1111740277 -580969377 52078503 -760242244 -1576185097 2107519999 624213234 1337144217 1577721544 1224720790 -1795401916 965610719 925600288 -680913081 1461647854 1890118347 -678653029 -1450440550 -927694582 1104391653 -1053225426 -1918791814 -1511937241 -526984914 -269120297 874697456 656272793 805792933
REM
CELL 1.54180   15.00000   15.00000   15.00000   90.00000   90.00000   90.00000
LATT -1
SFAC C  
C      1  0.3898710000000  0.4489980000000  0.7133890000000 1.0
C      1  0.3898800000000  0.6867720000000  0.6141640000000 1.0
C      1  0.3898950000000  0.6663610000000  0.3577580000000 1.0
C      1  0.3897740000000  0.4161020000000  0.2978230000000 1.0
C      1  0.3898950000000  0.2815450000000  0.5173970000000 1.0
C      1  0.6101290000000  0.4489980000000  0.7133890000000 1.0
C      1  0.6101200000000  0.6867720000000  0.6141640000000 1.0
C      1  0.6101050000000  0.6663610000000  0.3577580000000 1.0
C      1  0.6102260000000  0.4161020000000  0.2978230000000 1.0
C      1  0.6101050000000  0.2815450000000  0.5173970000000 1.0
C      1  0.6118280000000  0.5883480000000  0.3007030000000 1.0
C      1  0.6117910000000  0.3378070000000  0.3545510000000 1.0
C      1  0.6116580000000  0.3115430000000  0.6094530000000 1.0
C      1  0.6117700000000  0.5456990000000  0.7132480000000 1.0
C      1  0.6118330000000  0.7170480000000  0.5223760000000 1.0
C      1  0.3881720000000  0.5883480000000  0.3007030000000 1.0
C      1  0.3882090000000  0.3378070000000  0.3545510000000 1.0
C      1  0.3883420000000  0.3115430000000  0.6094530000000 1.0
C      1  0.3882300000000  0.5456990000000  0.7132480000000 1.0
C      1  0.3881670000000  0.7170480000000  0.5223760000000 1.0
C      1  0.3124420000000  0.6675720000000  0.5583980000000 1.0
C      1  0.3123400000000  0.6075340000000  0.3586550000000 1.0
C      1  0.3121760000000  0.3986960000000  0.3540690000000 1.0
C      1  0.3123810000000  0.3299630000000  0.5512170000000 1.0
C      1  0.3125130000000  0.4960920000000  0.6775290000000 1.0
C      1  0.6875580000000  0.6675720000000  0.5583980000000 1.0
C      1  0.6876600000000  0.6075340000000  0.3586550000000 1.0
C      1  0.6878240000000  0.3986960000000  0.3540690000000 1.0
C      1  0.6876190000000  0.3299630000000  0.5512170000000 1.0
C      1  0.6874870000000  0.4960920000000  0.6775290000000 1.0
C      1  0.4407960000000  0.5024840000000  0.3081800000000 1.0
C      1  0.4407420000000  0.3184220000000  0.4385840000000 1.0
C      1  0.4407090000000  0.3856300000000  0.6537500000000 1.0
C      1  0.4406810000000  0.6104380000000  0.6561800000000 1.0
C      1  0.4407240000000  0.6829900000000  0.4432460000000 1.0
C      1  0.5592040000000  0.5024840000000  0.3081800000000 1.0
C      1  0.5592580000000  0.3184220000000  0.4385840000000 1.0
C      1  0.5592910000000  0.3856300000000  0.6537500000000 1.0
C      1  0.5593190000000  0.6104380000000  0.6561800000000 1.0
C      1  0.5592760000000  0.6829900000000  0.4432460000000 1.0
C      1  0.4483950000000  0.5830280000000  0.4741940000000 1.0
C      1  0.4480090000000  0.5009990000000  0.4128290000000 1.0
C      1  0.4481140000000  0.4174290000000  0.4721440000000 1.0
C      1  0.4482410000000  0.4483460000000  0.5699000000000 1.0
C      1  0.4488540000000  0.5504140000000  0.5707510000000 1.0
C      1  0.5516050000000  0.5830280000000  0.4741940000000 1.0
C      1  0.5519910000000  0.5009990000000  0.4128290000000 1.0
C      1  0.5518860000000  0.4174290000000  0.4721440000000 1.0
C      1  0.5517590000000  0.4483460000000  0.5699000000000 1.0
C      1  0.5511460000000  0.5504140000000  0.5707510000000 1.0
C      1  0.2819370000000  0.4975860000000  0.5826120000000 1.0
C      1  0.2816960000000  0.5778430000000  0.5276610000000 1.0
C      1  0.2814370000000  0.5504510000000  0.4343680000000 1.0
C      1  0.2814250000000  0.4532410000000  0.4316500000000 1.0
C      1  0.2817950000000  0.4206190000000  0.5232220000000 1.0
C      1  0.7180630000000  0.4975860000000  0.5826120000000 1.0
C      1  0.7183040000000  0.5778430000000  0.5276610000000 1.0
C      1  0.7185630000000  0.5504510000000  0.4343680000000 1.0
C      1  0.7185750000000  0.4532410000000  0.4316500000000 1.0
C      1  0.7182050000000  0.4206190000000  0.5232220000000 1.0
END
