TITL C-1525613-7943-6421 0.0184972837940302 3375 -8631.37861748024 0 0 60 (C5) n - 1
REM
REM in /home/nfs/bkarasulu/CARBON/AIRSS/Generating-Clusters/ReaxFF-fromJPCA2015/Units_Real/Try2-Higher-symm/Only-C60
REM
REM
REM
REM
REM
REM ./C.cell (863b2abdce7293c0672fb3ba77bf323a)
REM AIRSS Version 0.9.1 bugfix July 2018 build 013d7b7c2542+ Fri, 06 Jul 2018 19:26:36 +0100
REM compiler GCC version 9.2.1 20190827 (Red Hat 9.2.1-1)
REM options -cpp -mtune=generic -march=x86-64 -g -O0 -fpre-include=/usr/include/finclude/math-vector-fortran.h
REM seed -99618381 308670060 -1415145612 -1848265121 836432769 -1761207110 -467300246 -785670930 -1700002138 1670291866 1727490606 111493413 641583910 -730198765 1434379985 1148494937 -321238345 -898929489 -1748461697 1409951375 408053652 -5682501 27921042 -27739089 335779889 201749659 -1617214417 -1624503494 -1944867253 -671872826 -1620378145 696299521 -2133543409
REM
CELL 1.54180   15.00000   15.00000   15.00000   90.00000   90.00000   90.00000
LATT -1
SFAC C  
C      1  0.4209660000000  0.5299390000000  0.4469970000000 1.0
C      1  0.4483800000000  0.4349950000000  0.4501670000000 1.0
C      1  0.5466300000000  0.4273600000000  0.4470640000000 1.0
C      1  0.5806360000000  0.5197950000000  0.4501650000000 1.0
C      1  0.5057770000000  0.5816140000000  0.4497610000000 1.0
C      1  0.4209660000000  0.5299390000000  0.5530030000000 1.0
C      1  0.4483800000000  0.4349950000000  0.5498330000000 1.0
C      1  0.5466300000000  0.4273600000000  0.5529360000000 1.0
C      1  0.5806360000000  0.5197950000000  0.5498350000000 1.0
C      1  0.5057770000000  0.5816140000000  0.5502390000000 1.0
C      1  0.6269280000000  0.6764860000000  0.5497330000000 1.0
C      1  0.3707520000000  0.6787070000000  0.5498750000000 1.0
C      1  0.2952610000000  0.4319300000000  0.5488540000000 1.0
C      1  0.5004020000000  0.2790960000000  0.5499050000000 1.0
C      1  0.7060160000000  0.4344760000000  0.5488780000000 1.0
C      1  0.6269280000000  0.6764860000000  0.4502670000000 1.0
C      1  0.3707520000000  0.6787070000000  0.4501250000000 1.0
C      1  0.2952610000000  0.4319300000000  0.4511460000000 1.0
C      1  0.5004020000000  0.2790960000000  0.4500950000000 1.0
C      1  0.7060160000000  0.4344760000000  0.4511220000000 1.0
C      1  0.4579280000000  0.6521350000000  0.6996130000000 1.0
C      1  0.3444480000000  0.5073420000000  0.7001390000000 1.0
C      1  0.4450100000000  0.3526320000000  0.6992160000000 1.0
C      1  0.6217160000000  0.4032200000000  0.7000170000000 1.0
C      1  0.6309880000000  0.5875130000000  0.6992830000000 1.0
C      1  0.4579280000000  0.6521350000000  0.3003870000000 1.0
C      1  0.3444480000000  0.5073420000000  0.2998610000000 1.0
C      1  0.4450100000000  0.3526320000000  0.3007840000000 1.0
C      1  0.6217160000000  0.4032200000000  0.2999830000000 1.0
C      1  0.6309880000000  0.5875130000000  0.3007170000000 1.0
C      1  0.4024450000000  0.4352480000000  0.2807640000000 1.0
C      1  0.5308350000000  0.3877340000000  0.2801080000000 1.0
C      1  0.6159200000000  0.4956380000000  0.2813780000000 1.0
C      1  0.5411110000000  0.6108880000000  0.2807440000000 1.0
C      1  0.4096280000000  0.5727370000000  0.2804510000000 1.0
C      1  0.4024450000000  0.4352480000000  0.7192360000000 1.0
C      1  0.5308350000000  0.3877340000000  0.7198920000000 1.0
C      1  0.6159200000000  0.4956380000000  0.7186220000000 1.0
C      1  0.5411110000000  0.6108880000000  0.7192560000000 1.0
C      1  0.4096280000000  0.5727370000000  0.7195490000000 1.0
C      1  0.5885810000000  0.3044000000000  0.4211240000000 1.0
C      1  0.7092480000000  0.5260860000000  0.4217770000000 1.0
C      1  0.5398840000000  0.7065140000000  0.4217540000000 1.0
C      1  0.3149480000000  0.6058650000000  0.4214670000000 1.0
C      1  0.3463910000000  0.3557640000000  0.4222250000000 1.0
C      1  0.5885810000000  0.3044000000000  0.5788760000000 1.0
C      1  0.7092480000000  0.5260860000000  0.5782230000000 1.0
C      1  0.5398840000000  0.7065140000000  0.5782460000000 1.0
C      1  0.3149480000000  0.6058650000000  0.5785330000000 1.0
C      1  0.3463910000000  0.3557640000000  0.5777750000000 1.0
C      1  0.6564250000000  0.3652380000000  0.3937580000000 1.0
C      1  0.6749270000000  0.6098220000000  0.3934210000000 1.0
C      1  0.4498370000000  0.7014790000000  0.3929820000000 1.0
C      1  0.2948070000000  0.5171500000000  0.3939460000000 1.0
C      1  0.4231740000000  0.3081990000000  0.3933380000000 1.0
C      1  0.6564250000000  0.3652380000000  0.6062420000000 1.0
C      1  0.6749270000000  0.6098220000000  0.6065790000000 1.0
C      1  0.4498370000000  0.7014790000000  0.6070180000000 1.0
C      1  0.2948070000000  0.5171500000000  0.6060540000000 1.0
C      1  0.4231740000000  0.3081990000000  0.6066620000000 1.0
END
