TITL C-1525613-7943-2982 -0.0737160989347493 3375 -8759.6022542764 0 0 60 (C1) n - 1
REM
REM in /home/nfs/bkarasulu/CARBON/AIRSS/Generating-Clusters/ReaxFF-fromJPCA2015/Units_Real/Try2-Higher-symm/Only-C60
REM
REM
REM
REM
REM
REM ./C.cell (863b2abdce7293c0672fb3ba77bf323a)
REM AIRSS Version 0.9.1 bugfix July 2018 build 013d7b7c2542+ Fri, 06 Jul 2018 19:26:36 +0100
REM compiler GCC version 9.2.1 20190827 (Red Hat 9.2.1-1)
REM options -cpp -mtune=generic -march=x86-64 -g -O0 -fpre-include=/usr/include/finclude/math-vector-fortran.h
REM seed -1831019544 -1116525084 857691428 372580456 1585674322 -2146653073 420441454 1539010070 932496499 -78269531 -1492979957 -1825438245 1283174843 345165810 1792600792 -817211580 -1005292126 1548071250 -1889734262 -1598697852 116227225 1169974285 1197107684 1207228331 -1612155224 -1121325589 -2010759412 97527532 -1876994800 -2115068710 1558040442 170031593 -2145713737
REM
CELL 1.54180   15.00000   15.00000   15.00000   90.00000   90.00000   90.00000
LATT -1
SFAC C  
C      1  0.6312190000000  0.5485480000000  0.7304970000000 1.0
C      1  0.6220620000000  0.4014630000000  0.7085500000000 1.0
C      1  0.6793980000000  0.2889190000000  0.6187940000000 1.0
C      1  0.6215930000000  0.2885480000000  0.4631630000000 1.0
C      1  0.6150090000000  0.3248280000000  0.3727980000000 1.0
C      1  0.6244560000000  0.4529360000000  0.2725440000000 1.0
C      1  0.6257960000000  0.5990870000000  0.2896740000000 1.0
C      1  0.6811160000000  0.7130380000000  0.3838050000000 1.0
C      1  0.6220060000000  0.7129440000000  0.5372910000000 1.0
C      1  0.6165890000000  0.6767550000000  0.6277640000000 1.0
C      1  0.5787970000000  0.7075230000000  0.3891470000000 1.0
C      1  0.5450570000000  0.7121450000000  0.4785750000000 1.0
C      1  0.5292980000000  0.6563320000000  0.6679710000000 1.0
C      1  0.5367020000000  0.5764980000000  0.7236440000000 1.0
C      1  0.5376620000000  0.3642630000000  0.6732070000000 1.0
C      1  0.5770500000000  0.2951970000000  0.6137710000000 1.0
C      1  0.5451570000000  0.2936130000000  0.5232440000000 1.0
C      1  0.5270970000000  0.3467180000000  0.3343810000000 1.0
C      1  0.5297500000000  0.4260380000000  0.2774760000000 1.0
C      1  0.5439410000000  0.6358410000000  0.3309960000000 1.0
C      1  0.3033160000000  0.2616290000000  0.5207490000000 1.0
C      1  0.3131360000000  0.2665640000000  0.4233800000000 1.0
C      1  0.3088580000000  0.3791750000000  0.2880220000000 1.0
C      1  0.3156100000000  0.5518610000000  0.2649710000000 1.0
C      1  0.3026130000000  0.6339280000000  0.3196460000000 1.0
C      1  0.3049920000000  0.7211750000000  0.4760750000000 1.0
C      1  0.3159260000000  0.7203980000000  0.5732760000000 1.0
C      1  0.3162300000000  0.5972410000000  0.6897080000000 1.0
C      1  0.3197540000000  0.4798860000000  0.7371880000000 1.0
C      1  0.3074520000000  0.3696070000000  0.6716010000000 1.0
C      1  0.3847930000000  0.7403290000000  0.5168720000000 1.0
C      1  0.3540260000000  0.6535510000000  0.6340220000000 1.0
C      1  0.3693820000000  0.5464420000000  0.7262540000000 1.0
C      1  0.3769070000000  0.4061160000000  0.7200230000000 1.0
C      1  0.3224130000000  0.3367020000000  0.5862980000000 1.0
C      1  0.3890990000000  0.2517770000000  0.4809850000000 1.0
C      1  0.3552690000000  0.3331850000000  0.3636720000000 1.0
C      1  0.3594310000000  0.4658720000000  0.2836930000000 1.0
C      1  0.3877900000000  0.6119270000000  0.2827650000000 1.0
C      1  0.3269250000000  0.6497700000000  0.4130870000000 1.0
C      1  0.4104750000000  0.3777150000000  0.5735690000000 1.0
C      1  0.4554880000000  0.3309950000000  0.4967370000000 1.0
C      1  0.4462470000000  0.3743710000000  0.3865460000000 1.0
C      1  0.4498670000000  0.4658570000000  0.3288260000000 1.0
C      1  0.4581760000000  0.5818140000000  0.3509440000000 1.0
C      1  0.4143800000000  0.6197420000000  0.4315410000000 1.0
C      1  0.4550100000000  0.6733000000000  0.5060270000000 1.0
C      1  0.4504530000000  0.6228800000000  0.6162620000000 1.0
C      1  0.4572440000000  0.5368110000000  0.6734430000000 1.0
C      1  0.4558390000000  0.4207260000000  0.6508250000000 1.0
C      1  0.6974100000000  0.5652690000000  0.3534670000000 1.0
C      1  0.7248140000000  0.6335300000000  0.4222320000000 1.0
C      1  0.6987470000000  0.6496950000000  0.5169840000000 1.0
C      1  0.6914990000000  0.6129460000000  0.6070140000000 1.0
C      1  0.7014100000000  0.5312290000000  0.6619100000000 1.0
C      1  0.6946320000000  0.4341580000000  0.6455670000000 1.0
C      1  0.7242210000000  0.3661770000000  0.5770360000000 1.0
C      1  0.6997300000000  0.3495740000000  0.4821150000000 1.0
C      1  0.6919590000000  0.3864020000000  0.3920820000000 1.0
C      1  0.6987270000000  0.4684390000000  0.3372920000000 1.0
END
