TITL C-1525613-7943-3254 1.1039277396316 3375 -7905.90247149615 0 0 60 (C1) n - 1
REM
REM in /home/nfs/bkarasulu/CARBON/AIRSS/Generating-Clusters/ReaxFF-fromJPCA2015/Units_Real/Try2-Higher-symm/Only-C60
REM
REM
REM
REM
REM
REM ./C.cell (863b2abdce7293c0672fb3ba77bf323a)
REM AIRSS Version 0.9.1 bugfix July 2018 build 013d7b7c2542+ Fri, 06 Jul 2018 19:26:36 +0100
REM compiler GCC version 9.2.1 20190827 (Red Hat 9.2.1-1)
REM options -cpp -mtune=generic -march=x86-64 -g -O0 -fpre-include=/usr/include/finclude/math-vector-fortran.h
REM seed 1748192122 -1792352169 -1953766090 -1722473062 -2018507158 -301370169 -199764777 -964780864 -1395374411 -1475824041 483320710 37873508 914860182 -1349759258 -908143591 -562193472 958767620 -1312584796 1543160934 1706741228 1785311719 -1952260329 -200501969 -956678173 2036751561 1604501989 36595540 535048583 1727440759 1273466706 472454337 -2014678939 -30868162
REM
CELL 1.54180   15.00000   15.00000   15.00000   90.00000   90.00000   90.00000
LATT -1
SFAC C  
C      1  0.4313060000000  0.3237140000000  0.5866470000000 1.0
C      1  0.5520800000000  0.3254300000000  0.4189620000000 1.0
C      1  0.6455360000000  0.3814280000000  0.5875380000000 1.0
C      1  0.6888630000000  0.4891340000000  0.4127370000000 1.0
C      1  0.6593440000000  0.6029860000000  0.5855640000000 1.0
C      1  0.5614730000000  0.6734440000000  0.4208100000000 1.0
C      1  0.4477550000000  0.6753360000000  0.5794430000000 1.0
C      1  0.3546020000000  0.6123350000000  0.4199340000000 1.0
C      1  0.3168140000000  0.5029460000000  0.5807990000000 1.0
C      1  0.3493670000000  0.3970440000000  0.4182490000000 1.0
C      1  0.2930660000000  0.4173490000000  0.5393450000000 1.0
C      1  0.3830030000000  0.3132450000000  0.4532190000000 1.0
C      1  0.5100970000000  0.2822540000000  0.5414980000000 1.0
C      1  0.6424590000000  0.3296070000000  0.4550890000000 1.0
C      1  0.7120360000000  0.4438310000000  0.5476970000000 1.0
C      1  0.7024320000000  0.5780490000000  0.4518420000000 1.0
C      1  0.6195510000000  0.6812040000000  0.5424350000000 1.0
C      1  0.4856360000000  0.7214540000000  0.4592490000000 1.0
C      1  0.3587010000000  0.6699230000000  0.5414160000000 1.0
C      1  0.2864420000000  0.5548910000000  0.4585590000000 1.0
C      1  0.5160890000000  0.3499030000000  0.6917690000000 1.0
C      1  0.5991830000000  0.3854010000000  0.3100400000000 1.0
C      1  0.6499170000000  0.4690100000000  0.6912860000000 1.0
C      1  0.6398410000000  0.5600820000000  0.3085220000000 1.0
C      1  0.5759690000000  0.6320020000000  0.6906410000000 1.0
C      1  0.4878760000000  0.6525750000000  0.3106630000000 1.0
C      1  0.4002080000000  0.6151860000000  0.6892930000000 1.0
C      1  0.3517410000000  0.5364670000000  0.3098740000000 1.0
C      1  0.3617000000000  0.4400780000000  0.6903470000000 1.0
C      1  0.4213040000000  0.3703610000000  0.3104520000000 1.0
C      1  0.3477230000000  0.3357380000000  0.5378220000000 1.0
C      1  0.4747810000000  0.2814750000000  0.4536620000000 1.0
C      1  0.6058430000000  0.3063620000000  0.5386130000000 1.0
C      1  0.7024170000000  0.4063660000000  0.4613380000000 1.0
C      1  0.7167530000000  0.5421430000000  0.5374810000000 1.0
C      1  0.6490750000000  0.6599610000000  0.4543110000000 1.0
C      1  0.5259800000000  0.7164790000000  0.5477380000000 1.0
C      1  0.3916210000000  0.6923170000000  0.4556400000000 1.0
C      1  0.3000450000000  0.5900930000000  0.5476150000000 1.0
C      1  0.2843360000000  0.4564390000000  0.4512760000000 1.0
C      1  0.5841410000000  0.6544900000000  0.3305950000000 1.0
C      1  0.4784060000000  0.6754860000000  0.6674690000000 1.0
C      1  0.3806870000000  0.6279810000000  0.3298210000000 1.0
C      1  0.3286530000000  0.5349150000000  0.6688790000000 1.0
C      1  0.3402360000000  0.4275070000000  0.3305880000000 1.0
C      1  0.4176730000000  0.3501260000000  0.6793140000000 1.0
C      1  0.5200660000000  0.3276140000000  0.3291960000000 1.0
C      1  0.6198730000000  0.3761200000000  0.6796180000000 1.0
C      1  0.6685060000000  0.4666810000000  0.3211600000000 1.0
C      1  0.6558820000000  0.5770010000000  0.6781130000000 1.0
C      1  0.4291880000000  0.5140000000000  0.3576730000000 1.0
C      1  0.4345790000000  0.4701960000000  0.6404340000000 1.0
C      1  0.4636680000000  0.4374360000000  0.3582210000000 1.0
C      1  0.5104480000000  0.4284060000000  0.6385160000000 1.0
C      1  0.5488200000000  0.4476360000000  0.3596150000000 1.0
C      1  0.5726860000000  0.4879910000000  0.6397610000000 1.0
C      1  0.5661020000000  0.5318260000000  0.3611230000000 1.0
C      1  0.5348160000000  0.5644480000000  0.6407110000000 1.0
C      1  0.4913100000000  0.5720920000000  0.3577570000000 1.0
C      1  0.4512910000000  0.5540060000000  0.6420180000000 1.0
END
