TITL C-1525613-7943-1011 0.0243230114923748 3375 -8725.81938006156 0 0 60 (C1) n - 1
REM
REM in /home/nfs/bkarasulu/CARBON/AIRSS/Generating-Clusters/ReaxFF-fromJPCA2015/Units_Real/Try2-Higher-symm/Only-C60
REM
REM
REM
REM
REM
REM ./C.cell (863b2abdce7293c0672fb3ba77bf323a)
REM AIRSS Version 0.9.1 bugfix July 2018 build 013d7b7c2542+ Fri, 06 Jul 2018 19:26:36 +0100
REM compiler GCC version 9.2.1 20190827 (Red Hat 9.2.1-1)
REM options -cpp -mtune=generic -march=x86-64 -g -O0 -fpre-include=/usr/include/finclude/math-vector-fortran.h
REM seed 1393139195 681966688 -1720456324 -448570827 429671006 -1695353055 -1298311978 -1147509630 -873121818 1038216528 1373368667 1821712459 766528311 1652197731 -572560243 -2101936981 1201961762 701521063 -1747366526 -1150388576 1445817768 -560190938 2135659499 76616733 582310713 -1541991018 -909595326 1042652413 -1289914941 401890999 2051773148 1254725065 28404705
REM
CELL 1.54180   15.00000   15.00000   15.00000   90.00000   90.00000   90.00000
LATT -1
SFAC C  
C      1  0.4572880000000  0.2034970000000  0.3237090000000 1.0
C      1  0.4630170000000  0.2409800000000  0.7183980000000 1.0
C      1  0.4559400000000  0.6317000000000  0.8128820000000 1.0
C      1  0.4599520000000  0.8444400000000  0.4764910000000 1.0
C      1  0.4442350000000  0.5683260000000  0.1959840000000 1.0
C      1  0.5427610000000  0.2007260000000  0.3213990000000 1.0
C      1  0.5484600000000  0.2446510000000  0.7248100000000 1.0
C      1  0.5417330000000  0.6295620000000  0.8189590000000 1.0
C      1  0.5456020000000  0.8444760000000  0.4702370000000 1.0
C      1  0.5603250000000  0.5602130000000  0.1967540000000 1.0
C      1  0.3230140000000  0.5608680000000  0.6475480000000 1.0
C      1  0.3306590000000  0.6650000000000  0.5030260000000 1.0
C      1  0.3363710000000  0.5510280000000  0.3495430000000 1.0
C      1  0.3390090000000  0.3728390000000  0.4116740000000 1.0
C      1  0.3384030000000  0.3816480000000  0.5954760000000 1.0
C      1  0.6593640000000  0.5617950000000  0.6444960000000 1.0
C      1  0.6659610000000  0.6599710000000  0.4890070000000 1.0
C      1  0.6580610000000  0.5342000000000  0.3537430000000 1.0
C      1  0.6650500000000  0.3604830000000  0.4157640000000 1.0
C      1  0.6688800000000  0.3833380000000  0.6020380000000 1.0
C      1  0.3596390000000  0.3097830000000  0.6527060000000 1.0
C      1  0.3442930000000  0.6007060000000  0.7283340000000 1.0
C      1  0.3529470000000  0.7544570000000  0.4934110000000 1.0
C      1  0.3766790000000  0.5613440000000  0.2656080000000 1.0
C      1  0.3568280000000  0.2904180000000  0.3692560000000 1.0
C      1  0.6526670000000  0.3170820000000  0.6660830000000 1.0
C      1  0.6443720000000  0.5930910000000  0.7323580000000 1.0
C      1  0.6495260000000  0.7509380000000  0.4764810000000 1.0
C      1  0.6249200000000  0.5439710000000  0.2675680000000 1.0
C      1  0.6469150000000  0.2813940000000  0.3680980000000 1.0
C      1  0.6178670000000  0.5633510000000  0.1340600000000 1.0
C      1  0.6234090000000  0.2169750000000  0.3297260000000 1.0
C      1  0.6285730000000  0.2625250000000  0.7172540000000 1.0
C      1  0.6223730000000  0.6195590000000  0.8029970000000 1.0
C      1  0.6256530000000  0.8253260000000  0.4671490000000 1.0
C      1  0.3889190000000  0.5770320000000  0.1316190000000 1.0
C      1  0.3779090000000  0.2231050000000  0.3347560000000 1.0
C      1  0.3831610000000  0.2518000000000  0.7001070000000 1.0
C      1  0.3783400000000  0.6288920000000  0.7961370000000 1.0
C      1  0.3802610000000  0.8277340000000  0.4844200000000 1.0
C      1  0.3634390000000  0.6178150000000  0.4209580000000 1.0
C      1  0.3614540000000  0.4511330000000  0.3522610000000 1.0
C      1  0.3810710000000  0.3680890000000  0.5039710000000 1.0
C      1  0.3595080000000  0.4675700000000  0.6421770000000 1.0
C      1  0.3678580000000  0.6289290000000  0.5899080000000 1.0
C      1  0.6229150000000  0.6056250000000  0.4173710000000 1.0
C      1  0.6246020000000  0.4391590000000  0.3623060000000 1.0
C      1  0.6421450000000  0.3478820000000  0.5119670000000 1.0
C      1  0.6221150000000  0.4676090000000  0.6279360000000 1.0
C      1  0.6352320000000  0.6343140000000  0.5808960000000 1.0
C      1  0.5532680000000  0.3480440000000  0.4980940000000 1.0
C      1  0.5324410000000  0.4615750000000  0.6328460000000 1.0
C      1  0.5462650000000  0.6289240000000  0.5960540000000 1.0
C      1  0.5334690000000  0.6075710000000  0.4144880000000 1.0
C      1  0.5341170000000  0.4375610000000  0.3586850000000 1.0
C      1  0.4698820000000  0.3578770000000  0.5012320000000 1.0
C      1  0.4485960000000  0.4566730000000  0.6374710000000 1.0
C      1  0.4618050000000  0.6288350000000  0.5936400000000 1.0
C      1  0.4499250000000  0.6097290000000  0.4122510000000 1.0
C      1  0.4505550000000  0.4358630000000  0.3554230000000 1.0
END
