TITL C-1525613-7943-5186 0.0136085329510827 3375 -9321.17970015043 0 0 60 (C5) n - 1
REM
REM in /home/nfs/bkarasulu/CARBON/AIRSS/Generating-Clusters/ReaxFF-fromJPCA2015/Units_Real/Try2-Higher-symm/Only-C60
REM
REM
REM
REM
REM
REM ./C.cell (863b2abdce7293c0672fb3ba77bf323a)
REM AIRSS Version 0.9.1 bugfix July 2018 build 013d7b7c2542+ Fri, 06 Jul 2018 19:26:36 +0100
REM compiler GCC version 9.2.1 20190827 (Red Hat 9.2.1-1)
REM options -cpp -mtune=generic -march=x86-64 -g -O0 -fpre-include=/usr/include/finclude/math-vector-fortran.h
REM seed -1316543707 -500909805 2101357473 621526547 385717336 1716684957 -1584845352 -50984073 -1338379613 -511260176 -1402234171 -608347700 -1993462175 1742503895 833153543 -2054528988 1450576107 1070684365 1600069519 1722012704 -303076050 -2091147128 1729111547 -1964478685 1423437228 1437474254 1019497539 1133661056 559327138 -1671938780 -182592491 1126573727 -336079771
REM
CELL 1.54180   15.00000   15.00000   15.00000   90.00000   90.00000   90.00000
LATT -1
SFAC C  
C      1  0.5497980000000  0.6894250000000  0.6798670000000 1.0
C      1  0.5496810000000  0.7293290000000  0.3761220000000 1.0
C      1  0.5502370000000  0.4526100000000  0.2434000000000 1.0
C      1  0.5494790000000  0.2420120000000  0.4659010000000 1.0
C      1  0.5497400000000  0.3873830000000  0.7349350000000 1.0
C      1  0.5501380000000  0.3107710000000  0.6797330000000 1.0
C      1  0.5494660000000  0.2712470000000  0.3760570000000 1.0
C      1  0.5499440000000  0.5470250000000  0.2436960000000 1.0
C      1  0.5496840000000  0.7587770000000  0.4658770000000 1.0
C      1  0.5497090000000  0.6128220000000  0.7350970000000 1.0
C      1  0.3202480000000  0.3403220000000  0.4990880000000 1.0
C      1  0.3212270000000  0.4504390000000  0.6501360000000 1.0
C      1  0.3210950000000  0.6285520000000  0.5938910000000 1.0
C      1  0.3209610000000  0.6291680000000  0.4075050000000 1.0
C      1  0.3218080000000  0.4515520000000  0.3495870000000 1.0
C      1  0.3208150000000  0.6595170000000  0.4994180000000 1.0
C      1  0.3211800000000  0.5499660000000  0.6503720000000 1.0
C      1  0.3216420000000  0.3721120000000  0.5933180000000 1.0
C      1  0.3202790000000  0.3703430000000  0.4070550000000 1.0
C      1  0.3214380000000  0.5483010000000  0.3495200000000 1.0
C      1  0.6150280000000  0.6682890000000  0.3476690000000 1.0
C      1  0.6159670000000  0.4065140000000  0.2920690000000 1.0
C      1  0.6153110000000  0.2737770000000  0.5246240000000 1.0
C      1  0.6146120000000  0.4535610000000  0.7216150000000 1.0
C      1  0.6153830000000  0.6980200000000  0.6133510000000 1.0
C      1  0.6152700000000  0.3315160000000  0.3472440000000 1.0
C      1  0.6149220000000  0.5927600000000  0.2931950000000 1.0
C      1  0.6152030000000  0.7265810000000  0.5247090000000 1.0
C      1  0.6149430000000  0.5466790000000  0.7221620000000 1.0
C      1  0.6159550000000  0.3020510000000  0.6133380000000 1.0
C      1  0.4523650000000  0.7664190000000  0.4651840000000 1.0
C      1  0.4527030000000  0.5486300000000  0.2367790000000 1.0
C      1  0.4521830000000  0.2641320000000  0.3719600000000 1.0
C      1  0.4527670000000  0.3051500000000  0.6842130000000 1.0
C      1  0.4524290000000  0.6156260000000  0.7418920000000 1.0
C      1  0.4521910000000  0.2338350000000  0.4650270000000 1.0
C      1  0.4528700000000  0.4507540000000  0.2365910000000 1.0
C      1  0.4523930000000  0.7358580000000  0.3721710000000 1.0
C      1  0.4524580000000  0.6950530000000  0.6846480000000 1.0
C      1  0.4525070000000  0.3844940000000  0.7415250000000 1.0
C      1  0.3819590000000  0.6744870000000  0.3434320000000 1.0
C      1  0.3824040000000  0.4047240000000  0.2862640000000 1.0
C      1  0.3812460000000  0.2658820000000  0.5241670000000 1.0
C      1  0.3821200000000  0.4510590000000  0.7286520000000 1.0
C      1  0.3819240000000  0.7035170000000  0.6175110000000 1.0
C      1  0.3812980000000  0.3248840000000  0.3429890000000 1.0
C      1  0.3822960000000  0.5949030000000  0.2863190000000 1.0
C      1  0.3817240000000  0.7339860000000  0.5244480000000 1.0
C      1  0.3821030000000  0.5490230000000  0.7288810000000 1.0
C      1  0.3822510000000  0.2970170000000  0.6170040000000 1.0
C      1  0.6796240000000  0.6283670000000  0.5935430000000 1.0
C      1  0.6792850000000  0.6280740000000  0.4077610000000 1.0
C      1  0.6802350000000  0.4511050000000  0.3492550000000 1.0
C      1  0.6795290000000  0.3414290000000  0.4994300000000 1.0
C      1  0.6786480000000  0.4508300000000  0.6493700000000 1.0
C      1  0.6802220000000  0.3717470000000  0.5932730000000 1.0
C      1  0.6794940000000  0.3714210000000  0.4073740000000 1.0
C      1  0.6789700000000  0.5480730000000  0.3501140000000 1.0
C      1  0.6793880000000  0.6586760000000  0.4997610000000 1.0
C      1  0.6792510000000  0.5494260000000  0.6499130000000 1.0
END
