TITL C-1525613-7943-4978 -0.0973768613512259 3375 -8439.30508074773 0 0 60 (C5) n - 1
REM
REM in /home/nfs/bkarasulu/CARBON/AIRSS/Generating-Clusters/ReaxFF-fromJPCA2015/Units_Real/Try2-Higher-symm/Only-C60
REM
REM
REM
REM
REM
REM ./C.cell (863b2abdce7293c0672fb3ba77bf323a)
REM AIRSS Version 0.9.1 bugfix July 2018 build 013d7b7c2542+ Fri, 06 Jul 2018 19:26:36 +0100
REM compiler GCC version 9.2.1 20190827 (Red Hat 9.2.1-1)
REM options -cpp -mtune=generic -march=x86-64 -g -O0 -fpre-include=/usr/include/finclude/math-vector-fortran.h
REM seed -736442305 1783976747 -2000500350 384709719 -1453854182 -1586979170 1828878510 1216916956 702978371 842337730 -713610334 -1090194430 2099501342 -22214381 -343754946 338236563 660411728 -1963542121 -1785558664 529174270 1061977449 -1504848518 -1939070390 1648301409 1301920724 1096362050 -713594890 1518761645 -2099387478 -571212991 797149355 1023292913 -854440360
REM
CELL 1.54180   15.00000   15.00000   15.00000   90.00000   90.00000   90.00000
LATT -1
SFAC C  
C      1  0.6113790000000  0.2782470000000  0.4750510000000 1.0
C      1  0.5581190000000  0.2782290000000  0.5981930000000 1.0
C      1  0.4245230000000  0.2783000000000  0.5855770000000 1.0
C      1  0.3952880000000  0.2782250000000  0.4547360000000 1.0
C      1  0.5107070000000  0.2782600000000  0.3864170000000 1.0
C      1  0.6113790000000  0.7217530000000  0.4750510000000 1.0
C      1  0.5581190000000  0.7217710000000  0.5981930000000 1.0
C      1  0.4245230000000  0.7217000000000  0.5855770000000 1.0
C      1  0.3952880000000  0.7217750000000  0.4547360000000 1.0
C      1  0.5107070000000  0.7217400000000  0.3864170000000 1.0
C      1  0.2844190000000  0.3642150000000  0.5526540000000 1.0
C      1  0.3832520000000  0.3640810000000  0.3111020000000 1.0
C      1  0.6435340000000  0.3642290000000  0.3306030000000 1.0
C      1  0.7054500000000  0.3641330000000  0.5841580000000 1.0
C      1  0.4834630000000  0.3642240000000  0.7213440000000 1.0
C      1  0.2844190000000  0.6357850000000  0.5526540000000 1.0
C      1  0.3832520000000  0.6359190000000  0.3111020000000 1.0
C      1  0.6435340000000  0.6357710000000  0.3306030000000 1.0
C      1  0.7054500000000  0.6358670000000  0.5841580000000 1.0
C      1  0.4834630000000  0.6357760000000  0.7213440000000 1.0
C      1  0.5167440000000  0.5486770000000  0.3235740000000 1.0
C      1  0.6727320000000  0.5488490000000  0.4612790000000 1.0
C      1  0.5902260000000  0.5488510000000  0.6524710000000 1.0
C      1  0.3827640000000  0.5488570000000  0.6329940000000 1.0
C      1  0.3374690000000  0.5489270000000  0.4298710000000 1.0
C      1  0.5167440000000  0.4513230000000  0.3235740000000 1.0
C      1  0.6727320000000  0.4511510000000  0.4612790000000 1.0
C      1  0.5902260000000  0.4511490000000  0.6524710000000 1.0
C      1  0.3827640000000  0.4511430000000  0.6329940000000 1.0
C      1  0.3374690000000  0.4510730000000  0.4298710000000 1.0
C      1  0.4868820000000  0.2954490000000  0.6391950000000 1.0
C      1  0.3635430000000  0.2954370000000  0.5305790000000 1.0
C      1  0.4288190000000  0.2953460000000  0.3797330000000 1.0
C      1  0.5924110000000  0.2954120000000  0.3950920000000 1.0
C      1  0.6283370000000  0.2953930000000  0.5554190000000 1.0
C      1  0.4868820000000  0.7045510000000  0.6391950000000 1.0
C      1  0.3635430000000  0.7045630000000  0.5305790000000 1.0
C      1  0.4288190000000  0.7046540000000  0.3797330000000 1.0
C      1  0.5924110000000  0.7045880000000  0.3950920000000 1.0
C      1  0.6283370000000  0.7046070000000  0.5554190000000 1.0
C      1  0.6099040000000  0.4419800000000  0.2935750000000 1.0
C      1  0.7303860000000  0.4418940000000  0.5408720000000 1.0
C      1  0.5323410000000  0.4419210000000  0.7316810000000 1.0
C      1  0.2896850000000  0.4419630000000  0.6023550000000 1.0
C      1  0.3376130000000  0.4419370000000  0.3314940000000 1.0
C      1  0.6099040000000  0.5580200000000  0.2935750000000 1.0
C      1  0.7303860000000  0.5581060000000  0.5408720000000 1.0
C      1  0.5323410000000  0.5580790000000  0.7316810000000 1.0
C      1  0.2896850000000  0.5580370000000  0.6023550000000 1.0
C      1  0.3376130000000  0.5580630000000  0.3314940000000 1.0
C      1  0.5429600000000  0.4262280000000  0.5675090000000 1.0
C      1  0.4489990000000  0.4261850000000  0.5615830000000 1.0
C      1  0.4255070000000  0.4262620000000  0.4705660000000 1.0
C      1  0.5049510000000  0.4261650000000  0.4201630000000 1.0
C      1  0.5775930000000  0.4262460000000  0.4801610000000 1.0
C      1  0.5429600000000  0.5737720000000  0.5675090000000 1.0
C      1  0.4489990000000  0.5738150000000  0.5615830000000 1.0
C      1  0.4255070000000  0.5737380000000  0.4705660000000 1.0
C      1  0.5049510000000  0.5738350000000  0.4201630000000 1.0
C      1  0.5775930000000  0.5737540000000  0.4801610000000 1.0
END
