TITL C-1525613-7943-1299 -0.34548994681946 3375 -8927.98220420766 0 0 60 (D5) n - 1
REM
REM in /home/nfs/bkarasulu/CARBON/AIRSS/Generating-Clusters/ReaxFF-fromJPCA2015/Units_Real/Try2-Higher-symm/Only-C60
REM
REM
REM
REM
REM
REM ./C.cell (863b2abdce7293c0672fb3ba77bf323a)
REM AIRSS Version 0.9.1 bugfix July 2018 build 013d7b7c2542+ Fri, 06 Jul 2018 19:26:36 +0100
REM compiler GCC version 9.2.1 20190827 (Red Hat 9.2.1-1)
REM options -cpp -mtune=generic -march=x86-64 -g -O0 -fpre-include=/usr/include/finclude/math-vector-fortran.h
REM seed -1955074167 -752234999 -1069484518 -206039149 -2106835642 -792189770 2071989489 1132602818 1941083893 1358266178 -998093376 1860315131 -315652384 -1083850168 -1123133971 621740511 -1060476706 -1985531987 -1842401838 1053528052 386552171 -25050108 568118814 -1153152800 -1306734324 -1031392572 1438130732 -33802510 1608466981 -1040767000 562047823 245643966 838557907
REM
CELL 1.54180   15.00000   15.00000   15.00000   90.00000   90.00000   90.00000
LATT -1
SFAC C  
C      1  0.4259590000000  0.3657160000000  0.2994090000000 1.0
C      1  0.3493540000000  0.5289370000000  0.2995340000000 1.0
C      1  0.4809330000000  0.6522290000000  0.2995480000000 1.0
C      1  0.6387940000000  0.5651720000000  0.2994540000000 1.0
C      1  0.6048530000000  0.3881220000000  0.2994140000000 1.0
C      1  0.4259590000000  0.6342840000000  0.7005910000000 1.0
C      1  0.3493540000000  0.4710630000000  0.7004660000000 1.0
C      1  0.4809330000000  0.3477710000000  0.7004520000000 1.0
C      1  0.6387940000000  0.4348280000000  0.7005460000000 1.0
C      1  0.6048530000000  0.6118780000000  0.7005860000000 1.0
C      1  0.4202300000000  0.4149430000000  0.7250790000000 1.0
C      1  0.3945190000000  0.5495220000000  0.7251250000000 1.0
C      1  0.5145280000000  0.6156080000000  0.7252050000000 1.0
C      1  0.6144400000000  0.5218760000000  0.7251900000000 1.0
C      1  0.5561280000000  0.3979050000000  0.7251370000000 1.0
C      1  0.4202300000000  0.5850570000000  0.2749210000000 1.0
C      1  0.3945190000000  0.4504780000000  0.2748750000000 1.0
C      1  0.5145280000000  0.3843920000000  0.2747950000000 1.0
C      1  0.6144400000000  0.4781240000000  0.2748100000000 1.0
C      1  0.5561280000000  0.6020950000000  0.2748630000000 1.0
C      1  0.4857290000000  0.4198160000000  0.5714170000000 1.0
C      1  0.4194280000000  0.4888250000000  0.5715220000000 1.0
C      1  0.4644660000000  0.5732530000000  0.5714890000000 1.0
C      1  0.5586790000000  0.5565060000000  0.5715120000000 1.0
C      1  0.5718420000000  0.4617110000000  0.5714910000000 1.0
C      1  0.4857290000000  0.5801840000000  0.4285830000000 1.0
C      1  0.4194280000000  0.5111750000000  0.4284780000000 1.0
C      1  0.4644660000000  0.4267470000000  0.4285110000000 1.0
C      1  0.5586790000000  0.4434940000000  0.4284880000000 1.0
C      1  0.5718420000000  0.5382890000000  0.4285090000000 1.0
C      1  0.3210420000000  0.4732300000000  0.5949130000000 1.0
C      1  0.4191370000000  0.6620420000000  0.5950010000000 1.0
C      1  0.6291060000000  0.6269440000000  0.5950290000000 1.0
C      1  0.6605470000000  0.4165090000000  0.5950030000000 1.0
C      1  0.4702740000000  0.3213770000000  0.5948830000000 1.0
C      1  0.3210420000000  0.5267700000000  0.4050870000000 1.0
C      1  0.4191370000000  0.3379580000000  0.4049990000000 1.0
C      1  0.6291060000000  0.3730560000000  0.4049710000000 1.0
C      1  0.6605470000000  0.5834910000000  0.4049970000000 1.0
C      1  0.4702740000000  0.6786230000000  0.4051170000000 1.0
C      1  0.3414030000000  0.6719480000000  0.5178840000000 1.0
C      1  0.6144800000000  0.7039840000000  0.5181240000000 1.0
C      1  0.7292600000000  0.4542260000000  0.5180150000000 1.0
C      1  0.5274160000000  0.2676550000000  0.5178390000000 1.0
C      1  0.2876160000000  0.4022060000000  0.5180070000000 1.0
C      1  0.3414030000000  0.3280520000000  0.4821160000000 1.0
C      1  0.6144800000000  0.2960160000000  0.4818760000000 1.0
C      1  0.7292600000000  0.5457740000000  0.4819850000000 1.0
C      1  0.5274160000000  0.7323450000000  0.4821610000000 1.0
C      1  0.2876160000000  0.5977940000000  0.4819930000000 1.0
C      1  0.6554100000000  0.3157410000000  0.5666970000000 1.0
C      1  0.3729610000000  0.2948270000000  0.5667740000000 1.0
C      1  0.2659450000000  0.5577510000000  0.5667140000000 1.0
C      1  0.4821470000000  0.7406880000000  0.5667030000000 1.0
C      1  0.7233740000000  0.5911010000000  0.5666790000000 1.0
C      1  0.6554100000000  0.6842590000000  0.4333030000000 1.0
C      1  0.3729610000000  0.7051730000000  0.4332260000000 1.0
C      1  0.2659450000000  0.4422490000000  0.4332860000000 1.0
C      1  0.4821470000000  0.2593120000000  0.4332970000000 1.0
C      1  0.7233740000000  0.4088990000000  0.4333210000000 1.0
END
