TITL C-1525613-7943-3419 0.0489565628983785 3375 -8256.50382746292 0 0 60 (C2) n - 1
REM
REM in /home/nfs/bkarasulu/CARBON/AIRSS/Generating-Clusters/ReaxFF-fromJPCA2015/Units_Real/Try2-Higher-symm/Only-C60
REM
REM
REM
REM
REM
REM ./C.cell (863b2abdce7293c0672fb3ba77bf323a)
REM AIRSS Version 0.9.1 bugfix July 2018 build 013d7b7c2542+ Fri, 06 Jul 2018 19:26:36 +0100
REM compiler GCC version 9.2.1 20190827 (Red Hat 9.2.1-1)
REM options -cpp -mtune=generic -march=x86-64 -g -O0 -fpre-include=/usr/include/finclude/math-vector-fortran.h
REM seed -912607716 538997756 555621274 -378586946 2005060116 -2080674940 766759395 600387820 -881998649 -1663803926 -1211256222 171497050 -931629480 1496584030 -402656464 125160266 668539811 2130991217 1204876908 1271524786 -488049129 1712336070 -268879868 143277600 1769606529 1816533217 1501615390 -2099080226 51907208 -1089033335 -22951682 -1459376589 -817153774
REM
CELL 1.54180   15.00000   15.00000   15.00000   90.00000   90.00000   90.00000
LATT -1
SFAC C  
C      1  0.3429380000000  0.3440820000000  0.4647510000000 1.0
C      1  0.3023960000000  0.6036670000000  0.4645770000000 1.0
C      1  0.5316270000000  0.7033560000000  0.4626320000000 1.0
C      1  0.7190270000000  0.5330910000000  0.4646750000000 1.0
C      1  0.5950040000000  0.3170290000000  0.4622180000000 1.0
C      1  0.3429380000000  0.6559180000000  0.5352490000000 1.0
C      1  0.3023960000000  0.3963330000000  0.5354230000000 1.0
C      1  0.5316270000000  0.2966440000000  0.5373680000000 1.0
C      1  0.7190270000000  0.4669090000000  0.5353250000000 1.0
C      1  0.5950040000000  0.6829710000000  0.5377820000000 1.0
C      1  0.4535860000000  0.2792160000000  0.3697460000000 1.0
C      1  0.2779210000000  0.4769700000000  0.3735970000000 1.0
C      1  0.4061610000000  0.7009340000000  0.3667260000000 1.0
C      1  0.6676880000000  0.6515820000000  0.3694870000000 1.0
C      1  0.6959890000000  0.3929830000000  0.3657980000000 1.0
C      1  0.4535860000000  0.7207840000000  0.6302540000000 1.0
C      1  0.2779210000000  0.5230300000000  0.6264030000000 1.0
C      1  0.4061610000000  0.2990660000000  0.6332740000000 1.0
C      1  0.6676880000000  0.3484180000000  0.6305130000000 1.0
C      1  0.6959890000000  0.6070170000000  0.6342020000000 1.0
C      1  0.4254140000000  0.5251240000000  0.4244230000000 1.0
C      1  0.5031010000000  0.5881610000000  0.4274500000000 1.0
C      1  0.5792830000000  0.5251320000000  0.4232280000000 1.0
C      1  0.5554230000000  0.4289200000000  0.4270460000000 1.0
C      1  0.4557320000000  0.4347960000000  0.4228960000000 1.0
C      1  0.4254140000000  0.4748760000000  0.5755770000000 1.0
C      1  0.5031010000000  0.4118390000000  0.5725500000000 1.0
C      1  0.5792830000000  0.4748680000000  0.5767720000000 1.0
C      1  0.5554230000000  0.5710800000000  0.5729540000000 1.0
C      1  0.4557320000000  0.5652040000000  0.5771040000000 1.0
C      1  0.6272540000000  0.2929980000000  0.5630670000000 1.0
C      1  0.3403100000000  0.3091670000000  0.5595590000000 1.0
C      1  0.2691050000000  0.5946800000000  0.5601120000000 1.0
C      1  0.5195650000000  0.7419230000000  0.5630550000000 1.0
C      1  0.7416210000000  0.5589100000000  0.5603640000000 1.0
C      1  0.6272540000000  0.7070020000000  0.4369330000000 1.0
C      1  0.3403100000000  0.6908330000000  0.4404410000000 1.0
C      1  0.2691050000000  0.4053200000000  0.4398880000000 1.0
C      1  0.5195650000000  0.2580770000000  0.4369450000000 1.0
C      1  0.7416210000000  0.4410900000000  0.4396360000000 1.0
C      1  0.4198030000000  0.6257020000000  0.6460310000000 1.0
C      1  0.6003520000000  0.6105570000000  0.6578590000000 1.0
C      1  0.6389040000000  0.4453370000000  0.6473880000000 1.0
C      1  0.4850450000000  0.3529320000000  0.6568910000000 1.0
C      1  0.3554810000000  0.4629590000000  0.6452920000000 1.0
C      1  0.4198030000000  0.3742980000000  0.3539690000000 1.0
C      1  0.6003520000000  0.3894430000000  0.3421410000000 1.0
C      1  0.6389040000000  0.5546630000000  0.3526120000000 1.0
C      1  0.4850450000000  0.6470680000000  0.3431090000000 1.0
C      1  0.3554810000000  0.5370410000000  0.3547080000000 1.0
C      1  0.5762060000000  0.4670080000000  0.7244700000000 1.0
C      1  0.4909320000000  0.4204260000000  0.7297820000000 1.0
C      1  0.4170690000000  0.4832140000000  0.7242120000000 1.0
C      1  0.4548420000000  0.5713910000000  0.7234510000000 1.0
C      1  0.5522230000000  0.5602530000000  0.7288040000000 1.0
C      1  0.5762060000000  0.5329920000000  0.2755300000000 1.0
C      1  0.4909320000000  0.5795740000000  0.2702180000000 1.0
C      1  0.4170690000000  0.5167860000000  0.2757880000000 1.0
C      1  0.4548420000000  0.4286090000000  0.2765490000000 1.0
C      1  0.5522230000000  0.4397470000000  0.2711960000000 1.0
END
