TITL C-1525613-7943-3192 0.207855558601386 3375 -8780.98922742707 0 0 60 (Ci) n - 1
REM
REM in /home/nfs/bkarasulu/CARBON/AIRSS/Generating-Clusters/ReaxFF-fromJPCA2015/Units_Real/Try2-Higher-symm/Only-C60
REM
REM
REM
REM
REM
REM ./C.cell (863b2abdce7293c0672fb3ba77bf323a)
REM AIRSS Version 0.9.1 bugfix July 2018 build 013d7b7c2542+ Fri, 06 Jul 2018 19:26:36 +0100
REM compiler GCC version 9.2.1 20190827 (Red Hat 9.2.1-1)
REM options -cpp -mtune=generic -march=x86-64 -g -O0 -fpre-include=/usr/include/finclude/math-vector-fortran.h
REM seed -540431645 1863221002 -296758829 -915550709 212760316 -1810573960 1201651541 -1223995327 895174710 -1591955085 -459939164 1180100964 -464571442 -946161069 2062412360 289010243 -959195098 -580616366 1034034042 -176051295 1644354081 -1954441460 1411302095 2005420457 1455400232 -1438470054 -1078461388 1135575825 -1180937063 -1767801103 -568626679 -1247746716 1144874494
REM
CELL 1.54180   15.00000   15.00000   15.00000   90.00000   90.00000   90.00000
LATT -1
SFAC C  
C      1  0.5405120000000  0.5723010000000  0.5785790000000 1.0
C      1  0.5798180000000  0.5293510000000  0.4238690000000 1.0
C      1  0.5773520000000  0.4825910000000  0.5782710000000 1.0
C      1  0.5557680000000  0.4344140000000  0.4295080000000 1.0
C      1  0.5035040000000  0.4183620000000  0.5780940000000 1.0
C      1  0.4595520000000  0.4276630000000  0.4211570000000 1.0
C      1  0.4201430000000  0.4705940000000  0.5762290000000 1.0
C      1  0.4226260000000  0.5173310000000  0.4216950000000 1.0
C      1  0.4442910000000  0.5655380000000  0.5705610000000 1.0
C      1  0.4964970000000  0.5816640000000  0.4217640000000 1.0
C      1  0.4873510000000  0.6759980000000  0.3932860000000 1.0
C      1  0.5863340000000  0.6512280000000  0.6171740000000 1.0
C      1  0.6620860000000  0.5551730000000  0.3758960000000 1.0
C      1  0.6708830000000  0.4624300000000  0.6082050000000 1.0
C      1  0.6177600000000  0.3628520000000  0.4044050000000 1.0
C      1  0.5126570000000  0.3240040000000  0.6067780000000 1.0
C      1  0.4137570000000  0.3489320000000  0.3824630000000 1.0
C      1  0.3378680000000  0.4449800000000  0.6240910000000 1.0
C      1  0.3289850000000  0.5374440000000  0.3920450000000 1.0
C      1  0.3822580000000  0.6370920000000  0.5956530000000 1.0
C      1  0.3879180000000  0.4712530000000  0.7742390000000 1.0
C      1  0.3486230000000  0.5803210000000  0.2356380000000 1.0
C      1  0.4190640000000  0.6305100000000  0.7523340000000 1.0
C      1  0.5110790000000  0.6732810000000  0.2300950000000 1.0
C      1  0.6003170000000  0.6020740000000  0.7744420000000 1.0
C      1  0.6120870000000  0.5287440000000  0.2256580000000 1.0
C      1  0.6515080000000  0.4196720000000  0.7644710000000 1.0
C      1  0.5810510000000  0.3694460000000  0.2475990000000 1.0
C      1  0.4890220000000  0.3266310000000  0.7698670000000 1.0
C      1  0.3996960000000  0.3979260000000  0.2257700000000 1.0
C      1  0.4230680000000  0.6385700000000  0.2317300000000 1.0
C      1  0.5062280000000  0.6166590000000  0.7637970000000 1.0
C      1  0.5769180000000  0.6059230000000  0.2132260000000 1.0
C      1  0.6331210000000  0.5136980000000  0.7720920000000 1.0
C      1  0.6473870000000  0.4485740000000  0.2451990000000 1.0
C      1  0.5769120000000  0.3614730000000  0.7683490000000 1.0
C      1  0.4937940000000  0.3832890000000  0.2362670000000 1.0
C      1  0.4230120000000  0.3938570000000  0.7867920000000 1.0
C      1  0.3670100000000  0.4862780000000  0.2280960000000 1.0
C      1  0.3526470000000  0.5514360000000  0.7547060000000 1.0
C      1  0.5725500000000  0.3113470000000  0.3311830000000 1.0
C      1  0.4437050000000  0.3067380000000  0.6798020000000 1.0
C      1  0.3462480000000  0.3747410000000  0.3123950000000 1.0
C      1  0.3004500000000  0.5264700000000  0.6750560000000 1.0
C      1  0.3266320000000  0.6183250000000  0.3310020000000 1.0
C      1  0.4274610000000  0.6886810000000  0.6687820000000 1.0
C      1  0.5562630000000  0.6934450000000  0.3202040000000 1.0
C      1  0.6534100000000  0.6252770000000  0.6876010000000 1.0
C      1  0.6994610000000  0.4736300000000  0.3248950000000 1.0
C      1  0.6735620000000  0.3815640000000  0.6691500000000 1.0
C      1  0.7108610000000  0.3960330000000  0.3868330000000 1.0
C      1  0.6021170000000  0.3329740000000  0.6328980000000 1.0
C      1  0.4828450000000  0.2802410000000  0.3596680000000 1.0
C      1  0.3736930000000  0.3665000000000  0.6595070000000 1.0
C      1  0.3158640000000  0.4506510000000  0.3579780000000 1.0
C      1  0.2890390000000  0.6040170000000  0.6131310000000 1.0
C      1  0.3981660000000  0.6671370000000  0.3669740000000 1.0
C      1  0.5170950000000  0.7197540000000  0.6402030000000 1.0
C      1  0.6261280000000  0.6336030000000  0.3405390000000 1.0
C      1  0.6839860000000  0.5493170000000  0.6421130000000 1.0
END
