TITL C-1525613-7943-4224 0.000436532959006301 3375 -9011.89272262484 0 0 60 (C2) n - 1
REM
REM in /home/nfs/bkarasulu/CARBON/AIRSS/Generating-Clusters/ReaxFF-fromJPCA2015/Units_Real/Try2-Higher-symm/Only-C60
REM
REM
REM
REM
REM
REM ./C.cell (863b2abdce7293c0672fb3ba77bf323a)
REM AIRSS Version 0.9.1 bugfix July 2018 build 013d7b7c2542+ Fri, 06 Jul 2018 19:26:36 +0100
REM compiler GCC version 9.2.1 20190827 (Red Hat 9.2.1-1)
REM options -cpp -mtune=generic -march=x86-64 -g -O0 -fpre-include=/usr/include/finclude/math-vector-fortran.h
REM seed 1934625817 -1113706033 -749429297 1247499927 1488902063 -761113798 1635001350 1987068590 594608958 -1830689547 1080250093 -326268836 -1920050471 236340420 696442735 -1803924225 -1999784431 1937802894 -175825697 1381503456 1074982183 1968999890 1565282265 801971412 77915788 2034099741 -697327508 -261124439 -1801223935 1661836153 -1384416845 764062423 1576941565
REM
CELL 1.54180   15.00000   15.00000   15.00000   90.00000   90.00000   90.00000
LATT -1
SFAC C  
C      1  0.2688560000000  0.6263040000000  0.5933330000000 1.0
C      1  0.2576020000000  0.6262670000000  0.4424430000000 1.0
C      1  0.3403020000000  0.6329720000000  0.3139220000000 1.0
C      1  0.4819190000000  0.6347510000000  0.2596060000000 1.0
C      1  0.6301480000000  0.6330400000000  0.2918990000000 1.0
C      1  0.7311440000000  0.6263040000000  0.4066670000000 1.0
C      1  0.7423980000000  0.6262670000000  0.5575570000000 1.0
C      1  0.6596980000000  0.6329720000000  0.6860780000000 1.0
C      1  0.5180810000000  0.6347510000000  0.7403940000000 1.0
C      1  0.3698520000000  0.6330400000000  0.7081010000000 1.0
C      1  0.5813420000000  0.6678010000000  0.6931190000000 1.0
C      1  0.4484140000000  0.6678120000000  0.7032240000000 1.0
C      1  0.3321580000000  0.6646620000000  0.6382550000000 1.0
C      1  0.2785260000000  0.6634570000000  0.5167320000000 1.0
C      1  0.3134790000000  0.6646480000000  0.3885810000000 1.0
C      1  0.4186580000000  0.6678010000000  0.3068810000000 1.0
C      1  0.5515860000000  0.6678120000000  0.2967760000000 1.0
C      1  0.6678420000000  0.6646620000000  0.3617450000000 1.0
C      1  0.7214740000000  0.6634570000000  0.4832680000000 1.0
C      1  0.6865210000000  0.6646480000000  0.6114190000000 1.0
C      1  0.5092340000000  0.2418480000000  0.3935640000000 1.0
C      1  0.5809910000000  0.2675410000000  0.4353560000000 1.0
C      1  0.6461050000000  0.3018420000000  0.4883190000000 1.0
C      1  0.6233130000000  0.2562230000000  0.5677220000000 1.0
C      1  0.5703220000000  0.2282130000000  0.6251160000000 1.0
C      1  0.4907660000000  0.2418480000000  0.6064360000000 1.0
C      1  0.4190090000000  0.2675410000000  0.5646440000000 1.0
C      1  0.3538950000000  0.3018420000000  0.5116810000000 1.0
C      1  0.3766870000000  0.2562230000000  0.4322780000000 1.0
C      1  0.4296780000000  0.2282130000000  0.3748840000000 1.0
C      1  0.3223620000000  0.4853200000000  0.6519310000000 1.0
C      1  0.2648110000000  0.4747190000000  0.5178110000000 1.0
C      1  0.3022720000000  0.4852420000000  0.3769350000000 1.0
C      1  0.4103480000000  0.4880880000000  0.2806710000000 1.0
C      1  0.5560240000000  0.4881300000000  0.2692900000000 1.0
C      1  0.6776380000000  0.4853200000000  0.3480690000000 1.0
C      1  0.7351890000000  0.4747190000000  0.4821890000000 1.0
C      1  0.6977280000000  0.4852420000000  0.6230650000000 1.0
C      1  0.5896520000000  0.4880880000000  0.7193290000000 1.0
C      1  0.4439760000000  0.4881300000000  0.7307100000000 1.0
C      1  0.3316770000000  0.5333220000000  0.3013550000000 1.0
C      1  0.4805140000000  0.5351480000000  0.2408870000000 1.0
C      1  0.6368970000000  0.5334450000000  0.2779890000000 1.0
C      1  0.7400400000000  0.5261370000000  0.4035890000000 1.0
C      1  0.7515360000000  0.5260910000000  0.5592130000000 1.0
C      1  0.6683230000000  0.5333220000000  0.6986450000000 1.0
C      1  0.5194860000000  0.5351480000000  0.7591130000000 1.0
C      1  0.3631030000000  0.5334450000000  0.7220100000000 1.0
C      1  0.2599600000000  0.5261370000000  0.5964100000000 1.0
C      1  0.2484640000000  0.5260910000000  0.4407870000000 1.0
C      1  0.5376670000000  0.4322730000000  0.3448110000000 1.0
C      1  0.6156510000000  0.4359530000000  0.3985440000000 1.0
C      1  0.6530960000000  0.4099990000000  0.4881900000000 1.0
C      1  0.6287280000000  0.4363020000000  0.5822420000000 1.0
C      1  0.5600130000000  0.4324520000000  0.6473400000000 1.0
C      1  0.4623330000000  0.4322730000000  0.6551890000000 1.0
C      1  0.3843490000000  0.4359530000000  0.6014560000000 1.0
C      1  0.3469040000000  0.4099990000000  0.5118100000000 1.0
C      1  0.3712720000000  0.4363020000000  0.4177580000000 1.0
C      1  0.4399870000000  0.4324520000000  0.3526600000000 1.0
END
