TITL C-1525613-7943-6690 0.00881918555746244 3375 -9336.17538827696 0 0 60 (D5) n - 1
REM
REM in /home/nfs/bkarasulu/CARBON/AIRSS/Generating-Clusters/ReaxFF-fromJPCA2015/Units_Real/Try2-Higher-symm/Only-C60
REM
REM
REM
REM
REM
REM ./C.cell (863b2abdce7293c0672fb3ba77bf323a)
REM AIRSS Version 0.9.1 bugfix July 2018 build 013d7b7c2542+ Fri, 06 Jul 2018 19:26:36 +0100
REM compiler GCC version 9.2.1 20190827 (Red Hat 9.2.1-1)
REM options -cpp -mtune=generic -march=x86-64 -g -O0 -fpre-include=/usr/include/finclude/math-vector-fortran.h
REM seed -1788597973 -860480098 -1920320474 -140138969 -1994200939 246452816 1887140818 -942360507 -1375748290 -736895464 129841797 45649541 706952888 1034322127 1111447608 -1270782031 -446724465 971235468 595653894 215696759 -250368195 1342220565 -24474000 -529011328 -1121419336 -48508105 -782182378 397473119 -588837004 1298702475 1947220876 1248242030 882972545
REM
CELL 1.54180   15.00000   15.00000   15.00000   90.00000   90.00000   90.00000
LATT -1
SFAC C  
C      1  0.3871330000000  0.6515310000000  0.6720690000000 1.0
C      1  0.3867720000000  0.3830060000000  0.6973130000000 1.0
C      1  0.3869390000000  0.2762050000000  0.4497700000000 1.0
C      1  0.3871780000000  0.4786770000000  0.2717600000000 1.0
C      1  0.3871320000000  0.7107660000000  0.4090600000000 1.0
C      1  0.3870710000000  0.6570790000000  0.3321790000000 1.0
C      1  0.3867940000000  0.3888810000000  0.2987780000000 1.0
C      1  0.3865610000000  0.2741340000000  0.5435120000000 1.0
C      1  0.3868880000000  0.4716590000000  0.7278530000000 1.0
C      1  0.3868120000000  0.7083890000000  0.5974970000000 1.0
C      1  0.4503330000000  0.2612210000000  0.3847160000000 1.0
C      1  0.4505370000000  0.5359010000000  0.2373180000000 1.0
C      1  0.4505060000000  0.7610500000000  0.4529520000000 1.0
C      1  0.4504420000000  0.6253830000000  0.7335700000000 1.0
C      1  0.4501240000000  0.3164990000000  0.6914260000000 1.0
C      1  0.4518070000000  0.2588770000000  0.6131170000000 1.0
C      1  0.4520700000000  0.5330780000000  0.7641090000000 1.0
C      1  0.4521160000000  0.7615990000000  0.5501850000000 1.0
C      1  0.4522400000000  0.6285560000000  0.2668090000000 1.0
C      1  0.4519720000000  0.3179100000000  0.3057170000000 1.0
C      1  0.6130080000000  0.4784640000000  0.7285120000000 1.0
C      1  0.6127710000000  0.2762340000000  0.5500590000000 1.0
C      1  0.6129230000000  0.3831550000000  0.3026000000000 1.0
C      1  0.6131370000000  0.6515760000000  0.3279170000000 1.0
C      1  0.6129980000000  0.7104220000000  0.5910940000000 1.0
C      1  0.6132880000000  0.4717170000000  0.2717780000000 1.0
C      1  0.6131730000000  0.2741750000000  0.4563110000000 1.0
C      1  0.6129090000000  0.3888120000000  0.7010560000000 1.0
C      1  0.6133130000000  0.6569850000000  0.6681490000000 1.0
C      1  0.6132300000000  0.7080920000000  0.4027460000000 1.0
C      1  0.5480750000000  0.7615030000000  0.4500420000000 1.0
C      1  0.5480200000000  0.6283980000000  0.7333750000000 1.0
C      1  0.5476980000000  0.3178550000000  0.6941300000000 1.0
C      1  0.5479090000000  0.2589910000000  0.3867160000000 1.0
C      1  0.5481100000000  0.5332570000000  0.2357540000000 1.0
C      1  0.5496900000000  0.7608810000000  0.5472730000000 1.0
C      1  0.5498090000000  0.6255350000000  0.2664040000000 1.0
C      1  0.5495440000000  0.3166460000000  0.3084210000000 1.0
C      1  0.5493760000000  0.2611970000000  0.6151030000000 1.0
C      1  0.5496350000000  0.5357220000000  0.7628060000000 1.0
C      1  0.3258790000000  0.6494920000000  0.5507080000000 1.0
C      1  0.3260920000000  0.4979150000000  0.6573260000000 1.0
C      1  0.3257000000000  0.3493330000000  0.5466550000000 1.0
C      1  0.3259150000000  0.4091430000000  0.3712430000000 1.0
C      1  0.3261590000000  0.5944700000000  0.3738060000000 1.0
C      1  0.3253440000000  0.6515050000000  0.4548320000000 1.0
C      1  0.3255110000000  0.5039210000000  0.3423270000000 1.0
C      1  0.3252870000000  0.3511350000000  0.4475840000000 1.0
C      1  0.3250790000000  0.4041170000000  0.6253820000000 1.0
C      1  0.3254490000000  0.5897110000000  0.6297310000000 1.0
C      1  0.6741060000000  0.3493300000000  0.4532080000000 1.0
C      1  0.6741670000000  0.4978510000000  0.3423340000000 1.0
C      1  0.6740140000000  0.6490540000000  0.4494600000000 1.0
C      1  0.6741870000000  0.5942930000000  0.6265110000000 1.0
C      1  0.6737890000000  0.4090570000000  0.6286430000000 1.0
C      1  0.6744680000000  0.3511200000000  0.5522840000000 1.0
C      1  0.6747870000000  0.5037040000000  0.6579910000000 1.0
C      1  0.6746420000000  0.6510710000000  0.5453010000000 1.0
C      1  0.6747690000000  0.5896200000000  0.3701780000000 1.0
C      1  0.6746090000000  0.4041400000000  0.3745380000000 1.0
END
