TITL C-1525613-7943-1393 -0.213426155637818 3375 -8687.21135446235 0 0 60 (D5) n - 1
REM
REM in /home/nfs/bkarasulu/CARBON/AIRSS/Generating-Clusters/ReaxFF-fromJPCA2015/Units_Real/Try2-Higher-symm/Only-C60
REM
REM
REM
REM
REM
REM ./C.cell (863b2abdce7293c0672fb3ba77bf323a)
REM AIRSS Version 0.9.1 bugfix July 2018 build 013d7b7c2542+ Fri, 06 Jul 2018 19:26:36 +0100
REM compiler GCC version 9.2.1 20190827 (Red Hat 9.2.1-1)
REM options -cpp -mtune=generic -march=x86-64 -g -O0 -fpre-include=/usr/include/finclude/math-vector-fortran.h
REM seed -506522482 573378358 -1323893701 -1360194648 -1381487649 -1096276581 530612090 413961004 -329873987 2052737368 -2070047439 -110005248 -1222251920 -328363099 1524160230 1203845861 -777973196 1197743566 904846561 755613764 1106804910 1267365221 -1906290548 1774493343 -1052578306 334822229 -568624388 1394570846 -1600355912 88399000 1044927136 -1083915394 969026953
REM
CELL 1.54180   15.00000   15.00000   15.00000   90.00000   90.00000   90.00000
LATT -1
SFAC C  
C      1  0.5398080000000  0.4292050000000  0.4189140000000 1.0
C      1  0.5792910000000  0.5162710000000  0.4187240000000 1.0
C      1  0.5094080000000  0.5804360000000  0.4190410000000 1.0
C      1  0.4265310000000  0.5338020000000  0.4187720000000 1.0
C      1  0.4451860000000  0.4401280000000  0.4188620000000 1.0
C      1  0.4601920000000  0.4292050000000  0.5810860000000 1.0
C      1  0.4207090000000  0.5162710000000  0.5812760000000 1.0
C      1  0.4905920000000  0.5804360000000  0.5809590000000 1.0
C      1  0.5734690000000  0.5338020000000  0.5812280000000 1.0
C      1  0.5548140000000  0.4401280000000  0.5811380000000 1.0
C      1  0.3839700000000  0.6941110000000  0.5455300000000 1.0
C      1  0.2798500000000  0.4496870000000  0.5455300000000 1.0
C      1  0.4796900000000  0.2751210000000  0.5454200000000 1.0
C      1  0.7077370000000  0.4113810000000  0.5456040000000 1.0
C      1  0.6487330000000  0.6701460000000  0.5456150000000 1.0
C      1  0.6160300000000  0.6941110000000  0.4544700000000 1.0
C      1  0.7201500000000  0.4496870000000  0.4544700000000 1.0
C      1  0.5203100000000  0.2751210000000  0.4545800000000 1.0
C      1  0.2922630000000  0.4113810000000  0.4543960000000 1.0
C      1  0.3512670000000  0.6701460000000  0.4543850000000 1.0
C      1  0.6392250000000  0.4203270000000  0.7010720000000 1.0
C      1  0.6187720000000  0.6077800000000  0.7010990000000 1.0
C      1  0.4340760000000  0.6461040000000  0.7010090000000 1.0
C      1  0.3405340000000  0.4826260000000  0.7011080000000 1.0
C      1  0.4672830000000  0.3430140000000  0.7011130000000 1.0
C      1  0.3607750000000  0.4203270000000  0.2989280000000 1.0
C      1  0.3812280000000  0.6077800000000  0.2989010000000 1.0
C      1  0.5659240000000  0.6461040000000  0.2989910000000 1.0
C      1  0.6594660000000  0.4826260000000  0.2988920000000 1.0
C      1  0.5327170000000  0.3430140000000  0.2988870000000 1.0
C      1  0.3885370000000  0.6814230000000  0.3636780000000 1.0
C      1  0.2930820000000  0.4500240000000  0.3637580000000 1.0
C      1  0.4834770000000  0.2877210000000  0.3637360000000 1.0
C      1  0.6968050000000  0.4187410000000  0.3636930000000 1.0
C      1  0.6379180000000  0.6620070000000  0.3636910000000 1.0
C      1  0.6114630000000  0.6814230000000  0.6363220000000 1.0
C      1  0.7069180000000  0.4500240000000  0.6362420000000 1.0
C      1  0.5165230000000  0.2877210000000  0.6362640000000 1.0
C      1  0.3031950000000  0.4187410000000  0.6363070000000 1.0
C      1  0.3620820000000  0.6620070000000  0.6363090000000 1.0
C      1  0.3440900000000  0.5741970000000  0.4565100000000 1.0
C      1  0.3814180000000  0.3747820000000  0.4566050000000 1.0
C      1  0.5822610000000  0.3484420000000  0.4565240000000 1.0
C      1  0.6696580000000  0.5315310000000  0.4565670000000 1.0
C      1  0.5223440000000  0.6707820000000  0.4563910000000 1.0
C      1  0.6559100000000  0.5741970000000  0.5434900000000 1.0
C      1  0.6185820000000  0.3747820000000  0.5433950000000 1.0
C      1  0.4177390000000  0.3484420000000  0.5434760000000 1.0
C      1  0.3303420000000  0.5315310000000  0.5434330000000 1.0
C      1  0.4776560000000  0.6707820000000  0.5436090000000 1.0
C      1  0.6190440000000  0.3951290000000  0.3065540000000 1.0
C      1  0.6364260000000  0.5810760000000  0.3064410000000 1.0
C      1  0.4652990000000  0.6549800000000  0.3062140000000 1.0
C      1  0.3420010000000  0.5148280000000  0.3065090000000 1.0
C      1  0.4370840000000  0.3541980000000  0.3064840000000 1.0
C      1  0.3809560000000  0.3951290000000  0.6934460000000 1.0
C      1  0.3635740000000  0.5810760000000  0.6935590000000 1.0
C      1  0.5347010000000  0.6549800000000  0.6937860000000 1.0
C      1  0.6579990000000  0.5148280000000  0.6934910000000 1.0
C      1  0.5629160000000  0.3541980000000  0.6935160000000 1.0
END
