TITL C-1525613-7943-4057 0.0237578432021008 3375 -9263.93765731906 0 0 60 (C2) n - 1
REM
REM in /home/nfs/bkarasulu/CARBON/AIRSS/Generating-Clusters/ReaxFF-fromJPCA2015/Units_Real/Try2-Higher-symm/Only-C60
REM
REM
REM
REM
REM
REM ./C.cell (863b2abdce7293c0672fb3ba77bf323a)
REM AIRSS Version 0.9.1 bugfix July 2018 build 013d7b7c2542+ Fri, 06 Jul 2018 19:26:36 +0100
REM compiler GCC version 9.2.1 20190827 (Red Hat 9.2.1-1)
REM options -cpp -mtune=generic -march=x86-64 -g -O0 -fpre-include=/usr/include/finclude/math-vector-fortran.h
REM seed -976556291 1460987243 1324471074 -2121917321 -1591831822 -1837881027 -1051900630 -350088957 1405639664 -596222878 -1942455007 -1962724480 751528025 2080645113 247860822 -1305142175 1602553362 1040556651 -1485161125 428846321 -1087027295 -660761243 1951344152 1984598070 -1774377242 1921440336 -1136271060 -2091840936 766285320 -519135522 -2098664071 -610593089 -264891680
REM
CELL 1.54180   15.00000   15.00000   15.00000   90.00000   90.00000   90.00000
LATT -1
SFAC C  
C      1  0.6227150000000  0.4736300000000  0.7320310000000 1.0
C      1  0.7216850000000  0.4844910000000  0.6060830000000 1.0
C      1  0.7651420000000  0.4660090000000  0.4507020000000 1.0
C      1  0.6901250000000  0.4661810000000  0.3082510000000 1.0
C      1  0.5372810000000  0.4845560000000  0.2566060000000 1.0
C      1  0.3773700000000  0.4735450000000  0.2679060000000 1.0
C      1  0.2783730000000  0.4843180000000  0.3939890000000 1.0
C      1  0.2347440000000  0.4659470000000  0.5493200000000 1.0
C      1  0.3097650000000  0.4661350000000  0.6918360000000 1.0
C      1  0.4627070000000  0.4844940000000  0.7433410000000 1.0
C      1  0.6197910000000  0.6779610000000  0.6222520000000 1.0
C      1  0.6472020000000  0.6739600000000  0.5248880000000 1.0
C      1  0.5959150000000  0.6814920000000  0.4495500000000 1.0
C      1  0.5620050000000  0.6735810000000  0.3650400000000 1.0
C      1  0.4661370000000  0.6776600000000  0.3327270000000 1.0
C      1  0.3804370000000  0.6777580000000  0.3777200000000 1.0
C      1  0.3529940000000  0.6734580000000  0.4750700000000 1.0
C      1  0.4042360000000  0.6808430000000  0.5503830000000 1.0
C      1  0.4381610000000  0.6730770000000  0.6348460000000 1.0
C      1  0.5340270000000  0.6776210000000  0.6671360000000 1.0
C      1  0.6536530000000  0.6156940000000  0.6888770000000 1.0
C      1  0.7116300000000  0.6089870000000  0.4849040000000 1.0
C      1  0.7096320000000  0.5947200000000  0.3892050000000 1.0
C      1  0.6314600000000  0.6088920000000  0.3339870000000 1.0
C      1  0.4303140000000  0.6155610000000  0.2670590000000 1.0
C      1  0.3466360000000  0.6155390000000  0.3111100000000 1.0
C      1  0.2882550000000  0.6088450000000  0.5150820000000 1.0
C      1  0.2903850000000  0.5946580000000  0.6107940000000 1.0
C      1  0.3684750000000  0.6087850000000  0.6661690000000 1.0
C      1  0.5698840000000  0.6155430000000  0.7327520000000 1.0
C      1  0.6818200000000  0.5263830000000  0.6795070000000 1.0
C      1  0.7435060000000  0.5246630000000  0.5230840000000 1.0
C      1  0.7450430000000  0.5093260000000  0.3703830000000 1.0
C      1  0.6179580000000  0.5247570000000  0.2857870000000 1.0
C      1  0.4540200000000  0.5264010000000  0.2487240000000 1.0
C      1  0.3183830000000  0.5262630000000  0.3206210000000 1.0
C      1  0.2562960000000  0.5245240000000  0.4768690000000 1.0
C      1  0.2549430000000  0.5092940000000  0.6296270000000 1.0
C      1  0.3819200000000  0.5246730000000  0.7144790000000 1.0
C      1  0.5459860000000  0.5264050000000  0.7510310000000 1.0
C      1  0.7136650000000  0.3851700000000  0.6038670000000 1.0
C      1  0.7460450000000  0.3691180000000  0.4562460000000 1.0
C      1  0.6749760000000  0.3691610000000  0.3201240000000 1.0
C      1  0.5347860000000  0.3851760000000  0.2632070000000 1.0
C      1  0.3837740000000  0.3754770000000  0.2798690000000 1.0
C      1  0.2863900000000  0.3849810000000  0.3962490000000 1.0
C      1  0.2537170000000  0.3690210000000  0.5438130000000 1.0
C      1  0.3248570000000  0.3691160000000  0.6799450000000 1.0
C      1  0.4651370000000  0.3851110000000  0.7366240000000 1.0
C      1  0.6161610000000  0.3755630000000  0.7201880000000 1.0
C      1  0.5367790000000  0.3429240000000  0.7123420000000 1.0
C      1  0.6534240000000  0.3430020000000  0.6496710000000 1.0
C      1  0.7109590000000  0.3410400000000  0.5294100000000 1.0
C      1  0.6913530000000  0.3351200000000  0.3981720000000 1.0
C      1  0.5949830000000  0.3408920000000  0.3069620000000 1.0
C      1  0.4631360000000  0.3428980000000  0.2874150000000 1.0
C      1  0.3467460000000  0.3429070000000  0.3505670000000 1.0
C      1  0.2889470000000  0.3408740000000  0.4707190000000 1.0
C      1  0.3082490000000  0.3349690000000  0.6019970000000 1.0
C      1  0.4049070000000  0.3408490000000  0.6928850000000 1.0
END
