TITL C-1525613-7943-988 1.72292245061331 3375 -6392.70657925548 0 0 60 (Cs) n - 1
REM
REM in /home/nfs/bkarasulu/CARBON/AIRSS/Generating-Clusters/ReaxFF-fromJPCA2015/Units_Real/Try2-Higher-symm/Only-C60
REM
REM
REM
REM
REM
REM ./C.cell (863b2abdce7293c0672fb3ba77bf323a)
REM AIRSS Version 0.9.1 bugfix July 2018 build 013d7b7c2542+ Fri, 06 Jul 2018 19:26:36 +0100
REM compiler GCC version 9.2.1 20190827 (Red Hat 9.2.1-1)
REM options -cpp -mtune=generic -march=x86-64 -g -O0 -fpre-include=/usr/include/finclude/math-vector-fortran.h
REM seed -733527711 110881520 688695732 1246081930 -1005003622 -1902025457 -608644262 49116468 -1603879857 1695537070 902033203 -1650302502 232822916 334392032 -1852760765 40162252 2137616675 -1627770174 -1992161824 -1470893936 1584479563 1592857080 -1057751361 -970651341 -1061369173 460654900 -716192506 2133355098 -377296710 -1751428241 -444270088 -1206944504 2002475639
REM
CELL 1.54180   15.00000   15.00000   15.00000   90.00000   90.00000   90.00000
LATT -1
SFAC C  
C      1  0.2428570000000  0.5926230000000  0.5200350000000 1.0
C      1  0.2510590000000  0.5455790000000  0.4151460000000 1.0
C      1  0.2404210000000  0.4409310000000  0.4308170000000 1.0
C      1  0.2525330000000  0.4149980000000  0.5435090000000 1.0
C      1  0.2458200000000  0.5065760000000  0.5933410000000 1.0
C      1  0.7571420000000  0.5923700000000  0.5199630000000 1.0
C      1  0.7488030000000  0.5456250000000  0.4149460000000 1.0
C      1  0.7603250000000  0.4412680000000  0.4306250000000 1.0
C      1  0.7479870000000  0.4141560000000  0.5436460000000 1.0
C      1  0.7539060000000  0.5064200000000  0.5931910000000 1.0
C      1  0.3380990000000  0.4032510000000  0.5216220000000 1.0
C      1  0.3295860000000  0.5010880000000  0.6022300000000 1.0
C      1  0.3296410000000  0.5978370000000  0.5347060000000 1.0
C      1  0.3380350000000  0.5625050000000  0.4222900000000 1.0
C      1  0.3274280000000  0.4355000000000  0.4195070000000 1.0
C      1  0.6619580000000  0.4033420000000  0.5205010000000 1.0
C      1  0.6703890000000  0.5013940000000  0.6025730000000 1.0
C      1  0.6704810000000  0.5978890000000  0.5345940000000 1.0
C      1  0.6615470000000  0.5615370000000  0.4226410000000 1.0
C      1  0.6741160000000  0.4352540000000  0.4203950000000 1.0
C      1  0.5467160000000  0.4184690000000  0.4428500000000 1.0
C      1  0.5492060000000  0.4244930000000  0.5659820000000 1.0
C      1  0.5476450000000  0.5388710000000  0.5907400000000 1.0
C      1  0.5462660000000  0.5998010000000  0.4970270000000 1.0
C      1  0.5488320000000  0.5199770000000  0.4017690000000 1.0
C      1  0.4536600000000  0.4187840000000  0.4431370000000 1.0
C      1  0.4508240000000  0.4242240000000  0.5656850000000 1.0
C      1  0.4521500000000  0.5386870000000  0.5908800000000 1.0
C      1  0.4537130000000  0.5995550000000  0.4965140000000 1.0
C      1  0.4512410000000  0.5198680000000  0.4024020000000 1.0
C      1  0.4613480000000  0.3702580000000  0.7016900000000 1.0
C      1  0.4620360000000  0.6533860000000  0.6850690000000 1.0
C      1  0.4622700000000  0.7236620000000  0.4106260000000 1.0
C      1  0.4615320000000  0.4853240000000  0.2597400000000 1.0
C      1  0.4621490000000  0.2655620000000  0.4418550000000 1.0
C      1  0.5385500000000  0.3703160000000  0.7018050000000 1.0
C      1  0.5379170000000  0.6534960000000  0.6850930000000 1.0
C      1  0.5377380000000  0.7236540000000  0.4106400000000 1.0
C      1  0.5384400000000  0.4853430000000  0.2597430000000 1.0
C      1  0.5379310000000  0.2659000000000  0.4415800000000 1.0
C      1  0.3199920000000  0.5394220000000  0.6732280000000 1.0
C      1  0.3187030000000  0.6754000000000  0.5167650000000 1.0
C      1  0.3174750000000  0.5674260000000  0.3370060000000 1.0
C      1  0.3208790000000  0.3672390000000  0.3815570000000 1.0
C      1  0.3163510000000  0.3503740000000  0.5910440000000 1.0
C      1  0.6798530000000  0.5395560000000  0.6731660000000 1.0
C      1  0.6812070000000  0.6752850000000  0.5168400000000 1.0
C      1  0.6824740000000  0.5674010000000  0.3370790000000 1.0
C      1  0.6785030000000  0.3681440000000  0.3808300000000 1.0
C      1  0.6837100000000  0.3509020000000  0.5910290000000 1.0
C      1  0.5889000000000  0.3392990000000  0.3993120000000 1.0
C      1  0.5938480000000  0.3563140000000  0.6254860000000 1.0
C      1  0.5922580000000  0.5725310000000  0.6764500000000 1.0
C      1  0.5921430000000  0.6882250000000  0.4863340000000 1.0
C      1  0.5933820000000  0.5428120000000  0.3131020000000 1.0
C      1  0.4101180000000  0.3400570000000  0.3990530000000 1.0
C      1  0.4060830000000  0.3565320000000  0.6251230000000 1.0
C      1  0.4074810000000  0.5722040000000  0.6760740000000 1.0
C      1  0.4077870000000  0.6882990000000  0.4862410000000 1.0
C      1  0.4065570000000  0.5428070000000  0.3131750000000 1.0
END
