TITL C-1525613-7943-3962 0.162434925389983 3375 -8814.81730868276 0 0 60 (C1) n - 1
REM
REM in /home/nfs/bkarasulu/CARBON/AIRSS/Generating-Clusters/ReaxFF-fromJPCA2015/Units_Real/Try2-Higher-symm/Only-C60
REM
REM
REM
REM
REM
REM ./C.cell (863b2abdce7293c0672fb3ba77bf323a)
REM AIRSS Version 0.9.1 bugfix July 2018 build 013d7b7c2542+ Fri, 06 Jul 2018 19:26:36 +0100
REM compiler GCC version 9.2.1 20190827 (Red Hat 9.2.1-1)
REM options -cpp -mtune=generic -march=x86-64 -g -O0 -fpre-include=/usr/include/finclude/math-vector-fortran.h
REM seed 1979622208 532433534 1749591091 -1421562088 22416627 -324559247 -1638535252 1253705176 -210287990 -871341772 -1117757612 154996046 443130911 -1862580773 1173399353 -896130922 960763129 764617850 -1451102277 -69605241 -81296332 400882037 329782163 806976404 -315745060 -1233107466 -1693521492 1268696658 -344475327 183311633 -506599561 -1945822727 1250025541
REM
CELL 1.54180   15.00000   15.00000   15.00000   90.00000   90.00000   90.00000
LATT -1
SFAC C  
C      1  0.2612890000000  0.5330450000000  0.4336580000000 1.0
C      1  0.2299250000000  0.5140730000000  0.5993470000000 1.0
C      1  0.3408910000000  0.5325750000000  0.7109660000000 1.0
C      1  0.5047110000000  0.5489760000000  0.7684050000000 1.0
C      1  0.6870780000000  0.5347230000000  0.7433110000000 1.0
C      1  0.7657710000000  0.5421990000000  0.5705680000000 1.0
C      1  0.7665400000000  0.5126830000000  0.4112980000000 1.0
C      1  0.6582760000000  0.5342620000000  0.2861710000000 1.0
C      1  0.4984930000000  0.5430490000000  0.2279140000000 1.0
C      1  0.3181930000000  0.5372200000000  0.2681590000000 1.0
C      1  0.4201670000000  0.4015170000000  0.2721260000000 1.0
C      1  0.2983930000000  0.3968890000000  0.3607640000000 1.0
C      1  0.2505000000000  0.3879020000000  0.5047710000000 1.0
C      1  0.3002980000000  0.3850840000000  0.6488710000000 1.0
C      1  0.4290420000000  0.4022080000000  0.7309460000000 1.0
C      1  0.5783360000000  0.4025840000000  0.7280170000000 1.0
C      1  0.6975990000000  0.4033240000000  0.6366460000000 1.0
C      1  0.7477200000000  0.3888380000000  0.4954440000000 1.0
C      1  0.6994080000000  0.3858070000000  0.3506730000000 1.0
C      1  0.5724520000000  0.4004030000000  0.2687750000000 1.0
C      1  0.3293550000000  0.4396360000000  0.2779290000000 1.0
C      1  0.2357470000000  0.4441920000000  0.4231230000000 1.0
C      1  0.2262900000000  0.4205190000000  0.5945290000000 1.0
C      1  0.3377050000000  0.4404280000000  0.7236860000000 1.0
C      1  0.5041380000000  0.4509990000000  0.7724550000000 1.0
C      1  0.6690710000000  0.4383720000000  0.7226980000000 1.0
C      1  0.7646230000000  0.4457570000000  0.5757900000000 1.0
C      1  0.7734510000000  0.4196290000000  0.4059300000000 1.0
C      1  0.6627390000000  0.4409690000000  0.2764720000000 1.0
C      1  0.4962350000000  0.4466020000000  0.2250910000000 1.0
C      1  0.6603740000000  0.3484950000000  0.4966680000000 1.0
C      1  0.6289550000000  0.3465030000000  0.4032350000000 1.0
C      1  0.5465510000000  0.3543020000000  0.3496470000000 1.0
C      1  0.4482910000000  0.3549550000000  0.3520140000000 1.0
C      1  0.3688850000000  0.3517370000000  0.4095230000000 1.0
C      1  0.3383370000000  0.3474250000000  0.5031780000000 1.0
C      1  0.3709430000000  0.3455550000000  0.5964270000000 1.0
C      1  0.4531040000000  0.3548970000000  0.6504300000000 1.0
C      1  0.5508660000000  0.3548020000000  0.6484260000000 1.0
C      1  0.6284250000000  0.3566310000000  0.5890250000000 1.0
C      1  0.5910650000000  0.6690720000000  0.6842250000000 1.0
C      1  0.6404240000000  0.6403310000000  0.6076620000000 1.0
C      1  0.6722110000000  0.6359840000000  0.4693310000000 1.0
C      1  0.6458270000000  0.6784250000000  0.3829940000000 1.0
C      1  0.5630060000000  0.6676880000000  0.3343720000000 1.0
C      1  0.4192300000000  0.6735230000000  0.3130360000000 1.0
C      1  0.3540350000000  0.6626490000000  0.3829980000000 1.0
C      1  0.2915280000000  0.6572870000000  0.5429380000000 1.0
C      1  0.3576090000000  0.6819850000000  0.6079300000000 1.0
C      1  0.4325900000000  0.6424000000000  0.6518010000000 1.0
C      1  0.2494100000000  0.5969800000000  0.5989550000000 1.0
C      1  0.3449110000000  0.6213850000000  0.6973050000000 1.0
C      1  0.5041970000000  0.6332190000000  0.7194070000000 1.0
C      1  0.6740720000000  0.6228020000000  0.7056420000000 1.0
C      1  0.7228960000000  0.6306520000000  0.5564540000000 1.0
C      1  0.7433580000000  0.5915120000000  0.4251640000000 1.0
C      1  0.6510720000000  0.6233310000000  0.2981390000000 1.0
C      1  0.4998160000000  0.6316150000000  0.2716800000000 1.0
C      1  0.3313850000000  0.6300170000000  0.2907500000000 1.0
C      1  0.2921920000000  0.6193750000000  0.4461090000000 1.0
END
