TITL C-1525613-7943-1949 0.0625783417648215 3375 -8782.03324542298 0 0 60 (C1) n - 1
REM
REM in /home/nfs/bkarasulu/CARBON/AIRSS/Generating-Clusters/ReaxFF-fromJPCA2015/Units_Real/Try2-Higher-symm/Only-C60
REM
REM
REM
REM
REM
REM ./C.cell (863b2abdce7293c0672fb3ba77bf323a)
REM AIRSS Version 0.9.1 bugfix July 2018 build 013d7b7c2542+ Fri, 06 Jul 2018 19:26:36 +0100
REM compiler GCC version 9.2.1 20190827 (Red Hat 9.2.1-1)
REM options -cpp -mtune=generic -march=x86-64 -g -O0 -fpre-include=/usr/include/finclude/math-vector-fortran.h
REM seed 203210208 99504401 -1748090362 -1766714720 1359551160 -706704699 310271902 -902475995 364412119 1215762901 -1159888795 -544861457 -1436677482 -898789168 -1741414565 1715540492 -1546308182 121038603 -1492804649 263383401 1520301734 -18414626 -956713442 157682736 -1378607434 -941610953 2082944378 583986772 -573810043 -582654823 -1636322184 -107426554 -1133193548
REM
CELL 1.54180   15.00000   15.00000   15.00000   90.00000   90.00000   90.00000
LATT -1
SFAC C  
C      1  0.5471270000000  0.4222680000000  0.3416440000000 1.0
C      1  0.6053110000000  0.3814200000000  0.4105020000000 1.0
C      1  0.6028280000000  0.4157020000000  0.5020300000000 1.0
C      1  0.6047690000000  0.3775370000000  0.5936100000000 1.0
C      1  0.5462050000000  0.4192290000000  0.6619530000000 1.0
C      1  0.4499680000000  0.4244890000000  0.6582720000000 1.0
C      1  0.3915930000000  0.3829980000000  0.5896310000000 1.0
C      1  0.3961770000000  0.3943590000000  0.4995320000000 1.0
C      1  0.3922230000000  0.3773990000000  0.4088770000000 1.0
C      1  0.4507970000000  0.4245750000000  0.3430100000000 1.0
C      1  0.3389390000000  0.5338910000000  0.7334030000000 1.0
C      1  0.2143040000000  0.5522940000000  0.6012380000000 1.0
C      1  0.2225530000000  0.5540760000000  0.4181250000000 1.0
C      1  0.3517870000000  0.5564740000000  0.2855260000000 1.0
C      1  0.5007670000000  0.5318200000000  0.2444030000000 1.0
C      1  0.6596570000000  0.5310070000000  0.2673130000000 1.0
C      1  0.7855270000000  0.5511880000000  0.3985750000000 1.0
C      1  0.7772120000000  0.5524460000000  0.5821290000000 1.0
C      1  0.6462930000000  0.5534140000000  0.7135390000000 1.0
C      1  0.4979230000000  0.5318340000000  0.7563850000000 1.0
C      1  0.2297880000000  0.5254240000000  0.5088250000000 1.0
C      1  0.2683650000000  0.5501570000000  0.3339330000000 1.0
C      1  0.4203640000000  0.4878610000000  0.2758010000000 1.0
C      1  0.5784280000000  0.4826940000000  0.2734250000000 1.0
C      1  0.7415960000000  0.5498000000000  0.3136770000000 1.0
C      1  0.7708570000000  0.5245760000000  0.4911140000000 1.0
C      1  0.7295830000000  0.5459500000000  0.6651140000000 1.0
C      1  0.5773510000000  0.4858380000000  0.7262100000000 1.0
C      1  0.4193250000000  0.4841360000000  0.7267250000000 1.0
C      1  0.2573220000000  0.5527370000000  0.6866430000000 1.0
C      1  0.5509220000000  0.2404020000000  0.6112320000000 1.0
C      1  0.4688860000000  0.2491290000000  0.6042870000000 1.0
C      1  0.3811220000000  0.2793940000000  0.5805550000000 1.0
C      1  0.3632230000000  0.2574710000000  0.4888450000000 1.0
C      1  0.3741400000000  0.2747770000000  0.3976190000000 1.0
C      1  0.4576830000000  0.2320930000000  0.3942220000000 1.0
C      1  0.5436140000000  0.2297420000000  0.4017190000000 1.0
C      1  0.6221670000000  0.2798860000000  0.4140720000000 1.0
C      1  0.6296090000000  0.2479220000000  0.5021640000000 1.0
C      1  0.6338840000000  0.2800580000000  0.5908410000000 1.0
C      1  0.6123930000000  0.6446330000000  0.3825580000000 1.0
C      1  0.6596380000000  0.6454990000000  0.4653920000000 1.0
C      1  0.6451590000000  0.6515290000000  0.5591790000000 1.0
C      1  0.5733690000000  0.6739630000000  0.6199610000000 1.0
C      1  0.4787590000000  0.6580000000000  0.6434180000000 1.0
C      1  0.3875180000000  0.6462970000000  0.6179970000000 1.0
C      1  0.3407830000000  0.6463630000000  0.5348840000000 1.0
C      1  0.3550380000000  0.6526810000000  0.4411430000000 1.0
C      1  0.4269560000000  0.6746720000000  0.3802390000000 1.0
C      1  0.5213210000000  0.6572440000000  0.3570680000000 1.0
C      1  0.3322860000000  0.6128130000000  0.6896050000000 1.0
C      1  0.2540250000000  0.6098590000000  0.5447420000000 1.0
C      1  0.2757560000000  0.6224200000000  0.3948420000000 1.0
C      1  0.3992380000000  0.6421860000000  0.2906310000000 1.0
C      1  0.4927020000000  0.6270670000000  0.2668690000000 1.0
C      1  0.6668840000000  0.6100570000000  0.3108620000000 1.0
C      1  0.7463970000000  0.6090230000000  0.4551800000000 1.0
C      1  0.7235540000000  0.6200110000000  0.6061110000000 1.0
C      1  0.6007930000000  0.6403330000000  0.7092160000000 1.0
C      1  0.5072450000000  0.6268830000000  0.7333830000000 1.0
END
