TITL C-1525613-7943-6533 0.0325615764267364 3375 -8879.19091166371 0 0 60 (Cs) n - 1
REM
REM in /home/nfs/bkarasulu/CARBON/AIRSS/Generating-Clusters/ReaxFF-fromJPCA2015/Units_Real/Try2-Higher-symm/Only-C60
REM
REM
REM
REM
REM
REM ./C.cell (863b2abdce7293c0672fb3ba77bf323a)
REM AIRSS Version 0.9.1 bugfix July 2018 build 013d7b7c2542+ Fri, 06 Jul 2018 19:26:36 +0100
REM compiler GCC version 9.2.1 20190827 (Red Hat 9.2.1-1)
REM options -cpp -mtune=generic -march=x86-64 -g -O0 -fpre-include=/usr/include/finclude/math-vector-fortran.h
REM seed -941717512 940374549 -1743956961 503300486 -456889231 717863817 1421549344 325759892 -46369217 1348479794 -1002378926 -624385726 -478179451 1641155284 1481511775 190835418 329846075 1030876845 -487554192 -1337863255 1457278243 -2014377824 166639552 1042133798 316384153 760014690 -1302336168 334006712 -555367514 -1359486248 -575674656 -1990470944 31780876
REM
CELL 1.54180   15.00000   15.00000   15.00000   90.00000   90.00000   90.00000
LATT -1
SFAC C  
C      1  0.3075270000000  0.2988360000000  0.5018850000000 1.0
C      1  0.4679730000000  0.3067420000000  0.6744310000000 1.0
C      1  0.6565300000000  0.2948790000000  0.6045770000000 1.0
C      1  0.6373580000000  0.3070020000000  0.3752790000000 1.0
C      1  0.4242440000000  0.3032600000000  0.3567270000000 1.0
C      1  0.3075360000000  0.7011980000000  0.5018450000000 1.0
C      1  0.4679670000000  0.6932810000000  0.6743770000000 1.0
C      1  0.6564760000000  0.7049410000000  0.6045500000000 1.0
C      1  0.6372740000000  0.6929280000000  0.3754760000000 1.0
C      1  0.4241930000000  0.6967410000000  0.3565920000000 1.0
C      1  0.3236090000000  0.5962330000000  0.5184540000000 1.0
C      1  0.4599450000000  0.5946780000000  0.6795430000000 1.0
C      1  0.6502000000000  0.5958870000000  0.5918070000000 1.0
C      1  0.6361460000000  0.5943860000000  0.3796100000000 1.0
C      1  0.4261770000000  0.5944360000000  0.3398110000000 1.0
C      1  0.3236670000000  0.4037490000000  0.5185140000000 1.0
C      1  0.4598810000000  0.4053100000000  0.6797450000000 1.0
C      1  0.6501520000000  0.4039920000000  0.5918410000000 1.0
C      1  0.6369570000000  0.4054290000000  0.3789090000000 1.0
C      1  0.4262940000000  0.4056610000000  0.3400860000000 1.0
C      1  0.5930560000000  0.4517280000000  0.2928850000000 1.0
C      1  0.3331690000000  0.4511400000000  0.3460080000000 1.0
C      1  0.3011380000000  0.4514210000000  0.6120270000000 1.0
C      1  0.5427000000000  0.4515530000000  0.7271940000000 1.0
C      1  0.7222210000000  0.4514400000000  0.5288080000000 1.0
C      1  0.5929450000000  0.5483250000000  0.2930110000000 1.0
C      1  0.3331890000000  0.5488760000000  0.3459910000000 1.0
C      1  0.3011290000000  0.5485570000000  0.6120150000000 1.0
C      1  0.5427120000000  0.5485140000000  0.7271270000000 1.0
C      1  0.7222570000000  0.5484980000000  0.5288730000000 1.0
C      1  0.4648250000000  0.5557360000000  0.4310150000000 1.0
C      1  0.4210810000000  0.5826650000000  0.5111580000000 1.0
C      1  0.4822610000000  0.5567290000000  0.5788210000000 1.0
C      1  0.5662910000000  0.5825410000000  0.5426800000000 1.0
C      1  0.5607830000000  0.5559520000000  0.4506960000000 1.0
C      1  0.4643230000000  0.4443680000000  0.4308370000000 1.0
C      1  0.4212620000000  0.4172660000000  0.5112420000000 1.0
C      1  0.4821230000000  0.4434310000000  0.5790370000000 1.0
C      1  0.5660970000000  0.4172500000000  0.5429400000000 1.0
C      1  0.5613510000000  0.4445540000000  0.4505750000000 1.0
C      1  0.3635940000000  0.5485970000000  0.6870710000000 1.0
C      1  0.6311060000000  0.5485010000000  0.6845890000000 1.0
C      1  0.7180350000000  0.5484640000000  0.4310410000000 1.0
C      1  0.4963460000000  0.5487410000000  0.2759840000000 1.0
C      1  0.2852370000000  0.5481990000000  0.4316810000000 1.0
C      1  0.3635560000000  0.4514110000000  0.6871360000000 1.0
C      1  0.6310810000000  0.4515070000000  0.6846520000000 1.0
C      1  0.7182200000000  0.4515370000000  0.4309540000000 1.0
C      1  0.4964040000000  0.4512590000000  0.2760420000000 1.0
C      1  0.2852730000000  0.4517950000000  0.4317100000000 1.0
C      1  0.4891910000000  0.7856660000000  0.6629410000000 1.0
C      1  0.5865650000000  0.7558730000000  0.6308080000000 1.0
C      1  0.5940100000000  0.7817080000000  0.3665340000000 1.0
C      1  0.5031870000000  0.7366460000000  0.3613330000000 1.0
C      1  0.3551770000000  0.7284400000000  0.4244540000000 1.0
C      1  0.4891300000000  0.2143570000000  0.6629510000000 1.0
C      1  0.5865330000000  0.2441040000000  0.6308280000000 1.0
C      1  0.5939240000000  0.2182090000000  0.3664690000000 1.0
C      1  0.5031770000000  0.2633150000000  0.3613870000000 1.0
C      1  0.3552330000000  0.2715580000000  0.4244370000000 1.0
END
