TITL C-1525613-7943-6012 -0.000515731404861097 3375 -9274.49548560791 0 0 60 (C1) n - 1
REM
REM in /home/nfs/bkarasulu/CARBON/AIRSS/Generating-Clusters/ReaxFF-fromJPCA2015/Units_Real/Try2-Higher-symm/Only-C60
REM
REM
REM
REM
REM
REM ./C.cell (863b2abdce7293c0672fb3ba77bf323a)
REM AIRSS Version 0.9.1 bugfix July 2018 build 013d7b7c2542+ Fri, 06 Jul 2018 19:26:36 +0100
REM compiler GCC version 9.2.1 20190827 (Red Hat 9.2.1-1)
REM options -cpp -mtune=generic -march=x86-64 -g -O0 -fpre-include=/usr/include/finclude/math-vector-fortran.h
REM seed -1372813234 -1738421467 -564169354 1707409334 -862370356 369517076 652558638 -1856191159 188798391 2057804423 825595523 710710075 -1139378836 1905481880 25894030 1201168558 583735259 -62154975 -755644414 -735819182 -1548230097 -193074962 1268691941 -1599836809 390136850 1872795649 -676474657 -1660602279 -1765333206 -12611843 801814159 -193366371 -1510989454
REM
CELL 1.54180   15.00000   15.00000   15.00000   90.00000   90.00000   90.00000
LATT -1
SFAC C  
C      1  0.4628250000000  0.5495470000000  0.2460440000000 1.0
C      1  0.4627890000000  0.2731510000000  0.3764070000000 1.0
C      1  0.4637710000000  0.3151140000000  0.6748550000000 1.0
C      1  0.4645360000000  0.6064980000000  0.7306540000000 1.0
C      1  0.4629520000000  0.7560010000000  0.4708490000000 1.0
C      1  0.4628100000000  0.4504760000000  0.2459980000000 1.0
C      1  0.4627640000000  0.7269240000000  0.3763350000000 1.0
C      1  0.4636900000000  0.6851340000000  0.6747860000000 1.0
C      1  0.4641330000000  0.3934220000000  0.7313580000000 1.0
C      1  0.4629190000000  0.2443320000000  0.4710010000000 1.0
C      1  0.6175960000000  0.6656820000000  0.6498440000000 1.0
C      1  0.6219250000000  0.6977670000000  0.3855020000000 1.0
C      1  0.6219300000000  0.4506930000000  0.2775110000000 1.0
C      1  0.6218800000000  0.2724370000000  0.4793260000000 1.0
C      1  0.6185340000000  0.4099190000000  0.7044140000000 1.0
C      1  0.6176070000000  0.3345260000000  0.6498070000000 1.0
C      1  0.6218860000000  0.3021680000000  0.3854300000000 1.0
C      1  0.6219430000000  0.5492730000000  0.2775680000000 1.0
C      1  0.6219980000000  0.7276390000000  0.4793510000000 1.0
C      1  0.6179930000000  0.5898970000000  0.7039050000000 1.0
C      1  0.3225310000000  0.6243650000000  0.5925220000000 1.0
C      1  0.3223010000000  0.6262780000000  0.4080210000000 1.0
C      1  0.3218840000000  0.4507600000000  0.3506670000000 1.0
C      1  0.3222350000000  0.3446120000000  0.5015350000000 1.0
C      1  0.3259740000000  0.4532020000000  0.6482240000000 1.0
C      1  0.3228550000000  0.3755660000000  0.5922220000000 1.0
C      1  0.3221460000000  0.3735520000000  0.4077970000000 1.0
C      1  0.3219560000000  0.5491530000000  0.3507700000000 1.0
C      1  0.3227250000000  0.6551550000000  0.5017650000000 1.0
C      1  0.3261360000000  0.5465080000000  0.6482170000000 1.0
C      1  0.3648110000000  0.7417400000000  0.4757820000000 1.0
C      1  0.3644510000000  0.5497520000000  0.2603980000000 1.0
C      1  0.3645010000000  0.2872460000000  0.3806020000000 1.0
C      1  0.3664830000000  0.3232210000000  0.6633280000000 1.0
C      1  0.3683370000000  0.5969470000000  0.7190190000000 1.0
C      1  0.3647040000000  0.2581790000000  0.4756920000000 1.0
C      1  0.3644270000000  0.4502900000000  0.2603180000000 1.0
C      1  0.3645080000000  0.7126210000000  0.3807080000000 1.0
C      1  0.3662380000000  0.6766900000000  0.6636520000000 1.0
C      1  0.3679740000000  0.4027450000000  0.7188800000000 1.0
C      1  0.5387240000000  0.3200410000000  0.3365020000000 1.0
C      1  0.5389190000000  0.2919340000000  0.6199870000000 1.0
C      1  0.5401110000000  0.5479170000000  0.7352550000000 1.0
C      1  0.5390140000000  0.7405500000000  0.5296780000000 1.0
C      1  0.5387330000000  0.6014220000000  0.2793300000000 1.0
C      1  0.5387300000000  0.6799390000000  0.3365880000000 1.0
C      1  0.5388110000000  0.7087890000000  0.6199430000000 1.0
C      1  0.5400990000000  0.4526810000000  0.7358990000000 1.0
C      1  0.5389520000000  0.2599350000000  0.5298000000000 1.0
C      1  0.5387090000000  0.3985670000000  0.2792500000000 1.0
C      1  0.6899110000000  0.6593150000000  0.5016870000000 1.0
C      1  0.6893050000000  0.5497670000000  0.3504390000000 1.0
C      1  0.6897080000000  0.3713720000000  0.4069970000000 1.0
C      1  0.6868870000000  0.3719360000000  0.5928110000000 1.0
C      1  0.6866840000000  0.5479600000000  0.6512060000000 1.0
C      1  0.6899870000000  0.3405790000000  0.5015780000000 1.0
C      1  0.6893000000000  0.4500940000000  0.3503780000000 1.0
C      1  0.6896090000000  0.6284270000000  0.4071630000000 1.0
C      1  0.6868280000000  0.6278680000000  0.5930330000000 1.0
C      1  0.6873220000000  0.4517250000000  0.6514130000000 1.0
END
