TITL C-1525613-7943-6991 -0.000723697679290875 3375 -8838.00375992568 0 0 60 (C5v) n - 1
REM
REM in /home/nfs/bkarasulu/CARBON/AIRSS/Generating-Clusters/ReaxFF-fromJPCA2015/Units_Real/Try2-Higher-symm/Only-C60
REM
REM
REM
REM
REM
REM ./C.cell (863b2abdce7293c0672fb3ba77bf323a)
REM AIRSS Version 0.9.1 bugfix July 2018 build 013d7b7c2542+ Fri, 06 Jul 2018 19:26:36 +0100
REM compiler GCC version 9.2.1 20190827 (Red Hat 9.2.1-1)
REM options -cpp -mtune=generic -march=x86-64 -g -O0 -fpre-include=/usr/include/finclude/math-vector-fortran.h
REM seed -1028662170 812080433 1868233982 2143263189 -663048000 -1446293277 -2111716118 -1424502518 5361640 -484128875 194489768 1424847857 724742939 1826214165 -523140371 1398708067 -705321608 623792113 -591177415 332371168 -202686924 -731044072 -414852357 364398848 1264405969 -1684380696 501834788 1086812580 -163014859 -1444670641 1233104172 -989925900 -1382556066
REM
CELL 1.54180   15.00000   15.00000   15.00000   90.00000   90.00000   90.00000
LATT -1
SFAC C  
C      1  0.2618550000000  0.4511220000000  0.3867760000000 1.0
C      1  0.4728780000000  0.2584190000000  0.3866820000000 1.0
C      1  0.7213600000000  0.3995770000000  0.3866310000000 1.0
C      1  0.6639040000000  0.6795110000000  0.3866390000000 1.0
C      1  0.3799070000000  0.7113690000000  0.3867050000000 1.0
C      1  0.2618550000000  0.5488770000000  0.3867750000000 1.0
C      1  0.4728770000000  0.7415810000000  0.3866820000000 1.0
C      1  0.7213600000000  0.6004220000000  0.3866300000000 1.0
C      1  0.6639040000000  0.3204890000000  0.3866400000000 1.0
C      1  0.3799070000000  0.2886310000000  0.3867060000000 1.0
C      1  0.7413780000000  0.4362840000000  0.5625680000000 1.0
C      1  0.6352020000000  0.7098720000000  0.5625830000000 1.0
C      1  0.3421920000000  0.6934400000000  0.5626600000000 1.0
C      1  0.2672860000000  0.4096740000000  0.5627130000000 1.0
C      1  0.5140020000000  0.2507360000000  0.5626130000000 1.0
C      1  0.7413780000000  0.5637160000000  0.5625680000000 1.0
C      1  0.6352020000000  0.2901280000000  0.5625840000000 1.0
C      1  0.3421920000000  0.3065600000000  0.5626600000000 1.0
C      1  0.2672860000000  0.5903260000000  0.5627130000000 1.0
C      1  0.5140010000000  0.7492640000000  0.5626130000000 1.0
C      1  0.2115130000000  0.5487800000000  0.6381530000000 1.0
C      1  0.3644860000000  0.2406510000000  0.6380690000000 1.0
C      1  0.7047580000000  0.2909620000000  0.6380110000000 1.0
C      1  0.7620970000000  0.6301080000000  0.6380080000000 1.0
C      1  0.4572700000000  0.7895010000000  0.6380480000000 1.0
C      1  0.2115130000000  0.4512200000000  0.6381530000000 1.0
C      1  0.3644860000000  0.7593490000000  0.6380690000000 1.0
C      1  0.7047580000000  0.7090390000000  0.6380100000000 1.0
C      1  0.7620970000000  0.3698920000000  0.6380080000000 1.0
C      1  0.4572700000000  0.2104990000000  0.6380490000000 1.0
C      1  0.5890080000000  0.6228900000000  0.3584610000000 1.0
C      1  0.4106150000000  0.6226480000000  0.3585100000000 1.0
C      1  0.3557150000000  0.4529140000000  0.3585540000000 1.0
C      1  0.5001790000000  0.3482470000000  0.3584880000000 1.0
C      1  0.6443600000000  0.4533000000000  0.3584500000000 1.0
C      1  0.5890080000000  0.3771100000000  0.3584610000000 1.0
C      1  0.4106150000000  0.3773510000000  0.3585100000000 1.0
C      1  0.3557150000000  0.5470860000000  0.3585540000000 1.0
C      1  0.5001790000000  0.6517520000000  0.3584880000000 1.0
C      1  0.6443600000000  0.5467000000000  0.3584500000000 1.0
C      1  0.4111370000000  0.6213260000000  0.5744030000000 1.0
C      1  0.3571740000000  0.4529640000000  0.5744440000000 1.0
C      1  0.5006020000000  0.3496010000000  0.5743710000000 1.0
C      1  0.6432100000000  0.4540910000000  0.5743260000000 1.0
C      1  0.5879220000000  0.6220170000000  0.5743370000000 1.0
C      1  0.4111370000000  0.3786740000000  0.5744030000000 1.0
C      1  0.3571740000000  0.5470360000000  0.5744440000000 1.0
C      1  0.5006020000000  0.6503990000000  0.5743710000000 1.0
C      1  0.6432100000000  0.5459090000000  0.5743260000000 1.0
C      1  0.5879220000000  0.3779830000000  0.5743370000000 1.0
C      1  0.2292480000000  0.4514040000000  0.4798540000000 1.0
C      1  0.4625480000000  0.2274730000000  0.4797550000000 1.0
C      1  0.7476030000000  0.3801750000000  0.4796990000000 1.0
C      1  0.6904780000000  0.6984570000000  0.4797080000000 1.0
C      1  0.3701150000000  0.7424840000000  0.4797790000000 1.0
C      1  0.2292480000000  0.5485960000000  0.4798540000000 1.0
C      1  0.4625470000000  0.7725260000000  0.4797550000000 1.0
C      1  0.7476020000000  0.6198250000000  0.4796980000000 1.0
C      1  0.6904780000000  0.3015430000000  0.4797080000000 1.0
C      1  0.3701150000000  0.2575150000000  0.4797790000000 1.0
END
