TITL C-1525613-7943-3972 0.00112145632972487 3375 -8980.50057015134 0 0 60 (C1) n - 1
REM
REM in /home/nfs/bkarasulu/CARBON/AIRSS/Generating-Clusters/ReaxFF-fromJPCA2015/Units_Real/Try2-Higher-symm/Only-C60
REM
REM
REM
REM
REM
REM ./C.cell (863b2abdce7293c0672fb3ba77bf323a)
REM AIRSS Version 0.9.1 bugfix July 2018 build 013d7b7c2542+ Fri, 06 Jul 2018 19:26:36 +0100
REM compiler GCC version 9.2.1 20190827 (Red Hat 9.2.1-1)
REM options -cpp -mtune=generic -march=x86-64 -g -O0 -fpre-include=/usr/include/finclude/math-vector-fortran.h
REM seed 736981566 1881764499 1203570008 -1271233379 -754879129 -2059863814 417503120 806985129 214389591 664944677 -190693356 805755193 -176372776 -384291128 -851804311 -548804971 691103515 551442015 -703909576 -1633098999 134062260 1306573394 -1727797650 1603099121 -1413989675 -1641067742 -353843682 1251800319 876442902 -1895996956 1835144436 169255228 1799793959
REM
CELL 1.54180   15.00000   15.00000   15.00000   90.00000   90.00000   90.00000
LATT -1
SFAC C  
C      1  0.6729110000000  0.4053950000000  0.3622080000000 1.0
C      1  0.6847450000000  0.5875260000000  0.3655410000000 1.0
C      1  0.6751290000000  0.6310990000000  0.5449080000000 1.0
C      1  0.6890200000000  0.4868550000000  0.6635050000000 1.0
C      1  0.6840250000000  0.3492840000000  0.5421710000000 1.0
C      1  0.6840630000000  0.3971390000000  0.6279580000000 1.0
C      1  0.6797230000000  0.5782530000000  0.6270510000000 1.0
C      1  0.6894220000000  0.6398270000000  0.4489610000000 1.0
C      1  0.6788700000000  0.4965400000000  0.3304960000000 1.0
C      1  0.6785130000000  0.3511810000000  0.4446240000000 1.0
C      1  0.3837990000000  0.3778440000000  0.7054330000000 1.0
C      1  0.3922670000000  0.2659420000000  0.4517410000000 1.0
C      1  0.3857950000000  0.4643320000000  0.2622020000000 1.0
C      1  0.3926550000000  0.6981750000000  0.3993350000000 1.0
C      1  0.3827100000000  0.6473540000000  0.6713760000000 1.0
C      1  0.3823530000000  0.3697880000000  0.2891870000000 1.0
C      1  0.3930430000000  0.2703600000000  0.5505870000000 1.0
C      1  0.3716610000000  0.4685350000000  0.7395900000000 1.0
C      1  0.3854720000000  0.7020040000000  0.5898490000000 1.0
C      1  0.3804950000000  0.6474630000000  0.3153410000000 1.0
C      1  0.5242410000000  0.3661550000000  0.5663150000000 1.0
C      1  0.5122600000000  0.3983530000000  0.3628860000000 1.0
C      1  0.5365390000000  0.6181670000000  0.3158100000000 1.0
C      1  0.5536640000000  0.7468190000000  0.5462450000000 1.0
C      1  0.5408120000000  0.5128370000000  0.7321420000000 1.0
C      1  0.5179190000000  0.3426150000000  0.4368730000000 1.0
C      1  0.5262810000000  0.4075400000000  0.6526530000000 1.0
C      1  0.5461490000000  0.6065680000000  0.7182880000000 1.0
C      1  0.5595150000000  0.7498650000000  0.4516630000000 1.0
C      1  0.5284030000000  0.5242540000000  0.3215850000000 1.0
C      1  0.4564200000000  0.7503360000000  0.5432130000000 1.0
C      1  0.4474740000000  0.5252030000000  0.7647440000000 1.0
C      1  0.4726500000000  0.2910110000000  0.6045170000000 1.0
C      1  0.4682250000000  0.3269740000000  0.3110210000000 1.0
C      1  0.4558600000000  0.6182870000000  0.2601740000000 1.0
C      1  0.4612930000000  0.7506430000000  0.4456200000000 1.0
C      1  0.4683170000000  0.5193800000000  0.2497700000000 1.0
C      1  0.4741780000000  0.2720460000000  0.3951830000000 1.0
C      1  0.4755390000000  0.3400880000000  0.6922290000000 1.0
C      1  0.4518560000000  0.6176070000000  0.7341340000000 1.0
C      1  0.3369280000000  0.6326340000000  0.4479390000000 1.0
C      1  0.3245260000000  0.5809230000000  0.6260340000000 1.0
C      1  0.3268860000000  0.3977310000000  0.6266980000000 1.0
C      1  0.3284400000000  0.3405110000000  0.4470020000000 1.0
C      1  0.3246060000000  0.4891570000000  0.3351350000000 1.0
C      1  0.3254480000000  0.6377110000000  0.5442970000000 1.0
C      1  0.3218680000000  0.5828200000000  0.3634540000000 1.0
C      1  0.3221260000000  0.3938620000000  0.3650140000000 1.0
C      1  0.3236690000000  0.3409960000000  0.5474030000000 1.0
C      1  0.3146990000000  0.4905010000000  0.6604470000000 1.0
C      1  0.5983190000000  0.2931810000000  0.4495720000000 1.0
C      1  0.5985410000000  0.4806810000000  0.2731500000000 1.0
C      1  0.6307340000000  0.7053490000000  0.4074790000000 1.0
C      1  0.6151150000000  0.6392540000000  0.6663820000000 1.0
C      1  0.6072360000000  0.3792210000000  0.6920520000000 1.0
C      1  0.5995130000000  0.2996820000000  0.5480730000000 1.0
C      1  0.6273060000000  0.4643520000000  0.7363630000000 1.0
C      1  0.6139730000000  0.6904060000000  0.5888340000000 1.0
C      1  0.6222960000000  0.6538150000000  0.3318180000000 1.0
C      1  0.5935050000000  0.3875650000000  0.3057240000000 1.0
END
