TITL C-1525613-7943-6409 0.0487678035408718 3375 -8858.28053600809 0 0 60 (Cs) n - 1
REM
REM in /home/nfs/bkarasulu/CARBON/AIRSS/Generating-Clusters/ReaxFF-fromJPCA2015/Units_Real/Try2-Higher-symm/Only-C60
REM
REM
REM
REM
REM
REM ./C.cell (863b2abdce7293c0672fb3ba77bf323a)
REM AIRSS Version 0.9.1 bugfix July 2018 build 013d7b7c2542+ Fri, 06 Jul 2018 19:26:36 +0100
REM compiler GCC version 9.2.1 20190827 (Red Hat 9.2.1-1)
REM options -cpp -mtune=generic -march=x86-64 -g -O0 -fpre-include=/usr/include/finclude/math-vector-fortran.h
REM seed 1630372585 -583054528 -840697810 -1046609926 -2104399552 -1151310035 -36024697 1847336449 -902520367 -616118559 -1697072562 -1618469681 -312343772 1598916920 -314505233 748402419 -252960983 1512302236 164496870 735477260 386229747 -541532792 1867129446 1089108389 27304122 454948574 1345880949 479647773 -437239434 -1397165842 765050782 -1931884515 -1010401856
REM
CELL 1.54180   15.00000   15.00000   15.00000   90.00000   90.00000   90.00000
LATT -1
SFAC C  
C      1  0.5008740000000  0.3412860000000  0.6781950000000 1.0
C      1  0.6507340000000  0.4519920000000  0.6770970000000 1.0
C      1  0.5921920000000  0.6283260000000  0.6767320000000 1.0
C      1  0.4068070000000  0.6267490000000  0.6760570000000 1.0
C      1  0.3492340000000  0.4503020000000  0.6777670000000 1.0
C      1  0.5008090000000  0.6587280000000  0.6785000000000 1.0
C      1  0.6510200000000  0.5482370000000  0.6775740000000 1.0
C      1  0.5923310000000  0.3716030000000  0.6771560000000 1.0
C      1  0.4068350000000  0.3733130000000  0.6760390000000 1.0
C      1  0.3492150000000  0.5497490000000  0.6778090000000 1.0
C      1  0.3250240000000  0.5729970000000  0.3994500000000 1.0
C      1  0.3789640000000  0.3482110000000  0.3956670000000 1.0
C      1  0.6002910000000  0.3386110000000  0.3997530000000 1.0
C      1  0.6839300000000  0.5498110000000  0.4008500000000 1.0
C      1  0.5074330000000  0.6883860000000  0.3990100000000 1.0
C      1  0.3232600000000  0.4269050000000  0.3990890000000 1.0
C      1  0.3808000000000  0.6518880000000  0.3963630000000 1.0
C      1  0.6005150000000  0.6575060000000  0.4017580000000 1.0
C      1  0.6846440000000  0.4532360000000  0.3977830000000 1.0
C      1  0.5082910000000  0.3102130000000  0.3988480000000 1.0
C      1  0.4998640000000  0.6564300000000  0.3070090000000 1.0
C      1  0.3525610000000  0.5480310000000  0.3105060000000 1.0
C      1  0.4073690000000  0.3731130000000  0.3055280000000 1.0
C      1  0.5917210000000  0.3728620000000  0.3095830000000 1.0
C      1  0.6499400000000  0.5486540000000  0.3062520000000 1.0
C      1  0.4995710000000  0.3443610000000  0.3080170000000 1.0
C      1  0.3520180000000  0.4523420000000  0.3103380000000 1.0
C      1  0.4075220000000  0.6274520000000  0.3048980000000 1.0
C      1  0.5913210000000  0.6259890000000  0.3088000000000 1.0
C      1  0.6480490000000  0.4510680000000  0.3083600000000 1.0
C      1  0.2773390000000  0.5468970000000  0.6128050000000 1.0
C      1  0.3878340000000  0.3040410000000  0.6114320000000 1.0
C      1  0.6522350000000  0.3317250000000  0.6124530000000 1.0
C      1  0.7075560000000  0.5927890000000  0.6127430000000 1.0
C      1  0.4764110000000  0.7262480000000  0.6133110000000 1.0
C      1  0.2773060000000  0.4532410000000  0.6128930000000 1.0
C      1  0.3880020000000  0.6960880000000  0.6115560000000 1.0
C      1  0.6519470000000  0.6679270000000  0.6118020000000 1.0
C      1  0.7069030000000  0.4074560000000  0.6119410000000 1.0
C      1  0.4762240000000  0.2738570000000  0.6129940000000 1.0
C      1  0.7678990000000  0.4529780000000  0.4511770000000 1.0
C      1  0.6294720000000  0.7380090000000  0.4531130000000 1.0
C      1  0.3115430000000  0.6983100000000  0.4522750000000 1.0
C      1  0.2538510000000  0.3818490000000  0.4532920000000 1.0
C      1  0.5374880000000  0.2299260000000  0.4524290000000 1.0
C      1  0.7687540000000  0.5508710000000  0.4536710000000 1.0
C      1  0.6303760000000  0.2609620000000  0.4534230000000 1.0
C      1  0.3101550000000  0.3017280000000  0.4523290000000 1.0
C      1  0.2549740000000  0.6183860000000  0.4529070000000 1.0
C      1  0.5364030000000  0.7678070000000  0.4523470000000 1.0
C      1  0.7626690000000  0.4521830000000  0.5499850000000 1.0
C      1  0.6272670000000  0.7358230000000  0.5507570000000 1.0
C      1  0.3159060000000  0.6938510000000  0.5508180000000 1.0
C      1  0.2595170000000  0.3838050000000  0.5509660000000 1.0
C      1  0.5363260000000  0.2351420000000  0.5509520000000 1.0
C      1  0.7635800000000  0.5477890000000  0.5512660000000 1.0
C      1  0.6272380000000  0.2643130000000  0.5510810000000 1.0
C      1  0.3154610000000  0.3063000000000  0.5508140000000 1.0
C      1  0.2599290000000  0.6163830000000  0.5505910000000 1.0
C      1  0.5362950000000  0.7649670000000  0.5510870000000 1.0
END
