TITL C-1525613-7943-1445 -0.106506552180764 3375 -9155.42455452292 0 0 60 (C1) n - 1
REM
REM in /home/nfs/bkarasulu/CARBON/AIRSS/Generating-Clusters/ReaxFF-fromJPCA2015/Units_Real/Try2-Higher-symm/Only-C60
REM
REM
REM
REM
REM
REM ./C.cell (863b2abdce7293c0672fb3ba77bf323a)
REM AIRSS Version 0.9.1 bugfix July 2018 build 013d7b7c2542+ Fri, 06 Jul 2018 19:26:36 +0100
REM compiler GCC version 9.2.1 20190827 (Red Hat 9.2.1-1)
REM options -cpp -mtune=generic -march=x86-64 -g -O0 -fpre-include=/usr/include/finclude/math-vector-fortran.h
REM seed 1921054005 -1167428138 782538615 -868260880 728501741 1071262287 -694786325 363870590 -741777153 514265 -696238856 -1644696362 -1749552379 -1278699227 936260516 317054123 -1978641885 -758133752 827494999 -1079962342 -143575958 1922159727 1916259551 -1134531980 283897932 1010583543 -1355695156 -1071134502 -2034025910 340004554 -234926631 -1024047823 -1833378872
REM
CELL 1.54180   15.00000   15.00000   15.00000   90.00000   90.00000   90.00000
LATT -1
SFAC C  
C      1  0.4529250000000  0.6434410000000  0.3265480000000 1.0
C      1  0.5488030000000  0.6579510000000  0.3260550000000 1.0
C      1  0.6295910000000  0.6035440000000  0.3221850000000 1.0
C      1  0.6503560000000  0.5067070000000  0.3228760000000 1.0
C      1  0.5921070000000  0.4359670000000  0.3146810000000 1.0
C      1  0.5461990000000  0.3567090000000  0.3223130000000 1.0
C      1  0.4473270000000  0.3424720000000  0.3217670000000 1.0
C      1  0.3683520000000  0.3996610000000  0.3261620000000 1.0
C      1  0.3491620000000  0.4947490000000  0.3268450000000 1.0
C      1  0.4055480000000  0.5659000000000  0.3165160000000 1.0
C      1  0.3281260000000  0.3362730000000  0.3854610000000 1.0
C      1  0.2949980000000  0.5364940000000  0.3952130000000 1.0
C      1  0.3137280000000  0.6301700000000  0.4072300000000 1.0
C      1  0.3952090000000  0.6799650000000  0.3949010000000 1.0
C      1  0.5945900000000  0.7179560000000  0.3854210000000 1.0
C      1  0.6717260000000  0.6657050000000  0.3838650000000 1.0
C      1  0.7052340000000  0.4628350000000  0.3959190000000 1.0
C      1  0.6898400000000  0.3674800000000  0.4099120000000 1.0
C      1  0.6054790000000  0.3196090000000  0.3955390000000 1.0
C      1  0.4034220000000  0.2814620000000  0.3838920000000 1.0
C      1  0.4211310000000  0.2512980000000  0.4714610000000 1.0
C      1  0.2933440000000  0.3406030000000  0.4720160000000 1.0
C      1  0.2439760000000  0.5043780000000  0.4720250000000 1.0
C      1  0.2719640000000  0.6595780000000  0.4861230000000 1.0
C      1  0.4083210000000  0.7386240000000  0.4718990000000 1.0
C      1  0.5791140000000  0.7486300000000  0.4719810000000 1.0
C      1  0.7068700000000  0.6592770000000  0.4712860000000 1.0
C      1  0.7556540000000  0.4945270000000  0.4719580000000 1.0
C      1  0.7322620000000  0.3375790000000  0.4915720000000 1.0
C      1  0.5926750000000  0.2618420000000  0.4719000000000 1.0
C      1  0.7508840000000  0.5837260000000  0.5125450000000 1.0
C      1  0.7692340000000  0.4183160000000  0.5329410000000 1.0
C      1  0.6689210000000  0.2752690000000  0.5329850000000 1.0
C      1  0.5069200000000  0.2358060000000  0.5124480000000 1.0
C      1  0.3456060000000  0.2789370000000  0.5255230000000 1.0
C      1  0.2484250000000  0.4159400000000  0.5132480000000 1.0
C      1  0.2323910000000  0.5815060000000  0.5306610000000 1.0
C      1  0.3320480000000  0.7232640000000  0.5306810000000 1.0
C      1  0.4929300000000  0.7648270000000  0.5132050000000 1.0
C      1  0.6551330000000  0.7206970000000  0.5255030000000 1.0
C      1  0.6553210000000  0.4519100000000  0.6687270000000 1.0
C      1  0.5973680000000  0.3695120000000  0.6688680000000 1.0
C      1  0.5021280000000  0.3380870000000  0.6579840000000 1.0
C      1  0.4056700000000  0.3667490000000  0.6692900000000 1.0
C      1  0.3464020000000  0.4479700000000  0.6583120000000 1.0
C      1  0.3441920000000  0.5483950000000  0.6679020000000 1.0
C      1  0.4023810000000  0.6307630000000  0.6681560000000 1.0
C      1  0.4978700000000  0.6619840000000  0.6582730000000 1.0
C      1  0.5943490000000  0.6333740000000  0.6691530000000 1.0
C      1  0.6533690000000  0.5519560000000  0.6581850000000 1.0
C      1  0.3501060000000  0.7028370000000  0.6273290000000 1.0
C      1  0.4958710000000  0.7487290000000  0.6125640000000 1.0
C      1  0.6443000000000  0.7046570000000  0.6243130000000 1.0
C      1  0.7353980000000  0.5798580000000  0.6117610000000 1.0
C      1  0.7418690000000  0.4279430000000  0.6289090000000 1.0
C      1  0.6496070000000  0.2965510000000  0.6290340000000 1.0
C      1  0.5043760000000  0.2514520000000  0.6118100000000 1.0
C      1  0.3562050000000  0.2952090000000  0.6243330000000 1.0
C      1  0.2642990000000  0.4198790000000  0.6125980000000 1.0
C      1  0.2583950000000  0.5725120000000  0.6272400000000 1.0
END
