TITL C-1525613-7943-5329 0.0206963739840088 3375 -9510.5027625026 0 0 60 (Cs) n - 1
REM
REM in /home/nfs/bkarasulu/CARBON/AIRSS/Generating-Clusters/ReaxFF-fromJPCA2015/Units_Real/Try2-Higher-symm/Only-C60
REM
REM
REM
REM
REM
REM ./C.cell (863b2abdce7293c0672fb3ba77bf323a)
REM AIRSS Version 0.9.1 bugfix July 2018 build 013d7b7c2542+ Fri, 06 Jul 2018 19:26:36 +0100
REM compiler GCC version 9.2.1 20190827 (Red Hat 9.2.1-1)
REM options -cpp -mtune=generic -march=x86-64 -g -O0 -fpre-include=/usr/include/finclude/math-vector-fortran.h
REM seed 1469117149 -435349956 -1200705215 -1365708519 -1062083311 2026586671 -1407585721 -1342355803 412916227 -1230761709 2073395336 496090092 -308943445 338557506 1008750714 -2131960356 1002534828 908505829 599509468 2099026657 2127589136 1330835317 -211032949 -1888651328 1386843561 1493738601 -1102235581 -1758889412 -306632446 -91498468 -1782045424 1431989813 1852566076
REM
CELL 1.54180   15.00000   15.00000   15.00000   90.00000   90.00000   90.00000
LATT -1
SFAC C  
C      1  0.5006900000000  0.3424600000000  0.6900790000000 1.0
C      1  0.6508620000000  0.4517490000000  0.6898610000000 1.0
C      1  0.5922010000000  0.6280910000000  0.6895180000000 1.0
C      1  0.4070860000000  0.6270470000000  0.6887620000000 1.0
C      1  0.3491710000000  0.4508680000000  0.6910250000000 1.0
C      1  0.5006310000000  0.6588120000000  0.6905250000000 1.0
C      1  0.6504970000000  0.5483040000000  0.6896410000000 1.0
C      1  0.5925030000000  0.3720680000000  0.6898480000000 1.0
C      1  0.4068020000000  0.3733400000000  0.6897260000000 1.0
C      1  0.3505160000000  0.5496120000000  0.6888770000000 1.0
C      1  0.5259530000000  0.7339850000000  0.5412340000000 1.0
C      1  0.2877300000000  0.5963180000000  0.5416560000000 1.0
C      1  0.3425240000000  0.3268460000000  0.5415850000000 1.0
C      1  0.6168380000000  0.2980270000000  0.5412610000000 1.0
C      1  0.7299460000000  0.5485370000000  0.5413390000000 1.0
C      1  0.5263450000000  0.2677600000000  0.5414710000000 1.0
C      1  0.2857490000000  0.4034970000000  0.5419370000000 1.0
C      1  0.3444220000000  0.6729490000000  0.5414730000000 1.0
C      1  0.6171320000000  0.7036030000000  0.5413720000000 1.0
C      1  0.7301550000000  0.4522900000000  0.5410550000000 1.0
C      1  0.6500470000000  0.6664700000000  0.6217250000000 1.0
C      1  0.3890650000000  0.6934140000000  0.6211290000000 1.0
C      1  0.2802860000000  0.4534960000000  0.6220710000000 1.0
C      1  0.4769200000000  0.2784270000000  0.6215580000000 1.0
C      1  0.7051140000000  0.4087940000000  0.6219700000000 1.0
C      1  0.6498020000000  0.3342200000000  0.6212610000000 1.0
C      1  0.3886600000000  0.3071110000000  0.6212360000000 1.0
C      1  0.2822050000000  0.5463970000000  0.6212860000000 1.0
C      1  0.4767450000000  0.7243200000000  0.6224240000000 1.0
C      1  0.7047510000000  0.5914890000000  0.6218030000000 1.0
C      1  0.2907780000000  0.4084050000000  0.3760820000000 1.0
C      1  0.5227350000000  0.2727900000000  0.3758440000000 1.0
C      1  0.7187900000000  0.4535670000000  0.3797840000000 1.0
C      1  0.6117010000000  0.6937760000000  0.3792290000000 1.0
C      1  0.3492710000000  0.6702710000000  0.3767200000000 1.0
C      1  0.2909700000000  0.5916390000000  0.3763060000000 1.0
C      1  0.5234430000000  0.7223230000000  0.3798110000000 1.0
C      1  0.7186950000000  0.5463380000000  0.3794030000000 1.0
C      1  0.6155320000000  0.3039300000000  0.3763200000000 1.0
C      1  0.3483880000000  0.3292050000000  0.3759630000000 1.0
C      1  0.4073440000000  0.6286820000000  0.3083450000000 1.0
C      1  0.3489050000000  0.4516480000000  0.3081040000000 1.0
C      1  0.4995890000000  0.3412710000000  0.3076450000000 1.0
C      1  0.6497860000000  0.4509500000000  0.3109220000000 1.0
C      1  0.5935840000000  0.6276390000000  0.3113600000000 1.0
C      1  0.4074780000000  0.3713140000000  0.3081220000000 1.0
C      1  0.3488150000000  0.5485280000000  0.3079830000000 1.0
C      1  0.4995110000000  0.6574990000000  0.3109930000000 1.0
C      1  0.6502780000000  0.5496080000000  0.3115360000000 1.0
C      1  0.5939230000000  0.3721330000000  0.3080780000000 1.0
C      1  0.4755580000000  0.7328300000000  0.4599880000000 1.0
C      1  0.2686400000000  0.5479950000000  0.4606530000000 1.0
C      1  0.3829160000000  0.2947210000000  0.4605490000000 1.0
C      1  0.6587680000000  0.3269960000000  0.4605790000000 1.0
C      1  0.7142200000000  0.5961510000000  0.4596730000000 1.0
C      1  0.4744640000000  0.2650340000000  0.4603270000000 1.0
C      1  0.2681290000000  0.4517600000000  0.4605480000000 1.0
C      1  0.3848310000000  0.7041970000000  0.4608600000000 1.0
C      1  0.6576920000000  0.6739680000000  0.4596930000000 1.0
C      1  0.7139140000000  0.4045320000000  0.4598710000000 1.0
END
