TITL C-1525613-7943-2458 0.0439398806276678 3375 -8612.33421832471 0 0 60 (C1) n - 1
REM
REM in /home/nfs/bkarasulu/CARBON/AIRSS/Generating-Clusters/ReaxFF-fromJPCA2015/Units_Real/Try2-Higher-symm/Only-C60
REM
REM
REM
REM
REM
REM ./C.cell (863b2abdce7293c0672fb3ba77bf323a)
REM AIRSS Version 0.9.1 bugfix July 2018 build 013d7b7c2542+ Fri, 06 Jul 2018 19:26:36 +0100
REM compiler GCC version 9.2.1 20190827 (Red Hat 9.2.1-1)
REM options -cpp -mtune=generic -march=x86-64 -g -O0 -fpre-include=/usr/include/finclude/math-vector-fortran.h
REM seed -253626677 -510621297 2142559517 -995244007 -2019936466 84237327 -1724839789 -759726709 -916738254 -1087394113 -2074753605 -1654889335 -2038105371 -516980383 1577082238 -944022732 1639134117 532996542 853422838 618263716 -2053864695 -577668910 1589432337 561394228 -1546276880 1645412830 -20101101 -1389373993 -1261505819 68877010 844894077 -1717854887 1209854
REM
CELL 1.54180   15.00000   15.00000   15.00000   90.00000   90.00000   90.00000
LATT -1
SFAC C  
C      1  0.6520920000000  0.5972150000000  0.3340810000000 1.0
C      1  0.7058000000000  0.5950210000000  0.5901520000000 1.0
C      1  0.4753460000000  0.5957420000000  0.7211270000000 1.0
C      1  0.2752570000000  0.5972540000000  0.5404650000000 1.0
C      1  0.3890940000000  0.5946890000000  0.3095620000000 1.0
C      1  0.6513320000000  0.4034080000000  0.3346350000000 1.0
C      1  0.7062140000000  0.4044960000000  0.5904040000000 1.0
C      1  0.4752430000000  0.4049210000000  0.7207770000000 1.0
C      1  0.2757820000000  0.4060850000000  0.5396370000000 1.0
C      1  0.3889760000000  0.4062650000000  0.3104910000000 1.0
C      1  0.7352910000000  0.5481660000000  0.4617600000000 1.0
C      1  0.6155600000000  0.5475490000000  0.7066600000000 1.0
C      1  0.3358330000000  0.5479810000000  0.6688210000000 1.0
C      1  0.2850680000000  0.5516540000000  0.4075150000000 1.0
C      1  0.5292160000000  0.5480400000000  0.2645890000000 1.0
C      1  0.7351620000000  0.4520020000000  0.4620490000000 1.0
C      1  0.6150880000000  0.4522960000000  0.7066350000000 1.0
C      1  0.3357640000000  0.4525730000000  0.6675410000000 1.0
C      1  0.2850530000000  0.4544870000000  0.4081970000000 1.0
C      1  0.5292460000000  0.4525680000000  0.2651340000000 1.0
C      1  0.2518380000000  0.5545640000000  0.6194570000000 1.0
C      1  0.3067040000000  0.5549010000000  0.3108700000000 1.0
C      1  0.6266370000000  0.5546050000000  0.2566770000000 1.0
C      1  0.7775670000000  0.5544800000000  0.5496940000000 1.0
C      1  0.5414290000000  0.5544780000000  0.7702370000000 1.0
C      1  0.2506450000000  0.4474590000000  0.6187380000000 1.0
C      1  0.3067500000000  0.4482630000000  0.3127380000000 1.0
C      1  0.6267290000000  0.4461040000000  0.2570250000000 1.0
C      1  0.7775240000000  0.4457110000000  0.5498060000000 1.0
C      1  0.5409770000000  0.4462290000000  0.7704530000000 1.0
C      1  0.4758810000000  0.6179790000000  0.3287290000000 1.0
C      1  0.6579080000000  0.6211930000000  0.4236890000000 1.0
C      1  0.6206940000000  0.6175430000000  0.6218260000000 1.0
C      1  0.4174980000000  0.6189540000000  0.6525070000000 1.0
C      1  0.3155710000000  0.6312490000000  0.4663480000000 1.0
C      1  0.4761780000000  0.3826430000000  0.3296810000000 1.0
C      1  0.6580950000000  0.3782190000000  0.4240150000000 1.0
C      1  0.6214610000000  0.3812290000000  0.6222840000000 1.0
C      1  0.4183210000000  0.3818070000000  0.6509350000000 1.0
C      1  0.3244890000000  0.3758900000000  0.4670940000000 1.0
C      1  0.5506010000000  0.6839530000000  0.5542150000000 1.0
C      1  0.4565830000000  0.6843320000000  0.5657440000000 1.0
C      1  0.4101640000000  0.6872770000000  0.4824590000000 1.0
C      1  0.4890270000000  0.6863880000000  0.4275480000000 1.0
C      1  0.5757340000000  0.6865100000000  0.4641190000000 1.0
C      1  0.5533220000000  0.3132830000000  0.5549710000000 1.0
C      1  0.4588780000000  0.3129910000000  0.5659880000000 1.0
C      1  0.4145490000000  0.3107200000000  0.4835480000000 1.0
C      1  0.4912220000000  0.3115410000000  0.4288780000000 1.0
C      1  0.5784230000000  0.3109200000000  0.4649050000000 1.0
C      1  0.4913220000000  0.5499680000000  0.4143080000000 1.0
C      1  0.5810560000000  0.5492990000000  0.4621300000000 1.0
C      1  0.5625850000000  0.5489280000000  0.5607100000000 1.0
C      1  0.4627220000000  0.5487430000000  0.5753410000000 1.0
C      1  0.4165640000000  0.5481810000000  0.4843180000000 1.0
C      1  0.4919840000000  0.4468330000000  0.4152200000000 1.0
C      1  0.5807460000000  0.4487970000000  0.4625220000000 1.0
C      1  0.5623440000000  0.4489830000000  0.5609920000000 1.0
C      1  0.4637110000000  0.4485220000000  0.5745240000000 1.0
C      1  0.4191470000000  0.4479190000000  0.4845220000000 1.0
END
