TITL C-1525613-7943-1050 1.00511745116145e-05 3375 -7805.55544181989 0 0 60 (C1) n - 1
REM
REM in /home/nfs/bkarasulu/CARBON/AIRSS/Generating-Clusters/ReaxFF-fromJPCA2015/Units_Real/Try2-Higher-symm/Only-C60
REM
REM
REM
REM
REM
REM ./C.cell (863b2abdce7293c0672fb3ba77bf323a)
REM AIRSS Version 0.9.1 bugfix July 2018 build 013d7b7c2542+ Fri, 06 Jul 2018 19:26:36 +0100
REM compiler GCC version 9.2.1 20190827 (Red Hat 9.2.1-1)
REM options -cpp -mtune=generic -march=x86-64 -g -O0 -fpre-include=/usr/include/finclude/math-vector-fortran.h
REM seed 81854780 -1064407258 -918372050 -1948269774 410884916 870915588 -1330949266 617436008 -1278918743 -424144096 -1566367728 1076753675 557188287 -97423939 1449627997 1769572982 -362341249 -905500917 1620834980 1850304228 1453675797 143450008 40220984 540961454 1949748720 1856664376 769064498 -834253852 1744249914 1704014132 404769787 -946072982 1702703424
REM
CELL 1.54180   15.00000   15.00000   15.00000   90.00000   90.00000   90.00000
LATT -1
SFAC C  
C      1  0.4176390000000  0.5283320000000  0.3763390000000 1.0
C      1  0.4500730000000  0.5702740000000  0.6237600000000 1.0
C      1  0.5012550000000  0.5864600000000  0.3757270000000 1.0
C      1  0.5519360000000  0.5691860000000  0.6221760000000 1.0
C      1  0.5820170000000  0.5255310000000  0.3755780000000 1.0
C      1  0.5825950000000  0.4724740000000  0.6238980000000 1.0
C      1  0.5502630000000  0.4295340000000  0.3756840000000 1.0
C      1  0.4993370000000  0.4135950000000  0.6232960000000 1.0
C      1  0.4482880000000  0.4299510000000  0.3765760000000 1.0
C      1  0.4174230000000  0.4747980000000  0.6237150000000 1.0
C      1  0.7254670000000  0.4243390000000  0.5632530000000 1.0
C      1  0.6373520000000  0.3063730000000  0.4368670000000 1.0
C      1  0.4975030000000  0.2632250000000  0.5657730000000 1.0
C      1  0.3586710000000  0.3096640000000  0.4343430000000 1.0
C      1  0.2736690000000  0.4297530000000  0.5623240000000 1.0
C      1  0.2752800000000  0.5765570000000  0.4334790000000 1.0
C      1  0.3632830000000  0.6938340000000  0.5631200000000 1.0
C      1  0.5044120000000  0.7368710000000  0.4378740000000 1.0
C      1  0.6416100000000  0.6894090000000  0.5674060000000 1.0
C      1  0.7255890000000  0.5716050000000  0.4374480000000 1.0
C      1  0.5854450000000  0.6141090000000  0.5288160000000 1.0
C      1  0.6376190000000  0.5430000000000  0.4726870000000 1.0
C      1  0.6377950000000  0.4535270000000  0.5276570000000 1.0
C      1  0.5843000000000  0.3820040000000  0.4723040000000 1.0
C      1  0.4990040000000  0.3561450000000  0.5280430000000 1.0
C      1  0.4140020000000  0.3845930000000  0.4717600000000 1.0
C      1  0.3618820000000  0.4573260000000  0.5271050000000 1.0
C      1  0.3633360000000  0.5466860000000  0.4713490000000 1.0
C      1  0.4164840000000  0.6183990000000  0.5274820000000 1.0
C      1  0.5021490000000  0.6442540000000  0.4728540000000 1.0
C      1  0.4612520000000  0.7367090000000  0.3531400000000 1.0
C      1  0.6095620000000  0.7204060000000  0.6515270000000 1.0
C      1  0.7114290000000  0.6116910000000  0.3523720000000 1.0
C      1  0.7374830000000  0.4658540000000  0.6479560000000 1.0
C      1  0.6713510000000  0.3322890000000  0.3518780000000 1.0
C      1  0.5454890000000  0.2584910000000  0.6507810000000 1.0
C      1  0.3949450000000  0.2773470000000  0.3495860000000 1.0
C      1  0.2878020000000  0.3893090000000  0.6472920000000 1.0
C      1  0.2560410000000  0.5319930000000  0.3487060000000 1.0
C      1  0.3294420000000  0.6678590000000  0.6481470000000 1.0
C      1  0.6800250000000  0.6679390000000  0.6518300000000 1.0
C      1  0.7375740000000  0.5301610000000  0.3526790000000 1.0
C      1  0.7103240000000  0.3846890000000  0.6483490000000 1.0
C      1  0.6014080000000  0.2829620000000  0.3519570000000 1.0
C      1  0.4489180000000  0.2598460000000  0.6504990000000 1.0
C      1  0.3174210000000  0.3349260000000  0.3494500000000 1.0
C      1  0.2622150000000  0.4709610000000  0.6473240000000 1.0
C      1  0.2870320000000  0.6234640000000  0.3486060000000 1.0
C      1  0.3994830000000  0.7170570000000  0.6479880000000 1.0
C      1  0.5468400000000  0.7349530000000  0.3528060000000 1.0
C      1  0.5933050000000  0.3686360000000  0.3110580000000 1.0
C      1  0.4981690000000  0.3353050000000  0.6873150000000 1.0
C      1  0.4015780000000  0.3671940000000  0.3126390000000 1.0
C      1  0.3462370000000  0.4524300000000  0.6882770000000 1.0
C      1  0.3437160000000  0.5532250000000  0.3120980000000 1.0
C      1  0.4075140000000  0.6313340000000  0.6886930000000 1.0
C      1  0.5023440000000  0.6614510000000  0.3115990000000 1.0
C      1  0.5987230000000  0.6325020000000  0.6864850000000 1.0
C      1  0.6536410000000  0.5480370000000  0.3113780000000 1.0
C      1  0.6530590000000  0.4491720000000  0.6888910000000 1.0
END
