TITL C-1525613-7943-6756 0.125315707168833 3375 -8541.95462552412 0 0 60 (C1) n - 1
REM
REM in /home/nfs/bkarasulu/CARBON/AIRSS/Generating-Clusters/ReaxFF-fromJPCA2015/Units_Real/Try2-Higher-symm/Only-C60
REM
REM
REM
REM
REM
REM ./C.cell (863b2abdce7293c0672fb3ba77bf323a)
REM AIRSS Version 0.9.1 bugfix July 2018 build 013d7b7c2542+ Fri, 06 Jul 2018 19:26:36 +0100
REM compiler GCC version 9.2.1 20190827 (Red Hat 9.2.1-1)
REM options -cpp -mtune=generic -march=x86-64 -g -O0 -fpre-include=/usr/include/finclude/math-vector-fortran.h
REM seed 2072612796 223230011 26657267 149537177 789595586 -1528674572 -1374433691 -523016417 911513315 798474230 -17854163 867170310 952162891 2026510961 653635059 2039104723 -51799485 -7984199 127185531 -1548905403 1444322786 -1189809408 1309880256 70748956 843723503 32123746 -1430828143 -83189319 -2069006718 561871468 1712739393 326322288 1159900843
REM
CELL 1.54180   15.00000   15.00000   15.00000   90.00000   90.00000   90.00000
LATT -1
SFAC C  
C      1  0.2894510000000  0.3499940000000  0.3270760000000 1.0
C      1  0.2985890000000  0.4861610000000  0.3236860000000 1.0
C      1  0.3049090000000  0.6254120000000  0.3238670000000 1.0
C      1  0.4302370000000  0.6862570000000  0.3185830000000 1.0
C      1  0.5521470000000  0.7483080000000  0.3241230000000 1.0
C      1  0.7105390000000  0.6502120000000  0.3276020000000 1.0
C      1  0.7010350000000  0.5141140000000  0.3246960000000 1.0
C      1  0.6944040000000  0.3749010000000  0.3246030000000 1.0
C      1  0.5691740000000  0.3138450000000  0.3199260000000 1.0
C      1  0.4475220000000  0.2513100000000  0.3243490000000 1.0
C      1  0.7286110000000  0.5595750000000  0.6402360000000 1.0
C      1  0.7093210000000  0.4295680000000  0.6117650000000 1.0
C      1  0.6282370000000  0.3108210000000  0.6217490000000 1.0
C      1  0.4896390000000  0.2812200000000  0.6050520000000 1.0
C      1  0.3578420000000  0.3195620000000  0.6250740000000 1.0
C      1  0.2820950000000  0.4328600000000  0.6258840000000 1.0
C      1  0.2936290000000  0.5730580000000  0.6066720000000 1.0
C      1  0.3605400000000  0.6917690000000  0.6384520000000 1.0
C      1  0.5083090000000  0.7311550000000  0.6062880000000 1.0
C      1  0.6451840000000  0.6823480000000  0.6093320000000 1.0
C      1  0.3521240000000  0.2750580000000  0.3215670000000 1.0
C      1  0.2507870000000  0.4219860000000  0.3300890000000 1.0
C      1  0.2557820000000  0.5542700000000  0.3260430000000 1.0
C      1  0.3508620000000  0.6987580000000  0.3224550000000 1.0
C      1  0.4707130000000  0.7551900000000  0.3255190000000 1.0
C      1  0.6477090000000  0.7249390000000  0.3215300000000 1.0
C      1  0.7490810000000  0.5781440000000  0.3309580000000 1.0
C      1  0.7436580000000  0.4458900000000  0.3268320000000 1.0
C      1  0.6486140000000  0.3014620000000  0.3231250000000 1.0
C      1  0.5289730000000  0.2446500000000  0.3258580000000 1.0
C      1  0.4402390000000  0.3513890000000  0.4791190000000 1.0
C      1  0.4018660000000  0.4343760000000  0.4749720000000 1.0
C      1  0.3461150000000  0.5036420000000  0.4853230000000 1.0
C      1  0.3804660000000  0.6003890000000  0.4868560000000 1.0
C      1  0.4693520000000  0.6138000000000  0.4744230000000 1.0
C      1  0.5572170000000  0.6485840000000  0.4731300000000 1.0
C      1  0.5942010000000  0.5613990000000  0.4766770000000 1.0
C      1  0.6510830000000  0.4933300000000  0.4927920000000 1.0
C      1  0.6214060000000  0.3919790000000  0.4928230000000 1.0
C      1  0.5305980000000  0.3822280000000  0.4786720000000 1.0
C      1  0.3558290000000  0.5512550000000  0.6790630000000 1.0
C      1  0.4135010000000  0.6276040000000  0.6962130000000 1.0
C      1  0.5048100000000  0.6521450000000  0.6771150000000 1.0
C      1  0.5940080000000  0.6207680000000  0.6798600000000 1.0
C      1  0.6458170000000  0.5425420000000  0.6980790000000 1.0
C      1  0.6443640000000  0.4479220000000  0.6801660000000 1.0
C      1  0.5893300000000  0.3674570000000  0.6868450000000 1.0
C      1  0.4954160000000  0.3453520000000  0.6787200000000 1.0
C      1  0.4061020000000  0.3765130000000  0.6893690000000 1.0
C      1  0.3517690000000  0.4555140000000  0.6901330000000 1.0
C      1  0.7276560000000  0.5035360000000  0.5581500000000 1.0
C      1  0.6857740000000  0.3519150000000  0.5652950000000 1.0
C      1  0.5721310000000  0.2852730000000  0.5613820000000 1.0
C      1  0.4064290000000  0.2876060000000  0.5557180000000 1.0
C      1  0.3000170000000  0.3631050000000  0.5819730000000 1.0
C      1  0.2733640000000  0.4926930000000  0.5567050000000 1.0
C      1  0.3225510000000  0.6504030000000  0.5560630000000 1.0
C      1  0.4184560000000  0.7361950000000  0.5833960000000 1.0
C      1  0.5816810000000  0.7165630000000  0.5448250000000 1.0
C      1  0.7187340000000  0.6317280000000  0.5831500000000 1.0
END
