TITL C-1525613-7943-72 -0.10006094756598 3375 -9313.75343878361 0 0 60 (C2) n - 1
REM
REM in /home/nfs/bkarasulu/CARBON/AIRSS/Generating-Clusters/ReaxFF-fromJPCA2015/Units_Real/Try2-Higher-symm/Only-C60
REM
REM
REM
REM
REM
REM ./C.cell (863b2abdce7293c0672fb3ba77bf323a)
REM AIRSS Version 0.9.1 bugfix July 2018 build 013d7b7c2542+ Fri, 06 Jul 2018 19:26:36 +0100
REM compiler GCC version 9.2.1 20190827 (Red Hat 9.2.1-1)
REM options -cpp -mtune=generic -march=x86-64 -g -O0 -fpre-include=/usr/include/finclude/math-vector-fortran.h
REM seed -1813868257 -650054874 -412342410 -1982285654 -2033707329 -2040206944 952615690 -919373542 -1942338870 -1568589256 -531308579 -1837349652 216155173 -589339209 -710196188 1686127531 375814538 -203284105 -1973509732 -1646754061 -30142418 1789970554 -165512727 1681124566 -1633653016 91454294 -101759771 1037745642 869877605 112233879 -1981467740 -79021222 1625286246
REM
CELL 1.54180   15.00000   15.00000   15.00000   90.00000   90.00000   90.00000
LATT -1
SFAC C  
C      1  0.3169430000000  0.4272970000000  0.3584300000000 1.0
C      1  0.3172060000000  0.5239710000000  0.3421310000000 1.0
C      1  0.3151950000000  0.6107300000000  0.3889970000000 1.0
C      1  0.3112730000000  0.6648360000000  0.4726890000000 1.0
C      1  0.3176970000000  0.6403470000000  0.5695910000000 1.0
C      1  0.3169240000000  0.5727420000000  0.6415390000000 1.0
C      1  0.3172210000000  0.4760440000000  0.6578960000000 1.0
C      1  0.3151530000000  0.3892720000000  0.6110280000000 1.0
C      1  0.3113460000000  0.3350890000000  0.5273010000000 1.0
C      1  0.3176750000000  0.3596550000000  0.4303800000000 1.0
C      1  0.3867810000000  0.6241870000000  0.6900240000000 1.0
C      1  0.3871210000000  0.4410040000000  0.7191510000000 1.0
C      1  0.3899390000000  0.3555060000000  0.6674230000000 1.0
C      1  0.3632770000000  0.2547770000000  0.5497810000000 1.0
C      1  0.3907270000000  0.3103950000000  0.3852510000000 1.0
C      1  0.3868030000000  0.3758140000000  0.3099690000000 1.0
C      1  0.3871020000000  0.5589840000000  0.2808670000000 1.0
C      1  0.3899830000000  0.6444860000000  0.3325490000000 1.0
C      1  0.3632450000000  0.7451400000000  0.4503230000000 1.0
C      1  0.3906900000000  0.6896020000000  0.6147500000000 1.0
C      1  0.5550530000000  0.7316880000000  0.6059190000000 1.0
C      1  0.5567990000000  0.6154500000000  0.7335730000000 1.0
C      1  0.5567350000000  0.4631960000000  0.7578940000000 1.0
C      1  0.5518580000000  0.3135570000000  0.6718510000000 1.0
C      1  0.5705020000000  0.2317310000000  0.5435420000000 1.0
C      1  0.5550200000000  0.2683160000000  0.3940650000000 1.0
C      1  0.5568060000000  0.3845460000000  0.2664400000000 1.0
C      1  0.5567100000000  0.5367770000000  0.2420920000000 1.0
C      1  0.5518940000000  0.6864640000000  0.3281380000000 1.0
C      1  0.5704250000000  0.7682900000000  0.4564500000000 1.0
C      1  0.4667120000000  0.2559320000000  0.5345090000000 1.0
C      1  0.4686980000000  0.2810830000000  0.4343090000000 1.0
C      1  0.4624510000000  0.4129140000000  0.2610400000000 1.0
C      1  0.4623790000000  0.5082590000000  0.2455640000000 1.0
C      1  0.4662790000000  0.6886670000000  0.3719300000000 1.0
C      1  0.4668100000000  0.7441590000000  0.4655390000000 1.0
C      1  0.4687000000000  0.7189960000000  0.5656010000000 1.0
C      1  0.4624580000000  0.5870900000000  0.7389720000000 1.0
C      1  0.4623840000000  0.4917380000000  0.7544490000000 1.0
C      1  0.4662850000000  0.3113420000000  0.6280590000000 1.0
C      1  0.6598000000000  0.4294680000000  0.6364450000000 1.0
C      1  0.6734560000000  0.3577270000000  0.5719970000000 1.0
C      1  0.6736160000000  0.3424660000000  0.4766670000000 1.0
C      1  0.6604540000000  0.3903800000000  0.3927560000000 1.0
C      1  0.6697050000000  0.4751770000000  0.3454910000000 1.0
C      1  0.6598040000000  0.5705090000000  0.3635470000000 1.0
C      1  0.6734610000000  0.6422820000000  0.4279890000000 1.0
C      1  0.6736210000000  0.6575460000000  0.5233420000000 1.0
C      1  0.6604610000000  0.6096090000000  0.6072540000000 1.0
C      1  0.6697070000000  0.5248040000000  0.6545120000000 1.0
C      1  0.5966470000000  0.3949930000000  0.7029000000000 1.0
C      1  0.6195530000000  0.2818380000000  0.6076930000000 1.0
C      1  0.6203520000000  0.2587930000000  0.4670460000000 1.0
C      1  0.5982770000000  0.3367030000000  0.3392690000000 1.0
C      1  0.6144800000000  0.4623690000000  0.2652110000000 1.0
C      1  0.5966690000000  0.6049950000000  0.2970840000000 1.0
C      1  0.6195690000000  0.7181510000000  0.3923200000000 1.0
C      1  0.6203500000000  0.7411930000000  0.5329450000000 1.0
C      1  0.5982800000000  0.6633090000000  0.6607340000000 1.0
C      1  0.6144810000000  0.5376210000000  0.7347910000000 1.0
END
