TITL C-1525613-7943-7039 0.00780965924209113 3375 -8820.25874148905 0 0 60 (C2) n - 1
REM
REM in /home/nfs/bkarasulu/CARBON/AIRSS/Generating-Clusters/ReaxFF-fromJPCA2015/Units_Real/Try2-Higher-symm/Only-C60
REM
REM
REM
REM
REM
REM ./C.cell (863b2abdce7293c0672fb3ba77bf323a)
REM AIRSS Version 0.9.1 bugfix July 2018 build 013d7b7c2542+ Fri, 06 Jul 2018 19:26:36 +0100
REM compiler GCC version 9.2.1 20190827 (Red Hat 9.2.1-1)
REM options -cpp -mtune=generic -march=x86-64 -g -O0 -fpre-include=/usr/include/finclude/math-vector-fortran.h
REM seed 429934250 578979943 855202956 1388815075 1471930990 416628480 671220177 -344379667 298752063 1125166058 561789545 -389423566 -47796292 649639134 -417006255 1254643681 -650307247 -263778733 1215300749 -725268768 222336004 787899559 -1810485036 -1281003001 191754663 -1124852535 -1601011425 -538655873 612662034 2042613838 -1974899162 -1350390430 -1922506571
REM
CELL 1.54180   15.00000   15.00000   15.00000   90.00000   90.00000   90.00000
LATT -1
SFAC C  
C      1  0.6756390000000  0.3565720000000  0.6710930000000 1.0
C      1  0.5649330000000  0.2847790000000  0.6719080000000 1.0
C      1  0.4352850000000  0.3039740000000  0.6779800000000 1.0
C      1  0.3392090000000  0.3944120000000  0.6758800000000 1.0
C      1  0.2905550000000  0.5167930000000  0.6760340000000 1.0
C      1  0.3243610000000  0.6434260000000  0.6710930000000 1.0
C      1  0.4350660000000  0.7152210000000  0.6719110000000 1.0
C      1  0.5647130000000  0.6960250000000  0.6779800000000 1.0
C      1  0.6607900000000  0.6055880000000  0.6758780000000 1.0
C      1  0.7094460000000  0.4832100000000  0.6760350000000 1.0
C      1  0.6062740000000  0.3407370000000  0.5313630000000 1.0
C      1  0.4939970000000  0.3114990000000  0.5310690000000 1.0
C      1  0.4036260000000  0.3555580000000  0.5334670000000 1.0
C      1  0.3277530000000  0.4678830000000  0.5314040000000 1.0
C      1  0.3221580000000  0.5683140000000  0.5303860000000 1.0
C      1  0.3937250000000  0.6592640000000  0.5313680000000 1.0
C      1  0.5060090000000  0.6884910000000  0.5310730000000 1.0
C      1  0.5963690000000  0.6444410000000  0.5334660000000 1.0
C      1  0.6722450000000  0.5321170000000  0.5314020000000 1.0
C      1  0.6778490000000  0.4316850000000  0.5303890000000 1.0
C      1  0.6368900000000  0.2929310000000  0.4524040000000 1.0
C      1  0.4911820000000  0.2559170000000  0.4469760000000 1.0
C      1  0.3568310000000  0.3143260000000  0.4590460000000 1.0
C      1  0.2745560000000  0.4407420000000  0.4546790000000 1.0
C      1  0.2702590000000  0.5890140000000  0.4461230000000 1.0
C      1  0.3631100000000  0.7070630000000  0.4523990000000 1.0
C      1  0.5088200000000  0.7440910000000  0.4469760000000 1.0
C      1  0.6431670000000  0.6856740000000  0.4590400000000 1.0
C      1  0.7254450000000  0.5592540000000  0.4546830000000 1.0
C      1  0.7297360000000  0.4109860000000  0.4461240000000 1.0
C      1  0.5053210000000  0.7293050000000  0.6277170000000 1.0
C      1  0.6282710000000  0.6672200000000  0.6265420000000 1.0
C      1  0.7053140000000  0.5530400000000  0.6244500000000 1.0
C      1  0.7164340000000  0.4151540000000  0.6262530000000 1.0
C      1  0.6325470000000  0.3012130000000  0.6198160000000 1.0
C      1  0.4946800000000  0.2707000000000  0.6277140000000 1.0
C      1  0.3717320000000  0.3327790000000  0.6265400000000 1.0
C      1  0.2946850000000  0.4469600000000  0.6244500000000 1.0
C      1  0.2835630000000  0.5848470000000  0.6262560000000 1.0
C      1  0.3674520000000  0.6987870000000  0.6198180000000 1.0
C      1  0.3110940000000  0.3720950000000  0.3959420000000 1.0
C      1  0.2672640000000  0.5121860000000  0.3893330000000 1.0
C      1  0.3161010000000  0.6511340000000  0.3880410000000 1.0
C      1  0.4337570000000  0.7278270000000  0.3886880000000 1.0
C      1  0.5823030000000  0.7185140000000  0.3901250000000 1.0
C      1  0.6889110000000  0.6279060000000  0.3959410000000 1.0
C      1  0.7327360000000  0.4878130000000  0.3893320000000 1.0
C      1  0.6838890000000  0.3488670000000  0.3880440000000 1.0
C      1  0.5662450000000  0.2721790000000  0.3886870000000 1.0
C      1  0.4176960000000  0.2814930000000  0.3901240000000 1.0
C      1  0.5430340000000  0.3480050000000  0.3261510000000 1.0
C      1  0.4463970000000  0.3539380000000  0.3262330000000 1.0
C      1  0.3723090000000  0.4155760000000  0.3296890000000 1.0
C      1  0.3432210000000  0.5082620000000  0.3251610000000 1.0
C      1  0.3764580000000  0.5993910000000  0.3260450000000 1.0
C      1  0.4569700000000  0.6519880000000  0.3261470000000 1.0
C      1  0.5536000000000  0.6460570000000  0.3262310000000 1.0
C      1  0.6276880000000  0.5844250000000  0.3296890000000 1.0
C      1  0.6567820000000  0.4917420000000  0.3251620000000 1.0
C      1  0.6235450000000  0.4006090000000  0.3260490000000 1.0
END
