TITL C-1525613-7943-5829 0.220207756016043 3375 -8207.76377312712 0 0 60 (C1) n - 1
REM
REM in /home/nfs/bkarasulu/CARBON/AIRSS/Generating-Clusters/ReaxFF-fromJPCA2015/Units_Real/Try2-Higher-symm/Only-C60
REM
REM
REM
REM
REM
REM ./C.cell (863b2abdce7293c0672fb3ba77bf323a)
REM AIRSS Version 0.9.1 bugfix July 2018 build 013d7b7c2542+ Fri, 06 Jul 2018 19:26:36 +0100
REM compiler GCC version 9.2.1 20190827 (Red Hat 9.2.1-1)
REM options -cpp -mtune=generic -march=x86-64 -g -O0 -fpre-include=/usr/include/finclude/math-vector-fortran.h
REM seed 1761903885 -853019530 -321575158 1783250758 -1557454242 1183767262 2033486756 -1375255572 -620276328 827280722 1757390534 -1056450786 -608359036 -374448381 -235375429 541255364 424903981 -1283536714 -899550418 -1828464709 804343767 -368679306 -1175601557 323713078 1933921025 1709130642 1524019771 735171661 2084615886 1503297709 -1152321990 1832845864 1671290549
REM
CELL 1.54180   15.00000   15.00000   15.00000   90.00000   90.00000   90.00000
LATT -1
SFAC C  
C      1  0.7041580000000  0.5810280000000  0.3016740000000 1.0
C      1  0.3745340000000  0.5812550000000  0.2416580000000 1.0
C      1  0.2182520000000  0.5809140000000  0.5404720000000 1.0
C      1  0.4498210000000  0.5817010000000  0.7821830000000 1.0
C      1  0.7516010000000  0.5814430000000  0.6336900000000 1.0
C      1  0.2959760000000  0.5809680000000  0.3018150000000 1.0
C      1  0.6254330000000  0.5813490000000  0.2414830000000 1.0
C      1  0.7820050000000  0.5810590000000  0.5400850000000 1.0
C      1  0.5489850000000  0.5821730000000  0.7803200000000 1.0
C      1  0.2470530000000  0.5808980000000  0.6350650000000 1.0
C      1  0.6292140000000  0.2830420000000  0.4067350000000 1.0
C      1  0.4512030000000  0.2831590000000  0.3483470000000 1.0
C      1  0.3405080000000  0.2832340000000  0.4995240000000 1.0
C      1  0.4502700000000  0.2826500000000  0.6512380000000 1.0
C      1  0.6286640000000  0.2829850000000  0.5939820000000 1.0
C      1  0.3707270000000  0.2831930000000  0.4067350000000 1.0
C      1  0.5487400000000  0.2830800000000  0.3483530000000 1.0
C      1  0.6594360000000  0.2830820000000  0.4995030000000 1.0
C      1  0.5496780000000  0.2826360000000  0.6512400000000 1.0
C      1  0.3712700000000  0.2830940000000  0.5939610000000 1.0
C      1  0.6581670000000  0.6150040000000  0.6037610000000 1.0
C      1  0.6474850000000  0.6146420000000  0.3832760000000 1.0
C      1  0.4306080000000  0.6149590000000  0.3217510000000 1.0
C      1  0.3116330000000  0.6153120000000  0.5072200000000 1.0
C      1  0.4517300000000  0.6154940000000  0.6847060000000 1.0
C      1  0.3397050000000  0.6141890000000  0.6027130000000 1.0
C      1  0.3524240000000  0.6148450000000  0.3834670000000 1.0
C      1  0.5691050000000  0.6150590000000  0.3211820000000 1.0
C      1  0.6890200000000  0.6152290000000  0.5098360000000 1.0
C      1  0.5513750000000  0.6162680000000  0.6816140000000 1.0
C      1  0.6589590000000  0.4484370000000  0.4995360000000 1.0
C      1  0.5486480000000  0.4484900000000  0.3487010000000 1.0
C      1  0.3711180000000  0.4485110000000  0.4070420000000 1.0
C      1  0.3717930000000  0.4484990000000  0.5938810000000 1.0
C      1  0.5496400000000  0.4481940000000  0.6511320000000 1.0
C      1  0.3410840000000  0.4485000000000  0.4995640000000 1.0
C      1  0.4514270000000  0.4484970000000  0.3487060000000 1.0
C      1  0.6289550000000  0.4484220000000  0.4070240000000 1.0
C      1  0.6282740000000  0.4484110000000  0.5939060000000 1.0
C      1  0.4504270000000  0.4482320000000  0.6511230000000 1.0
C      1  0.6244330000000  0.7065280000000  0.4102860000000 1.0
C      1  0.4527800000000  0.7063180000000  0.3528490000000 1.0
C      1  0.3461600000000  0.7062780000000  0.4998790000000 1.0
C      1  0.4518510000000  0.7070470000000  0.6467060000000 1.0
C      1  0.6247010000000  0.7056900000000  0.5912780000000 1.0
C      1  0.3756100000000  0.7058640000000  0.4099910000000 1.0
C      1  0.5472660000000  0.7065700000000  0.3527850000000 1.0
C      1  0.6544420000000  0.7061760000000  0.5001300000000 1.0
C      1  0.5479870000000  0.7072940000000  0.6465060000000 1.0
C      1  0.3756450000000  0.7058310000000  0.5915280000000 1.0
C      1  0.4175800000000  0.3659600000000  0.3029110000000 1.0
C      1  0.2869720000000  0.3660530000000  0.5175700000000 1.0
C      1  0.4508780000000  0.3654420000000  0.7078110000000 1.0
C      1  0.6825760000000  0.3658370000000  0.6110190000000 1.0
C      1  0.6619720000000  0.3658530000000  0.3606300000000 1.0
C      1  0.5824520000000  0.3658700000000  0.3029330000000 1.0
C      1  0.7129900000000  0.3659000000000  0.5175580000000 1.0
C      1  0.5491460000000  0.3654030000000  0.7077940000000 1.0
C      1  0.3174260000000  0.3659590000000  0.6110750000000 1.0
C      1  0.3380270000000  0.3659870000000  0.3605530000000 1.0
END
