TITL C-1525613-7943-4211 -0.0489365816989521 3375 -8958.71642057385 0 0 60 (Ci) n - 1
REM
REM in /home/nfs/bkarasulu/CARBON/AIRSS/Generating-Clusters/ReaxFF-fromJPCA2015/Units_Real/Try2-Higher-symm/Only-C60
REM
REM
REM
REM
REM
REM ./C.cell (863b2abdce7293c0672fb3ba77bf323a)
REM AIRSS Version 0.9.1 bugfix July 2018 build 013d7b7c2542+ Fri, 06 Jul 2018 19:26:36 +0100
REM compiler GCC version 9.2.1 20190827 (Red Hat 9.2.1-1)
REM options -cpp -mtune=generic -march=x86-64 -g -O0 -fpre-include=/usr/include/finclude/math-vector-fortran.h
REM seed 411614461 685593058 1828379909 -971406305 1660824578 -1463343165 270264173 -1657697584 1545882218 597597842 2089211932 584961662 264934065 -85450947 1426132806 -396715504 -1724832718 2054846871 -442664568 1395083711 1961256773 1315760545 -362725579 154564581 -935680105 -1356193285 -1241711537 371680167 2002312746 -1745799786 627967350 -1453991349 1476779019
REM
CELL 1.54180   15.00000   15.00000   15.00000   90.00000   90.00000   90.00000
LATT -1
SFAC C  
C      1  0.4461030000000  0.2676230000000  0.5062040000000 1.0
C      1  0.5526060000000  0.3004720000000  0.3662730000000 1.0
C      1  0.4459770000000  0.4256370000000  0.2943610000000 1.0
C      1  0.5526960000000  0.5712910000000  0.2760130000000 1.0
C      1  0.4563780000000  0.6967850000000  0.3505520000000 1.0
C      1  0.5539870000000  0.7323720000000  0.4939340000000 1.0
C      1  0.4473300000000  0.6996220000000  0.6337180000000 1.0
C      1  0.5539920000000  0.5743360000000  0.7055660000000 1.0
C      1  0.4473090000000  0.4286120000000  0.7239100000000 1.0
C      1  0.5436320000000  0.3031500000000  0.6494520000000 1.0
C      1  0.3329570000000  0.4990310000000  0.4268020000000 1.0
C      1  0.6791480000000  0.5631870000000  0.4032560000000 1.0
C      1  0.3612260000000  0.5888720000000  0.4620520000000 1.0
C      1  0.6753730000000  0.5898880000000  0.4992060000000 1.0
C      1  0.3154530000000  0.6115680000000  0.5444810000000 1.0
C      1  0.6669560000000  0.5010190000000  0.5731230000000 1.0
C      1  0.3209880000000  0.4366810000000  0.5967210000000 1.0
C      1  0.6386050000000  0.4111790000000  0.5378970000000 1.0
C      1  0.3246740000000  0.4101730000000  0.5007470000000 1.0
C      1  0.6844170000000  0.3885550000000  0.4554740000000 1.0
C      1  0.6267000000000  0.5173790000000  0.6697410000000 1.0
C      1  0.3638580000000  0.3959080000000  0.6794340000000 1.0
C      1  0.6201590000000  0.3245450000000  0.5905640000000 1.0
C      1  0.3699640000000  0.3201440000000  0.4712690000000 1.0
C      1  0.6333510000000  0.3573580000000  0.3700450000000 1.0
C      1  0.3732940000000  0.4826520000000  0.3302060000000 1.0
C      1  0.6361220000000  0.6038830000000  0.3206280000000 1.0
C      1  0.3798540000000  0.6755260000000  0.4094860000000 1.0
C      1  0.6301100000000  0.6798700000000  0.5287980000000 1.0
C      1  0.3665180000000  0.6426820000000  0.6299210000000 1.0
C      1  0.5290930000000  0.2529940000000  0.4504020000000 1.0
C      1  0.4676700000000  0.3323570000000  0.3217960000000 1.0
C      1  0.5353340000000  0.4728630000000  0.2752850000000 1.0
C      1  0.4706120000000  0.6277900000000  0.2792130000000 1.0
C      1  0.5376260000000  0.7366530000000  0.3950870000000 1.0
C      1  0.4709310000000  0.7471220000000  0.5496190000000 1.0
C      1  0.5322870000000  0.6676060000000  0.6783240000000 1.0
C      1  0.4646220000000  0.5270890000000  0.7245640000000 1.0
C      1  0.5294390000000  0.3721950000000  0.7207380000000 1.0
C      1  0.4624040000000  0.2631880000000  0.6050260000000 1.0
C      1  0.5971820000000  0.6704690000000  0.6133840000000 1.0
C      1  0.4037980000000  0.5777390000000  0.6809050000000 1.0
C      1  0.5906560000000  0.4408030000000  0.7063710000000 1.0
C      1  0.4030600000000  0.3159580000000  0.6532810000000 1.0
C      1  0.5889340000000  0.2750100000000  0.5187540000000 1.0
C      1  0.4028540000000  0.3295470000000  0.3867600000000 1.0
C      1  0.5961540000000  0.4223020000000  0.3190050000000 1.0
C      1  0.4093840000000  0.5592050000000  0.2935400000000 1.0
C      1  0.5969410000000  0.6838160000000  0.3468970000000 1.0
C      1  0.4112110000000  0.7252060000000  0.4811660000000 1.0
C      1  0.1771680000000  0.4501420000000  0.4370130000000 1.0
C      1  0.7694050000000  0.5280540000000  0.4150560000000 1.0
C      1  0.2328050000000  0.5266640000000  0.4375560000000 1.0
C      1  0.7847460000000  0.5939980000000  0.4899960000000 1.0
C      1  0.2371150000000  0.5568190000000  0.5347390000000 1.0
C      1  0.8228050000000  0.5498460000000  0.5630080000000 1.0
C      1  0.2308050000000  0.4719630000000  0.5850160000000 1.0
C      1  0.7671140000000  0.4733320000000  0.5623730000000 1.0
C      1  0.2152360000000  0.4061040000000  0.5101080000000 1.0
C      1  0.7628770000000  0.4431670000000  0.4651830000000 1.0
END
