TITL C-1525613-7943-295 0.586286433955536 3375 -8824.86740095426 0 0 60 (C1) n - 1
REM
REM in /home/nfs/bkarasulu/CARBON/AIRSS/Generating-Clusters/ReaxFF-fromJPCA2015/Units_Real/Try2-Higher-symm/Only-C60
REM
REM
REM
REM
REM
REM ./C.cell (863b2abdce7293c0672fb3ba77bf323a)
REM AIRSS Version 0.9.1 bugfix July 2018 build 013d7b7c2542+ Fri, 06 Jul 2018 19:26:36 +0100
REM compiler GCC version 9.2.1 20190827 (Red Hat 9.2.1-1)
REM options -cpp -mtune=generic -march=x86-64 -g -O0 -fpre-include=/usr/include/finclude/math-vector-fortran.h
REM seed -1001890588 1679566282 21092277 -1690576622 -698047688 -506883082 640316505 337084091 -1685995540 2124096095 1634454220 -1254689997 780090624 -1546904778 -509324361 -1106587070 -826454580 -78179232 -708940341 -959325675 1432530368 238251387 1898406979 -943394040 -392614165 522044520 442867906 -1318845602 1193911463 -2106535504 41953688 -86916919 -565199423
REM
CELL 1.54180   15.00000   15.00000   15.00000   90.00000   90.00000   90.00000
LATT -1
SFAC C  
C      1  0.4034980000000  0.7132620000000  0.4531610000000 1.0
C      1  0.6730250000000  0.6576690000000  0.4532180000000 1.0
C      1  0.7034290000000  0.3841710000000  0.4531770000000 1.0
C      1  0.4527340000000  0.2707380000000  0.4532040000000 1.0
C      1  0.2673600000000  0.4741490000000  0.4531830000000 1.0
C      1  0.5965050000000  0.7132770000000  0.4532010000000 1.0
C      1  0.3269940000000  0.6576970000000  0.4531740000000 1.0
C      1  0.2965890000000  0.3842040000000  0.4531690000000 1.0
C      1  0.5473290000000  0.2707570000000  0.4532000000000 1.0
C      1  0.7326600000000  0.4741350000000  0.4531680000000 1.0
C      1  0.6281790000000  0.4074880000000  0.3054720000000 1.0
C      1  0.4515960000000  0.3495360000000  0.3054210000000 1.0
C      1  0.3418690000000  0.4994860000000  0.3054540000000 1.0
C      1  0.4507010000000  0.6501530000000  0.3054940000000 1.0
C      1  0.6276150000000  0.5933110000000  0.3054650000000 1.0
C      1  0.3718490000000  0.4074960000000  0.3054890000000 1.0
C      1  0.5483980000000  0.3494980000000  0.3054670000000 1.0
C      1  0.6580870000000  0.4995020000000  0.3054690000000 1.0
C      1  0.5492730000000  0.6501720000000  0.3054560000000 1.0
C      1  0.3723810000000  0.5933590000000  0.3054330000000 1.0
C      1  0.7007920000000  0.6152860000000  0.5342030000000 1.0
C      1  0.6717090000000  0.3446840000000  0.5342020000000 1.0
C      1  0.4053590000000  0.2885930000000  0.5341160000000 1.0
C      1  0.2697540000000  0.5247120000000  0.5341280000000 1.0
C      1  0.4523670000000  0.7266500000000  0.5341610000000 1.0
C      1  0.2991750000000  0.6153330000000  0.5341380000000 1.0
C      1  0.3282160000000  0.3446260000000  0.5341180000000 1.0
C      1  0.5947010000000  0.2887230000000  0.5341850000000 1.0
C      1  0.7302300000000  0.5247450000000  0.5341570000000 1.0
C      1  0.5476970000000  0.7266210000000  0.5341800000000 1.0
C      1  0.7405150000000  0.4741420000000  0.7150720000000 1.0
C      1  0.5497570000000  0.2632180000000  0.7150510000000 1.0
C      1  0.2901750000000  0.3794890000000  0.7151080000000 1.0
C      1  0.3205260000000  0.6623070000000  0.7150690000000 1.0
C      1  0.5989440000000  0.7207970000000  0.7150480000000 1.0
C      1  0.2594180000000  0.4741430000000  0.7150630000000 1.0
C      1  0.4502540000000  0.2632010000000  0.7151080000000 1.0
C      1  0.7097830000000  0.3795630000000  0.7150150000000 1.0
C      1  0.6794510000000  0.6622980000000  0.7150650000000 1.0
C      1  0.4010840000000  0.7208180000000  0.7150960000000 1.0
C      1  0.6725870000000  0.3943670000000  0.6184910000000 1.0
C      1  0.4530130000000  0.3031640000000  0.6186480000000 1.0
C      1  0.2982960000000  0.4840290000000  0.6185370000000 1.0
C      1  0.4223060000000  0.6868720000000  0.6186490000000 1.0
C      1  0.6537620000000  0.6315700000000  0.6185860000000 1.0
C      1  0.3273060000000  0.3944770000000  0.6186850000000 1.0
C      1  0.5471480000000  0.3031890000000  0.6185430000000 1.0
C      1  0.7017550000000  0.4839530000000  0.6184980000000 1.0
C      1  0.5776390000000  0.6868500000000  0.6185980000000 1.0
C      1  0.3462690000000  0.6315490000000  0.6186190000000 1.0
C      1  0.5912150000000  0.2955220000000  0.3735520000000 1.0
C      1  0.3337280000000  0.3501050000000  0.3735490000000 1.0
C      1  0.3059870000000  0.6117880000000  0.3734960000000 1.0
C      1  0.5464340000000  0.7190230000000  0.3735620000000 1.0
C      1  0.7226180000000  0.5235580000000  0.3735350000000 1.0
C      1  0.4088220000000  0.2954940000000  0.3735380000000 1.0
C      1  0.6662500000000  0.3500850000000  0.3735400000000 1.0
C      1  0.6939730000000  0.6117920000000  0.3735520000000 1.0
C      1  0.4535840000000  0.7189990000000  0.3735560000000 1.0
C      1  0.2773310000000  0.5236050000000  0.3735090000000 1.0
END
