TITL C-1525613-7943-7557 -8.3060701522106e-05 3375 -9531.96287222555 0 0 60 (D5d) n - 1
REM
REM in /home/nfs/bkarasulu/CARBON/AIRSS/Generating-Clusters/ReaxFF-fromJPCA2015/Units_Real/Try2-Higher-symm/Only-C60
REM
REM
REM
REM
REM
REM ./C.cell (863b2abdce7293c0672fb3ba77bf323a)
REM AIRSS Version 0.9.1 bugfix July 2018 build 013d7b7c2542+ Fri, 06 Jul 2018 19:26:36 +0100
REM compiler GCC version 9.2.1 20190827 (Red Hat 9.2.1-1)
REM options -cpp -mtune=generic -march=x86-64 -g -O0 -fpre-include=/usr/include/finclude/math-vector-fortran.h
REM seed 1590845679 -1064460205 -1843836984 394076898 -582228818 17684434 228690927 2044143253 928671922 835789058 -1723354332 3420853 990878510 -1351592307 1109246940 1762972705 1323973874 -242331923 865146925 -1941110599 2041511087 204499179 -655396132 818820139 1229158483 -1769972592 -162998374 -245759275 -291575930 -1092820942 -1655099070 -1534833664 -1382740721
REM
CELL 1.54180   15.00000   15.00000   15.00000   90.00000   90.00000   90.00000
LATT -1
SFAC C  
C      1  0.2969030000000  0.3777170000000  0.4096890000000 1.0
C      1  0.5231950000000  0.3777370000000  0.2788520000000 1.0
C      1  0.7176360000000  0.3777420000000  0.4536280000000 1.0
C      1  0.6112970000000  0.3777060000000  0.6925370000000 1.0
C      1  0.3513250000000  0.3777560000000  0.6652620000000 1.0
C      1  0.2968200000000  0.3777120000000  0.5903610000000 1.0
C      1  0.5231900000000  0.3776980000000  0.7211680000000 1.0
C      1  0.7174880000000  0.3777970000000  0.5462750000000 1.0
C      1  0.6113240000000  0.3777870000000  0.3074240000000 1.0
C      1  0.3513820000000  0.3777260000000  0.3347610000000 1.0
C      1  0.3439020000000  0.5414290000000  0.6724860000000 1.0
C      1  0.2875610000000  0.5414420000000  0.4049560000000 1.0
C      1  0.5248310000000  0.5414650000000  0.2687370000000 1.0
C      1  0.7277630000000  0.5414590000000  0.4520510000000 1.0
C      1  0.6159050000000  0.5414680000000  0.7017300000000 1.0
C      1  0.3439320000000  0.5414310000000  0.3275440000000 1.0
C      1  0.2875190000000  0.5414500000000  0.5950840000000 1.0
C      1  0.5248330000000  0.5414440000000  0.7312650000000 1.0
C      1  0.7277210000000  0.5414120000000  0.5478230000000 1.0
C      1  0.6159270000000  0.5414690000000  0.2982440000000 1.0
C      1  0.3844130000000  0.4590520000000  0.2990650000000 1.0
C      1  0.6556010000000  0.4591040000000  0.3277920000000 1.0
C      1  0.7117380000000  0.4590220000000  0.5946310000000 1.0
C      1  0.4754160000000  0.4590150000000  0.7305680000000 1.0
C      1  0.2729170000000  0.4590290000000  0.5478710000000 1.0
C      1  0.3844150000000  0.4590480000000  0.7009720000000 1.0
C      1  0.6555420000000  0.4590590000000  0.6720820000000 1.0
C      1  0.7119190000000  0.4590910000000  0.4051980000000 1.0
C      1  0.4754010000000  0.4590360000000  0.2694490000000 1.0
C      1  0.2729700000000  0.4590250000000  0.4521810000000 1.0
C      1  0.4993580000000  0.3077850000000  0.6580970000000 1.0
C      1  0.3494930000000  0.3078010000000  0.5482230000000 1.0
C      1  0.4077620000000  0.3078700000000  0.3717790000000 1.0
C      1  0.5935560000000  0.3078810000000  0.3724910000000 1.0
C      1  0.6500900000000  0.3079720000000  0.5494310000000 1.0
C      1  0.4994310000000  0.3078440000000  0.3419440000000 1.0
C      1  0.3495830000000  0.3078100000000  0.4518260000000 1.0
C      1  0.4076980000000  0.3078930000000  0.6282540000000 1.0
C      1  0.5934660000000  0.3078610000000  0.6274430000000 1.0
C      1  0.6502270000000  0.3078640000000  0.4504800000000 1.0
C      1  0.4064720000000  0.6914050000000  0.6274100000000 1.0
C      1  0.3496430000000  0.6914630000000  0.4505580000000 1.0
C      1  0.5005790000000  0.6914060000000  0.3421030000000 1.0
C      1  0.6505360000000  0.6913860000000  0.4518090000000 1.0
C      1  0.5923370000000  0.6913970000000  0.6282520000000 1.0
C      1  0.4064580000000  0.6913910000000  0.3726470000000 1.0
C      1  0.3496470000000  0.6914630000000  0.5495100000000 1.0
C      1  0.5006180000000  0.6913890000000  0.6579400000000 1.0
C      1  0.6505540000000  0.6914230000000  0.5482350000000 1.0
C      1  0.5923250000000  0.6913630000000  0.3718030000000 1.0
C      1  0.4765480000000  0.6225290000000  0.2780510000000 1.0
C      1  0.7039690000000  0.6224860000000  0.4091060000000 1.0
C      1  0.6494330000000  0.6224890000000  0.6658970000000 1.0
C      1  0.3883630000000  0.6224890000000  0.6933400000000 1.0
C      1  0.2813610000000  0.6225290000000  0.4536540000000 1.0
C      1  0.4765720000000  0.6224780000000  0.7219400000000 1.0
C      1  0.7039880000000  0.6224980000000  0.5909020000000 1.0
C      1  0.6494340000000  0.6225020000000  0.3341120000000 1.0
C      1  0.3883460000000  0.6225010000000  0.3066890000000 1.0
C      1  0.2813650000000  0.6225030000000  0.5463920000000 1.0
END
