TITL C-1525613-7943-2161 0.00135200950947587 3375 -9578.52083645592 0 0 60 (D5h) n - 1
REM
REM in /home/nfs/bkarasulu/CARBON/AIRSS/Generating-Clusters/ReaxFF-fromJPCA2015/Units_Real/Try2-Higher-symm/Only-C60
REM
REM
REM
REM
REM
REM ./C.cell (863b2abdce7293c0672fb3ba77bf323a)
REM AIRSS Version 0.9.1 bugfix July 2018 build 013d7b7c2542+ Fri, 06 Jul 2018 19:26:36 +0100
REM compiler GCC version 9.2.1 20190827 (Red Hat 9.2.1-1)
REM options -cpp -mtune=generic -march=x86-64 -g -O0 -fpre-include=/usr/include/finclude/math-vector-fortran.h
REM seed 2653936 -1023743778 -842508645 687580158 1549027849 1491468519 -879416687 -597786506 1803009069 598171570 1373247133 564903863 2130521125 -1086042003 -1195344353 -816908054 -218499043 -1377218483 -1027441687 2054909598 -1161287112 693380820 657402427 -1231206039 2027883783 1824438866 1214739302 -364480364 -1301553397 -762831984 -816538104 2130955367 -1522836966
REM
CELL 1.54180   15.00000   15.00000   15.00000   90.00000   90.00000   90.00000
LATT -1
SFAC C  
C      1  0.4246220000000  0.7280810000000  0.5466860000000 1.0
C      1  0.2597860000000  0.4987910000000  0.5466840000000 1.0
C      1  0.4269210000000  0.2711710000000  0.5466810000000 1.0
C      1  0.6950460000000  0.3597850000000  0.5466810000000 1.0
C      1  0.6936250000000  0.6421700000000  0.5466850000000 1.0
C      1  0.4246220000000  0.7280820000000  0.4533200000000 1.0
C      1  0.2597860000000  0.4987920000000  0.4533170000000 1.0
C      1  0.4269210000000  0.2711720000000  0.4533140000000 1.0
C      1  0.6950460000000  0.3597860000000  0.4533150000000 1.0
C      1  0.6936250000000  0.6421710000000  0.4533190000000 1.0
C      1  0.7293480000000  0.5695740000000  0.4066490000000 1.0
C      1  0.5047060000000  0.7396240000000  0.4066510000000 1.0
C      1  0.2735600000000  0.5785240000000  0.4066500000000 1.0
C      1  0.3553470000000  0.3089090000000  0.4066460000000 1.0
C      1  0.6370420000000  0.3033780000000  0.4066460000000 1.0
C      1  0.7293490000000  0.5695720000000  0.5933520000000 1.0
C      1  0.5047060000000  0.7396220000000  0.5933550000000 1.0
C      1  0.2735600000000  0.5785210000000  0.5933530000000 1.0
C      1  0.3553490000000  0.3089060000000  0.5933490000000 1.0
C      1  0.6370400000000  0.3033750000000  0.5933490000000 1.0
C      1  0.7821870000000  0.5014200000000  0.4510130000000 1.0
C      1  0.5858500000000  0.7688150000000  0.4510170000000 1.0
C      1  0.2708730000000  0.6647160000000  0.4510170000000 1.0
C      1  0.2725410000000  0.3329870000000  0.4510120000000 1.0
C      1  0.5885510000000  0.2320640000000  0.4510100000000 1.0
C      1  0.7821870000000  0.5014190000000  0.5489860000000 1.0
C      1  0.5858500000000  0.7688140000000  0.5489890000000 1.0
C      1  0.2708720000000  0.6647160000000  0.5489870000000 1.0
C      1  0.2725420000000  0.3329860000000  0.5489840000000 1.0
C      1  0.5885510000000  0.2320630000000  0.5489830000000 1.0
C      1  0.5245560000000  0.5768890000000  0.6542060000000 1.0
C      1  0.4344610000000  0.5471130000000  0.6542060000000 1.0
C      1  0.4349380000000  0.4522260000000  0.6542050000000 1.0
C      1  0.5253290000000  0.4233580000000  0.6542040000000 1.0
C      1  0.5807160000000  0.5004040000000  0.6542040000000 1.0
C      1  0.5245560000000  0.5768930000000  0.3457960000000 1.0
C      1  0.4344600000000  0.5471170000000  0.3457950000000 1.0
C      1  0.4349370000000  0.4522290000000  0.3457940000000 1.0
C      1  0.5253280000000  0.4233620000000  0.3457940000000 1.0
C      1  0.5807150000000  0.5004080000000  0.3457960000000 1.0
C      1  0.5536270000000  0.6679190000000  0.3621930000000 1.0
C      1  0.3568720000000  0.6028930000000  0.3621920000000 1.0
C      1  0.3579140000000  0.3956750000000  0.3621890000000 1.0
C      1  0.5553140000000  0.3326310000000  0.3621890000000 1.0
C      1  0.6762710000000  0.5008880000000  0.3621920000000 1.0
C      1  0.5536270000000  0.6679170000000  0.6378110000000 1.0
C      1  0.3568730000000  0.6028900000000  0.6378120000000 1.0
C      1  0.3579150000000  0.3956720000000  0.6378090000000 1.0
C      1  0.5553140000000  0.3326280000000  0.6378070000000 1.0
C      1  0.6762710000000  0.5008850000000  0.6378080000000 1.0
C      1  0.5071160000000  0.2604350000000  0.5933490000000 1.0
C      1  0.7300380000000  0.4327370000000  0.5933500000000 1.0
C      1  0.6350540000000  0.6979930000000  0.5933540000000 1.0
C      1  0.3534320000000  0.6896250000000  0.5933540000000 1.0
C      1  0.2743600000000  0.4192030000000  0.5933510000000 1.0
C      1  0.5071140000000  0.2604370000000  0.4066450000000 1.0
C      1  0.7300370000000  0.4327400000000  0.4066480000000 1.0
C      1  0.6350540000000  0.6979940000000  0.4066510000000 1.0
C      1  0.3534320000000  0.6896280000000  0.4066510000000 1.0
C      1  0.2743600000000  0.4192040000000  0.4066470000000 1.0
END
