TITL C-1525613-7943-1718 0.0777401570536824 3375 -8496.23772894837 0 0 60 (C1) n - 1
REM
REM in /home/nfs/bkarasulu/CARBON/AIRSS/Generating-Clusters/ReaxFF-fromJPCA2015/Units_Real/Try2-Higher-symm/Only-C60
REM
REM
REM
REM
REM
REM ./C.cell (863b2abdce7293c0672fb3ba77bf323a)
REM AIRSS Version 0.9.1 bugfix July 2018 build 013d7b7c2542+ Fri, 06 Jul 2018 19:26:36 +0100
REM compiler GCC version 9.2.1 20190827 (Red Hat 9.2.1-1)
REM options -cpp -mtune=generic -march=x86-64 -g -O0 -fpre-include=/usr/include/finclude/math-vector-fortran.h
REM seed -473444096 -217306965 219749922 -1615053107 -125939649 558603722 116626600 908289829 -211820423 -730614286 1487714335 1042639165 -1381788256 -1547607412 2110188723 1109912509 1255988032 -434926863 1107251911 693363346 1142068751 648604270 395922947 -1598924994 -1270804662 -1451051286 1502991630 -371487762 1519991134 68238413 -1828197778 -1051876991 820338259
REM
CELL 1.54180   15.00000   15.00000   15.00000   90.00000   90.00000   90.00000
LATT -1
SFAC C  
C      1  0.7206260000000  0.4557140000000  0.4163110000000 1.0
C      1  0.5333820000000  0.2756780000000  0.4270770000000 1.0
C      1  0.2995800000000  0.4084530000000  0.4602080000000 1.0
C      1  0.3474030000000  0.6639750000000  0.4165690000000 1.0
C      1  0.6049420000000  0.7001090000000  0.4371780000000 1.0
C      1  0.7082830000000  0.5456400000000  0.5384290000000 1.0
C      1  0.5137470000000  0.7144120000000  0.5394230000000 1.0
C      1  0.2993560000000  0.5935040000000  0.5418150000000 1.0
C      1  0.3420980000000  0.3350000000000  0.5745560000000 1.0
C      1  0.6034090000000  0.3169240000000  0.5394480000000 1.0
C      1  0.4763000000000  0.4247240000000  0.4155510000000 1.0
C      1  0.4214420000000  0.5004880000000  0.4453480000000 1.0
C      1  0.4735620000000  0.5756870000000  0.4081660000000 1.0
C      1  0.5621530000000  0.5475390000000  0.4013280000000 1.0
C      1  0.5641170000000  0.4541390000000  0.4054100000000 1.0
C      1  0.4739820000000  0.5768670000000  0.5904190000000 1.0
C      1  0.4220980000000  0.5025440000000  0.5612270000000 1.0
C      1  0.4731060000000  0.4285170000000  0.5918330000000 1.0
C      1  0.5614920000000  0.4540540000000  0.6013580000000 1.0
C      1  0.5622170000000  0.5485180000000  0.5967930000000 1.0
C      1  0.2973650000000  0.5910470000000  0.4457640000000 1.0
C      1  0.5092510000000  0.7202760000000  0.4456300000000 1.0
C      1  0.7133900000000  0.5499490000000  0.4436290000000 1.0
C      1  0.6171290000000  0.3162050000000  0.4471870000000 1.0
C      1  0.3458950000000  0.3375860000000  0.4059710000000 1.0
C      1  0.2891220000000  0.4143380000000  0.5558910000000 1.0
C      1  0.5282610000000  0.2804340000000  0.5906950000000 1.0
C      1  0.7184940000000  0.4588020000000  0.5840480000000 1.0
C      1  0.6049240000000  0.6989900000000  0.5768890000000 1.0
C      1  0.3447220000000  0.6606440000000  0.5962060000000 1.0
C      1  0.3021740000000  0.4660940000000  0.3071910000000 1.0
C      1  0.3909460000000  0.6725170000000  0.2751680000000 1.0
C      1  0.6456540000000  0.6639360000000  0.2985630000000 1.0
C      1  0.6931960000000  0.4136270000000  0.2880720000000 1.0
C      1  0.4822070000000  0.2851800000000  0.2984430000000 1.0
C      1  0.3005170000000  0.5328010000000  0.7012550000000 1.0
C      1  0.3957750000000  0.3239560000000  0.7120410000000 1.0
C      1  0.6436210000000  0.3314870000000  0.7032080000000 1.0
C      1  0.6909800000000  0.5811430000000  0.6965420000000 1.0
C      1  0.4909360000000  0.7115060000000  0.6980940000000 1.0
C      1  0.3276460000000  0.6516770000000  0.3269100000000 1.0
C      1  0.6011440000000  0.7247320000000  0.3458060000000 1.0
C      1  0.7377730000000  0.4773000000000  0.3284790000000 1.0
C      1  0.5582700000000  0.2604440000000  0.3391180000000 1.0
C      1  0.3183630000000  0.3800820000000  0.3279330000000 1.0
C      1  0.3221770000000  0.3404240000000  0.6662180000000 1.0
C      1  0.5777280000000  0.2837400000000  0.6690000000000 1.0
C      1  0.7096080000000  0.4964220000000  0.6681110000000 1.0
C      1  0.5716430000000  0.7186550000000  0.6620840000000 1.0
C      1  0.3180350000000  0.6173980000000  0.6756810000000 1.0
C      1  0.4462410000000  0.6689020000000  0.5988790000000 1.0
C      1  0.6461300000000  0.6050840000000  0.5946000000000 1.0
C      1  0.6436610000000  0.3936220000000  0.6030760000000 1.0
C      1  0.4444020000000  0.3378240000000  0.6034850000000 1.0
C      1  0.3198060000000  0.5068720000000  0.5906720000000 1.0
C      1  0.4462250000000  0.3338660000000  0.4028370000000 1.0
C      1  0.6403610000000  0.3984500000000  0.4019230000000 1.0
C      1  0.6394520000000  0.6053750000000  0.4017310000000 1.0
C      1  0.4413530000000  0.6671160000000  0.3995850000000 1.0
C      1  0.3221280000000  0.4990070000000  0.4149390000000 1.0
END
