TITL C-1525613-7943-46 2.49026963109098e-05 3375 -8830.53745740782 0 0 60 (D5) n - 1
REM
REM in /home/nfs/bkarasulu/CARBON/AIRSS/Generating-Clusters/ReaxFF-fromJPCA2015/Units_Real/Try2-Higher-symm/Only-C60
REM
REM
REM
REM
REM
REM ./C.cell (863b2abdce7293c0672fb3ba77bf323a)
REM AIRSS Version 0.9.1 bugfix July 2018 build 013d7b7c2542+ Fri, 06 Jul 2018 19:26:36 +0100
REM compiler GCC version 9.2.1 20190827 (Red Hat 9.2.1-1)
REM options -cpp -mtune=generic -march=x86-64 -g -O0 -fpre-include=/usr/include/finclude/math-vector-fortran.h
REM seed 1756370542 -612607328 -433218781 -816321369 1610146010 406085896 597397994 -1307351707 -599136488 676393469 362294331 -259021523 2047270927 -1670693341 -518870379 -977535957 676534674 -1302170481 1132213060 -852166589 934318103 -219787551 -682695130 -1081593551 -1594690371 -2139443518 -381547487 -1363611890 980934410 -2011652727 434631356 46496942 603208180
REM
CELL 1.54180   15.00000   15.00000   15.00000   90.00000   90.00000   90.00000
LATT -1
SFAC C  
C      1  0.5975420000000  0.6238980000000  0.3293690000000 1.0
C      1  0.5975380000000  0.7005680000000  0.5651020000000 1.0
C      1  0.5975480000000  0.5000670000000  0.7108690000000 1.0
C      1  0.5975590000000  0.2994820000000  0.5652210000000 1.0
C      1  0.5975550000000  0.3760100000000  0.3294400000000 1.0
C      1  0.4024580000000  0.3761020000000  0.3293690000000 1.0
C      1  0.4024620000000  0.2994320000000  0.5651020000000 1.0
C      1  0.4024520000000  0.4999330000000  0.7108690000000 1.0
C      1  0.4024410000000  0.7005180000000  0.5652210000000 1.0
C      1  0.4024450000000  0.6239900000000  0.3294400000000 1.0
C      1  0.5478530000000  0.6919770000000  0.3833030000000 1.0
C      1  0.5478550000000  0.6703100000000  0.6465200000000 1.0
C      1  0.5478680000000  0.4132820000000  0.7072530000000 1.0
C      1  0.5478760000000  0.2761010000000  0.4815680000000 1.0
C      1  0.5478660000000  0.4483420000000  0.2813550000000 1.0
C      1  0.4521470000000  0.3080230000000  0.3833030000000 1.0
C      1  0.4521450000000  0.3296900000000  0.6465200000000 1.0
C      1  0.4521320000000  0.5867180000000  0.7072530000000 1.0
C      1  0.4521240000000  0.7238990000000  0.4815680000000 1.0
C      1  0.4521340000000  0.5516580000000  0.2813550000000 1.0
C      1  0.4525300000000  0.2755220000000  0.4818470000000 1.0
C      1  0.4525200000000  0.4478950000000  0.2808970000000 1.0
C      1  0.4525070000000  0.6922730000000  0.3827410000000 1.0
C      1  0.4525090000000  0.6709330000000  0.6466320000000 1.0
C      1  0.4525220000000  0.4133650000000  0.7078840000000 1.0
C      1  0.5474700000000  0.7244780000000  0.4818470000000 1.0
C      1  0.5474800000000  0.5521050000000  0.2808970000000 1.0
C      1  0.5474930000000  0.3077270000000  0.3827410000000 1.0
C      1  0.5474910000000  0.3290670000000  0.6466320000000 1.0
C      1  0.5474780000000  0.5866350000000  0.7078840000000 1.0
C      1  0.3458400000000  0.6279890000000  0.4617880000000 1.0
C      1  0.3458450000000  0.5758890000000  0.6099310000000 1.0
C      1  0.3458530000000  0.4188980000000  0.6061540000000 1.0
C      1  0.3458540000000  0.3739790000000  0.4556770000000 1.0
C      1  0.3458500000000  0.5032040000000  0.3664500000000 1.0
C      1  0.6541600000000  0.3720110000000  0.4617880000000 1.0
C      1  0.6541550000000  0.4241110000000  0.6099310000000 1.0
C      1  0.6541470000000  0.5811020000000  0.6061540000000 1.0
C      1  0.6541460000000  0.6260210000000  0.4556770000000 1.0
C      1  0.6541500000000  0.4967960000000  0.3664500000000 1.0
C      1  0.4314080000000  0.4217820000000  0.4723260000000 1.0
C      1  0.4314040000000  0.5021460000000  0.4170570000000 1.0
C      1  0.4313990000000  0.5795390000000  0.4764150000000 1.0
C      1  0.4314020000000  0.5470090000000  0.5683650000000 1.0
C      1  0.4314070000000  0.4495070000000  0.5658380000000 1.0
C      1  0.5685920000000  0.5782180000000  0.4723260000000 1.0
C      1  0.5685960000000  0.4978540000000  0.4170570000000 1.0
C      1  0.5686010000000  0.4204610000000  0.4764150000000 1.0
C      1  0.5685980000000  0.4529910000000  0.5683650000000 1.0
C      1  0.5685930000000  0.5504930000000  0.5658380000000 1.0
C      1  0.6804780000000  0.3492980000000  0.5528310000000 1.0
C      1  0.6804740000000  0.4031920000000  0.3729860000000 1.0
C      1  0.6804650000000  0.5908860000000  0.3686700000000 1.0
C      1  0.6804610000000  0.6529900000000  0.5458470000000 1.0
C      1  0.6804690000000  0.5036810000000  0.6596660000000 1.0
C      1  0.3195220000000  0.6507020000000  0.5528310000000 1.0
C      1  0.3195260000000  0.5968080000000  0.3729860000000 1.0
C      1  0.3195350000000  0.4091140000000  0.3686700000000 1.0
C      1  0.3195390000000  0.3470100000000  0.5458470000000 1.0
C      1  0.3195310000000  0.4963190000000  0.6596660000000 1.0
END
