TITL C-1525613-7943-4362 -2.18613221903199e-05 3375 -9035.39700755886 0 0 60 (D5h) n - 1
REM
REM in /home/nfs/bkarasulu/CARBON/AIRSS/Generating-Clusters/ReaxFF-fromJPCA2015/Units_Real/Try2-Higher-symm/Only-C60
REM
REM
REM
REM
REM
REM ./C.cell (863b2abdce7293c0672fb3ba77bf323a)
REM AIRSS Version 0.9.1 bugfix July 2018 build 013d7b7c2542+ Fri, 06 Jul 2018 19:26:36 +0100
REM compiler GCC version 9.2.1 20190827 (Red Hat 9.2.1-1)
REM options -cpp -mtune=generic -march=x86-64 -g -O0 -fpre-include=/usr/include/finclude/math-vector-fortran.h
REM seed 1495707737 -1560706074 -292980082 1336639760 1836482336 2109999673 -461289659 942895626 992331564 -502972286 1682010667 -257108434 -35609175 -733257734 1748109637 2090213456 -652075141 1235892184 -1105371258 -55573419 1789936389 933479302 1001522293 304496177 660121953 -515085828 -902297126 -1730340367 2142009889 -587648012 -1646916023 -1454709270 -202607162
REM
CELL 1.54180   15.00000   15.00000   15.00000   90.00000   90.00000   90.00000
LATT -1
SFAC C  
C      1  0.3504300000000  0.4508110000000  0.3303420000000 1.0
C      1  0.2931260000000  0.4517300000000  0.5896900000000 1.0
C      1  0.5212840000000  0.4511190000000  0.7241420000000 1.0
C      1  0.7204820000000  0.4512600000000  0.5493060000000 1.0
C      1  0.6144750000000  0.4513850000000  0.3058470000000 1.0
C      1  0.3504300000000  0.5491890000000  0.6696580000000 1.0
C      1  0.2931260000000  0.5482700000000  0.4103100000000 1.0
C      1  0.5212840000000  0.5488810000000  0.2758580000000 1.0
C      1  0.7204820000000  0.5487400000000  0.4506940000000 1.0
C      1  0.6144750000000  0.5486150000000  0.6941530000000 1.0
C      1  0.4530560000000  0.3012960000000  0.6446210000000 1.0
C      1  0.6242640000000  0.3003810000000  0.5901900000000 1.0
C      1  0.6229000000000  0.3014470000000  0.4105830000000 1.0
C      1  0.4524890000000  0.3001200000000  0.3537730000000 1.0
C      1  0.3475150000000  0.3011310000000  0.4997580000000 1.0
C      1  0.4530560000000  0.6987040000000  0.3553790000000 1.0
C      1  0.6242640000000  0.6996190000000  0.4098100000000 1.0
C      1  0.6229000000000  0.6985530000000  0.5894170000000 1.0
C      1  0.4524890000000  0.6998800000000  0.6462270000000 1.0
C      1  0.3475150000000  0.6988690000000  0.5002420000000 1.0
C      1  0.5354350000000  0.2745940000000  0.3897450000000 1.0
C      1  0.4054820000000  0.2740870000000  0.4309080000000 1.0
C      1  0.4070680000000  0.2746810000000  0.5673050000000 1.0
C      1  0.5363690000000  0.2741230000000  0.6108410000000 1.0
C      1  0.6158670000000  0.2745830000000  0.5002110000000 1.0
C      1  0.5354350000000  0.7254060000000  0.6102550000000 1.0
C      1  0.4054820000000  0.7259130000000  0.5690920000000 1.0
C      1  0.4070680000000  0.7253190000000  0.4326950000000 1.0
C      1  0.5363690000000  0.7258770000000  0.3891590000000 1.0
C      1  0.6158670000000  0.7254170000000  0.4997890000000 1.0
C      1  0.7199720000000  0.5487430000000  0.5489430000000 1.0
C      1  0.6149660000000  0.5488780000000  0.3055630000000 1.0
C      1  0.3507630000000  0.5483370000000  0.3309570000000 1.0
C      1  0.2932520000000  0.5491620000000  0.5896460000000 1.0
C      1  0.5212700000000  0.5485890000000  0.7250930000000 1.0
C      1  0.7199720000000  0.4512570000000  0.4510570000000 1.0
C      1  0.6149660000000  0.4511220000000  0.6944370000000 1.0
C      1  0.3507630000000  0.4516630000000  0.6690430000000 1.0
C      1  0.2932520000000  0.4508380000000  0.4103540000000 1.0
C      1  0.5212700000000  0.4514110000000  0.2749070000000 1.0
C      1  0.4168080000000  0.5570300000000  0.4990630000000 1.0
C      1  0.4744810000000  0.5590890000000  0.5788250000000 1.0
C      1  0.5675100000000  0.5560530000000  0.5489910000000 1.0
C      1  0.5667190000000  0.5585770000000  0.4514560000000 1.0
C      1  0.4735350000000  0.5569810000000  0.4215530000000 1.0
C      1  0.4168080000000  0.4429700000000  0.5009370000000 1.0
C      1  0.4744810000000  0.4409110000000  0.4211750000000 1.0
C      1  0.5675100000000  0.4439470000000  0.4510090000000 1.0
C      1  0.5667190000000  0.4414230000000  0.5485440000000 1.0
C      1  0.4735350000000  0.4430190000000  0.5784470000000 1.0
C      1  0.3228850000000  0.4063810000000  0.5001850000000 1.0
C      1  0.4453790000000  0.4068540000000  0.6673160000000 1.0
C      1  0.6453450000000  0.4052230000000  0.6055940000000 1.0
C      1  0.6424460000000  0.4069790000000  0.3964750000000 1.0
C      1  0.4444270000000  0.4050690000000  0.3289270000000 1.0
C      1  0.3228850000000  0.5936190000000  0.4998150000000 1.0
C      1  0.4453790000000  0.5931460000000  0.3326840000000 1.0
C      1  0.6453450000000  0.5947770000000  0.3944060000000 1.0
C      1  0.6424460000000  0.5930210000000  0.6035250000000 1.0
C      1  0.4444270000000  0.5949310000000  0.6710730000000 1.0
END
