TITL C-1525613-7943-4257 -0.340284028526528 3375 -8977.26869128285 0 0 60 (C10) n - 1
REM
REM in /home/nfs/bkarasulu/CARBON/AIRSS/Generating-Clusters/ReaxFF-fromJPCA2015/Units_Real/Try2-Higher-symm/Only-C60
REM
REM
REM
REM
REM
REM ./C.cell (863b2abdce7293c0672fb3ba77bf323a)
REM AIRSS Version 0.9.1 bugfix July 2018 build 013d7b7c2542+ Fri, 06 Jul 2018 19:26:36 +0100
REM compiler GCC version 9.2.1 20190827 (Red Hat 9.2.1-1)
REM options -cpp -mtune=generic -march=x86-64 -g -O0 -fpre-include=/usr/include/finclude/math-vector-fortran.h
REM seed 383079450 -1598489930 578827849 -68022078 1545532565 -480486069 356747567 201930940 -355703145 -1488366527 2095208028 -898970602 1926038267 1610525268 -438669351 1825774446 1838748746 1626093175 691372545 -1033265659 783314574 1834095050 1637463800 -968418781 -1930353089 1207176601 1564379426 1257002897 445498385 -318967883 2112019960 -1778317725 -1412618608
REM
CELL 1.54180   15.00000   15.00000   15.00000   90.00000   90.00000   90.00000
LATT -1
SFAC C  
C      1  0.7147510000000  0.4751960000000  0.3869080000000 1.0
C      1  0.7402910000000  0.4752210000000  0.5346910000000 1.0
C      1  0.6740090000000  0.4750890000000  0.6693330000000 1.0
C      1  0.5411790000000  0.4751720000000  0.7392640000000 1.0
C      1  0.3927870000000  0.4751300000000  0.7177880000000 1.0
C      1  0.2852490000000  0.4751960000000  0.6130920000000 1.0
C      1  0.2597090000000  0.4752210000000  0.4653090000000 1.0
C      1  0.3259910000000  0.4750890000000  0.3306670000000 1.0
C      1  0.4588210000000  0.4751720000000  0.2607360000000 1.0
C      1  0.6072130000000  0.4751300000000  0.2822120000000 1.0
C      1  0.3297160000000  0.6279900000000  0.6745480000000 1.0
C      1  0.2595920000000  0.6280760000000  0.5412540000000 1.0
C      1  0.2813290000000  0.6281850000000  0.3919250000000 1.0
C      1  0.3865600000000  0.6281920000000  0.2841620000000 1.0
C      1  0.5350660000000  0.6281090000000  0.2586410000000 1.0
C      1  0.6702840000000  0.6279900000000  0.3254520000000 1.0
C      1  0.7404080000000  0.6280760000000  0.4587460000000 1.0
C      1  0.7186710000000  0.6281850000000  0.6080750000000 1.0
C      1  0.6134400000000  0.6281920000000  0.7158380000000 1.0
C      1  0.4649340000000  0.6281090000000  0.7413590000000 1.0
C      1  0.3457840000000  0.6639580000000  0.3494440000000 1.0
C      1  0.4635070000000  0.6639270000000  0.2874750000000 1.0
C      1  0.5953250000000  0.6639230000000  0.3065570000000 1.0
C      1  0.6909630000000  0.6639060000000  0.3997370000000 1.0
C      1  0.7133630000000  0.6640310000000  0.5312250000000 1.0
C      1  0.6542160000000  0.6639580000000  0.6505560000000 1.0
C      1  0.5364930000000  0.6639270000000  0.7125250000000 1.0
C      1  0.4046750000000  0.6639230000000  0.6934430000000 1.0
C      1  0.3090370000000  0.6639060000000  0.6002630000000 1.0
C      1  0.2866370000000  0.6640310000000  0.4687750000000 1.0
C      1  0.6632010000000  0.4052070000000  0.5231900000000 1.0
C      1  0.6185480000000  0.4051350000000  0.6147830000000 1.0
C      1  0.5283940000000  0.4052120000000  0.6623370000000 1.0
C      1  0.4274620000000  0.4051460000000  0.6481300000000 1.0
C      1  0.3542540000000  0.4052050000000  0.5772240000000 1.0
C      1  0.3367990000000  0.4052070000000  0.4768100000000 1.0
C      1  0.3814520000000  0.4051350000000  0.3852170000000 1.0
C      1  0.4716060000000  0.4052120000000  0.3376630000000 1.0
C      1  0.5725380000000  0.4051460000000  0.3518700000000 1.0
C      1  0.6457460000000  0.4052050000000  0.4227760000000 1.0
C      1  0.3465360000000  0.3021210000000  0.4789920000000 1.0
C      1  0.3882820000000  0.3018720000000  0.3927350000000 1.0
C      1  0.4727550000000  0.3021090000000  0.3475260000000 1.0
C      1  0.5676110000000  0.3020180000000  0.3605900000000 1.0
C      1  0.6365700000000  0.3020460000000  0.4268330000000 1.0
C      1  0.6534640000000  0.3021210000000  0.5210080000000 1.0
C      1  0.6117180000000  0.3018720000000  0.6072650000000 1.0
C      1  0.5272450000000  0.3021090000000  0.6524740000000 1.0
C      1  0.4323890000000  0.3020180000000  0.6394100000000 1.0
C      1  0.3634300000000  0.3020460000000  0.5731670000000 1.0
C      1  0.3191850000000  0.5256110000000  0.6856310000000 1.0
C      1  0.2446410000000  0.5254720000000  0.5439910000000 1.0
C      1  0.2674770000000  0.5255290000000  0.3854370000000 1.0
C      1  0.3791360000000  0.5256480000000  0.2706870000000 1.0
C      1  0.5370790000000  0.5255630000000  0.2434940000000 1.0
C      1  0.6808150000000  0.5256110000000  0.3143690000000 1.0
C      1  0.7553590000000  0.5254720000000  0.4560090000000 1.0
C      1  0.7325230000000  0.5255290000000  0.6145630000000 1.0
C      1  0.6208640000000  0.5256480000000  0.7293130000000 1.0
C      1  0.4629210000000  0.5255630000000  0.7565060000000 1.0
END
