TITL C-1525613-7943-3525 -0.0185009027903376 3375 -9464.04657677252 0 0 60 (C1) n - 1
REM
REM in /home/nfs/bkarasulu/CARBON/AIRSS/Generating-Clusters/ReaxFF-fromJPCA2015/Units_Real/Try2-Higher-symm/Only-C60
REM
REM
REM
REM
REM
REM ./C.cell (863b2abdce7293c0672fb3ba77bf323a)
REM AIRSS Version 0.9.1 bugfix July 2018 build 013d7b7c2542+ Fri, 06 Jul 2018 19:26:36 +0100
REM compiler GCC version 9.2.1 20190827 (Red Hat 9.2.1-1)
REM options -cpp -mtune=generic -march=x86-64 -g -O0 -fpre-include=/usr/include/finclude/math-vector-fortran.h
REM seed 8543367 -882070790 586962249 2137785193 -132498388 -686721784 1665133187 -1930444406 1552102324 1141840524 -855773704 -1020831105 1732930207 -493790845 1995538440 816649344 -1847062448 736754338 -1821531037 820188158 -2099320074 399775451 24906988 1118407438 -1910274521 -713085127 1467734163 1442214322 1237149795 -1903272521 906759889 1801146971 711517066
REM
CELL 1.54180   15.00000   15.00000   15.00000   90.00000   90.00000   90.00000
LATT -1
SFAC C  
C      1  0.6148820000000  0.2860790000000  0.4426790000000 1.0
C      1  0.5903500000000  0.3114070000000  0.3524030000000 1.0
C      1  0.6115040000000  0.3958310000000  0.3081990000000 1.0
C      1  0.6068770000000  0.6157920000000  0.3198110000000 1.0
C      1  0.6016750000000  0.7029610000000  0.3623280000000 1.0
C      1  0.6161640000000  0.7142500000000  0.4577340000000 1.0
C      1  0.6116570000000  0.6704720000000  0.6620710000000 1.0
C      1  0.6186400000000  0.5923150000000  0.7212030000000 1.0
C      1  0.6098920000000  0.3953740000000  0.7127560000000 1.0
C      1  0.6218330000000  0.3191370000000  0.6584620000000 1.0
C      1  0.6832930000000  0.4094070000000  0.4288170000000 1.0
C      1  0.6781220000000  0.4553690000000  0.3506900000000 1.0
C      1  0.6792800000000  0.5589050000000  0.3524670000000 1.0
C      1  0.7242160000000  0.5935220000000  0.4324290000000 1.0
C      1  0.6771720000000  0.6510220000000  0.5003450000000 1.0
C      1  0.6683500000000  0.6255680000000  0.5949210000000 1.0
C      1  0.6720060000000  0.5447320000000  0.6526760000000 1.0
C      1  0.6617220000000  0.4483880000000  0.6474970000000 1.0
C      1  0.6743800000000  0.3673770000000  0.5945320000000 1.0
C      1  0.6736730000000  0.3486830000000  0.4961440000000 1.0
C      1  0.3822990000000  0.6070370000000  0.7206630000000 1.0
C      1  0.3869190000000  0.5159880000000  0.7436390000000 1.0
C      1  0.3901890000000  0.3339910000000  0.6313390000000 1.0
C      1  0.4096520000000  0.2726450000000  0.5585860000000 1.0
C      1  0.3846660000000  0.2843090000000  0.4655130000000 1.0
C      1  0.3792910000000  0.3933850000000  0.2763020000000 1.0
C      1  0.3886860000000  0.4859920000000  0.2599450000000 1.0
C      1  0.3802600000000  0.6686070000000  0.3667160000000 1.0
C      1  0.3968670000000  0.7329280000000  0.4383700000000 1.0
C      1  0.3925550000000  0.7089410000000  0.5321740000000 1.0
C      1  0.3242100000000  0.5042810000000  0.3314940000000 1.0
C      1  0.3213410000000  0.5896070000000  0.3846290000000 1.0
C      1  0.3183600000000  0.6027170000000  0.4753350000000 1.0
C      1  0.3291790000000  0.6355060000000  0.5593200000000 1.0
C      1  0.3220090000000  0.5889500000000  0.6483290000000 1.0
C      1  0.3256240000000  0.4947880000000  0.6703770000000 1.0
C      1  0.3277090000000  0.4107710000000  0.6153110000000 1.0
C      1  0.3209160000000  0.3962430000000  0.5250070000000 1.0
C      1  0.3265950000000  0.3629970000000  0.4402920000000 1.0
C      1  0.3200100000000  0.4097730000000  0.3511130000000 1.0
C      1  0.5366790000000  0.2390220000000  0.4766390000000 1.0
C      1  0.4984960000000  0.2879780000000  0.3335630000000 1.0
C      1  0.5280060000000  0.4243260000000  0.2665000000000 1.0
C      1  0.5172390000000  0.5937560000000  0.2878510000000 1.0
C      1  0.5147910000000  0.7405630000000  0.3425390000000 1.0
C      1  0.5374260000000  0.7569200000000  0.4949140000000 1.0
C      1  0.5164570000000  0.6929090000000  0.6512860000000 1.0
C      1  0.5273990000000  0.5728240000000  0.7501480000000 1.0
C      1  0.5154240000000  0.4083300000000  0.7312410000000 1.0
C      1  0.5383620000000  0.2813960000000  0.6449360000000 1.0
C      1  0.4713960000000  0.3366250000000  0.6848830000000 1.0
C      1  0.5011010000000  0.2416850000000  0.5663640000000 1.0
C      1  0.4620240000000  0.2523350000000  0.4155820000000 1.0
C      1  0.4626330000000  0.3558930000000  0.2770380000000 1.0
C      1  0.4829790000000  0.5085090000000  0.2624780000000 1.0
C      1  0.4588280000000  0.6688260000000  0.3091840000000 1.0
C      1  0.4799330000000  0.7736560000000  0.4224440000000 1.0
C      1  0.4814500000000  0.7262350000000  0.5686400000000 1.0
C      1  0.4686610000000  0.6407150000000  0.7165010000000 1.0
C      1  0.4776920000000  0.4914490000000  0.7546510000000 1.0
END
