TITL C-1525613-7943-3739 4.14072706425396 3375 -4856.40260151203 0 0 60 (C5) n - 1
REM
REM in /home/nfs/bkarasulu/CARBON/AIRSS/Generating-Clusters/ReaxFF-fromJPCA2015/Units_Real/Try2-Higher-symm/Only-C60
REM
REM
REM
REM
REM
REM ./C.cell (863b2abdce7293c0672fb3ba77bf323a)
REM AIRSS Version 0.9.1 bugfix July 2018 build 013d7b7c2542+ Fri, 06 Jul 2018 19:26:36 +0100
REM compiler GCC version 9.2.1 20190827 (Red Hat 9.2.1-1)
REM options -cpp -mtune=generic -march=x86-64 -g -O0 -fpre-include=/usr/include/finclude/math-vector-fortran.h
REM seed 1485806790 1641556966 506816878 1799638225 2062662561 1116687445 936393412 -352192808 -972840444 -1268919310 2066617596 910068636 1564172298 417847751 2102751247 1813434348 -83831042 -578803623 423994549 756418480 -1009444904 1829841948 -73822105 -1032808424 582369414 -30148018 502184434 118368269 -160951188 1204396249 -1633058373 -662404565 1440189317
REM
CELL 1.54180   15.00000   15.00000   15.00000   90.00000   90.00000   90.00000
LATT -1
SFAC C  
C      1  0.5384610000000  0.4365190000000  0.5975220000000 1.0
C      1  0.5384870000000  0.5732350000000  0.5903730000000 1.0
C      1  0.5385030000000  0.6085360000000  0.4585600000000 1.0
C      1  0.5384710000000  0.4939640000000  0.3837430000000 1.0
C      1  0.5384910000000  0.3877600000000  0.4697160000000 1.0
C      1  0.4615140000000  0.4364940000000  0.5974760000000 1.0
C      1  0.4615120000000  0.5732530000000  0.5903730000000 1.0
C      1  0.4615050000000  0.6085760000000  0.4585500000000 1.0
C      1  0.4615460000000  0.4939340000000  0.3837340000000 1.0
C      1  0.4614670000000  0.3877870000000  0.4698060000000 1.0
C      1  0.3555740000000  0.4264410000000  0.4276290000000 1.0
C      1  0.3551860000000  0.4090770000000  0.5478980000000 1.0
C      1  0.3557380000000  0.5168090000000  0.6017540000000 1.0
C      1  0.3556300000000  0.6018850000000  0.5151740000000 1.0
C      1  0.3552780000000  0.5459070000000  0.4076070000000 1.0
C      1  0.6444190000000  0.4265370000000  0.4275180000000 1.0
C      1  0.6445670000000  0.4086880000000  0.5478240000000 1.0
C      1  0.6443140000000  0.5168590000000  0.6018040000000 1.0
C      1  0.6443530000000  0.6018800000000  0.5151300000000 1.0
C      1  0.6447160000000  0.5458440000000  0.4076150000000 1.0
C      1  0.5856360000000  0.4377950000000  0.3128270000000 1.0
C      1  0.5858890000000  0.3032760000000  0.5013020000000 1.0
C      1  0.5856960000000  0.4403990000000  0.6878530000000 1.0
C      1  0.5856370000000  0.6601210000000  0.6148450000000 1.0
C      1  0.5859060000000  0.6583820000000  0.3833030000000 1.0
C      1  0.4144090000000  0.4377910000000  0.3127530000000 1.0
C      1  0.4142800000000  0.3029710000000  0.5011590000000 1.0
C      1  0.4143180000000  0.4403440000000  0.6878970000000 1.0
C      1  0.4143180000000  0.6601030000000  0.6147620000000 1.0
C      1  0.4140520000000  0.6582810000000  0.3833250000000 1.0
C      1  0.4501250000000  0.6896810000000  0.5247010000000 1.0
C      1  0.4498220000000  0.5818730000000  0.3275080000000 1.0
C      1  0.4500060000000  0.3610560000000  0.3685380000000 1.0
C      1  0.4500200000000  0.3323130000000  0.5914880000000 1.0
C      1  0.4499960000000  0.5351140000000  0.6880320000000 1.0
C      1  0.5498770000000  0.6898050000000  0.5247180000000 1.0
C      1  0.5501250000000  0.5818490000000  0.3274710000000 1.0
C      1  0.5499350000000  0.3610390000000  0.3685250000000 1.0
C      1  0.5500260000000  0.3322260000000  0.5914810000000 1.0
C      1  0.5500300000000  0.5351010000000  0.6880160000000 1.0
C      1  0.7336210000000  0.4956560000000  0.5828070000000 1.0
C      1  0.7355840000000  0.5778560000000  0.5299690000000 1.0
C      1  0.7347550000000  0.5518880000000  0.4351660000000 1.0
C      1  0.7334510000000  0.4552440000000  0.4304450000000 1.0
C      1  0.7357940000000  0.4195720000000  0.5216250000000 1.0
C      1  0.2664210000000  0.4956210000000  0.5827950000000 1.0
C      1  0.2643240000000  0.5778780000000  0.5299290000000 1.0
C      1  0.2653260000000  0.5518780000000  0.4352340000000 1.0
C      1  0.2665110000000  0.4552980000000  0.4304450000000 1.0
C      1  0.2643910000000  0.4196110000000  0.5215870000000 1.0
C      1  0.3575600000000  0.3789330000000  0.6402740000000 1.0
C      1  0.3574040000000  0.5959410000000  0.6582410000000 1.0
C      1  0.3574530000000  0.6802520000000  0.4578370000000 1.0
C      1  0.3576570000000  0.5153920000000  0.3151760000000 1.0
C      1  0.3572670000000  0.3294940000000  0.4282760000000 1.0
C      1  0.6424210000000  0.3789390000000  0.6402890000000 1.0
C      1  0.6425820000000  0.5959630000000  0.6582640000000 1.0
C      1  0.6425830000000  0.6802000000000  0.4578560000000 1.0
C      1  0.6423650000000  0.5154060000000  0.3152160000000 1.0
C      1  0.6426950000000  0.3294750000000  0.4282570000000 1.0
END
