TITL C-1525613-7943-2676 0.0170325731920425 3375 -9319.09893491409 0 0 60 (C2) n - 1
REM
REM in /home/nfs/bkarasulu/CARBON/AIRSS/Generating-Clusters/ReaxFF-fromJPCA2015/Units_Real/Try2-Higher-symm/Only-C60
REM
REM
REM
REM
REM
REM ./C.cell (863b2abdce7293c0672fb3ba77bf323a)
REM AIRSS Version 0.9.1 bugfix July 2018 build 013d7b7c2542+ Fri, 06 Jul 2018 19:26:36 +0100
REM compiler GCC version 9.2.1 20190827 (Red Hat 9.2.1-1)
REM options -cpp -mtune=generic -march=x86-64 -g -O0 -fpre-include=/usr/include/finclude/math-vector-fortran.h
REM seed -309327874 -1663033610 -107155950 -546951646 2037734337 447468645 -1175353227 -1931597650 -1443491926 -376326634 -1913811208 169068520 -1717029081 1763172550 1510860607 -1597373459 112309268 -1514001115 1821491683 657794974 -256138842 590841411 2083933611 -825051858 -210548374 -453668661 -1109220307 1552490568 494725386 -67851929 -1047086211 2101380610 635449748
REM
CELL 1.54180   15.00000   15.00000   15.00000   90.00000   90.00000   90.00000
LATT -1
SFAC C  
C      1  0.6039240000000  0.7085680000000  0.4639730000000 1.0
C      1  0.6220180000000  0.7201070000000  0.5983380000000 1.0
C      1  0.6137610000000  0.6507570000000  0.6742260000000 1.0
C      1  0.6148100000000  0.4717730000000  0.7300850000000 1.0
C      1  0.6160900000000  0.3776530000000  0.6980440000000 1.0
C      1  0.6038130000000  0.2914190000000  0.5361390000000 1.0
C      1  0.6219180000000  0.2795800000000  0.4015900000000 1.0
C      1  0.6137420000000  0.3493600000000  0.3257340000000 1.0
C      1  0.6148340000000  0.5282980000000  0.2699110000000 1.0
C      1  0.6162180000000  0.6222560000000  0.3019560000000 1.0
C      1  0.6888120000000  0.3483000000000  0.4448500000000 1.0
C      1  0.6710650000000  0.4115360000000  0.3724180000000 1.0
C      1  0.6814100000000  0.5036300000000  0.3397090000000 1.0
C      1  0.6825650000000  0.5966980000000  0.3701330000000 1.0
C      1  0.6727690000000  0.6485460000000  0.4575990000000 1.0
C      1  0.6886770000000  0.6518430000000  0.5551310000000 1.0
C      1  0.6710570000000  0.5885670000000  0.6275370000000 1.0
C      1  0.6814250000000  0.4962790000000  0.6603220000000 1.0
C      1  0.6825810000000  0.4033090000000  0.6298140000000 1.0
C      1  0.6727320000000  0.3514610000000  0.5424220000000 1.0
C      1  0.4037180000000  0.4214370000000  0.7177160000000 1.0
C      1  0.3856510000000  0.2988040000000  0.6339060000000 1.0
C      1  0.3928030000000  0.2619780000000  0.4981510000000 1.0
C      1  0.3923560000000  0.3127980000000  0.3538340000000 1.0
C      1  0.3844780000000  0.4328520000000  0.2691750000000 1.0
C      1  0.4037980000000  0.5788470000000  0.2822570000000 1.0
C      1  0.3855850000000  0.7010020000000  0.3655210000000 1.0
C      1  0.3927400000000  0.7381490000000  0.5025220000000 1.0
C      1  0.3925000000000  0.6874910000000  0.6459980000000 1.0
C      1  0.3844880000000  0.5670890000000  0.7308450000000 1.0
C      1  0.5325470000000  0.2598770000000  0.4102900000000 1.0
C      1  0.5352080000000  0.3809590000000  0.2775050000000 1.0
C      1  0.5369350000000  0.4729780000000  0.2486860000000 1.0
C      1  0.5391490000000  0.6803230000000  0.3197860000000 1.0
C      1  0.5392130000000  0.7355770000000  0.4022500000000 1.0
C      1  0.5323190000000  0.7402140000000  0.5897590000000 1.0
C      1  0.5352450000000  0.6190330000000  0.7224630000000 1.0
C      1  0.5368710000000  0.5270310000000  0.7513250000000 1.0
C      1  0.5393100000000  0.3196750000000  0.6800660000000 1.0
C      1  0.5390550000000  0.2645000000000  0.5978540000000 1.0
C      1  0.3305960000000  0.4557650000000  0.3480060000000 1.0
C      1  0.3421930000000  0.5522240000000  0.3546100000000 1.0
C      1  0.3320680000000  0.6301770000000  0.4116310000000 1.0
C      1  0.3377510000000  0.6561940000000  0.5043520000000 1.0
C      1  0.3366340000000  0.6245000000000  0.5969700000000 1.0
C      1  0.3306170000000  0.5440300000000  0.6520450000000 1.0
C      1  0.3423030000000  0.4477400000000  0.6454870000000 1.0
C      1  0.3320540000000  0.3699100000000  0.5884840000000 1.0
C      1  0.3377510000000  0.3437590000000  0.4955380000000 1.0
C      1  0.3367020000000  0.3754440000000  0.4030350000000 1.0
C      1  0.4437530000000  0.5028070000000  0.2376680000000 1.0
C      1  0.4459380000000  0.6649240000000  0.2966970000000 1.0
C      1  0.4416510000000  0.7563730000000  0.4216800000000 1.0
C      1  0.4406300000000  0.7535070000000  0.5894660000000 1.0
C      1  0.4396640000000  0.6459430000000  0.7188200000000 1.0
C      1  0.4437180000000  0.4971040000000  0.7622270000000 1.0
C      1  0.4460040000000  0.3350230000000  0.7034350000000 1.0
C      1  0.4414750000000  0.2437500000000  0.5782190000000 1.0
C      1  0.4406580000000  0.2462110000000  0.4105780000000 1.0
C      1  0.4396520000000  0.3540640000000  0.2812130000000 1.0
END
