TITL C-1525613-7943-1028 -0.0685573958386406 3375 -8410.64950130747 0 0 60 (C5) n - 1
REM
REM in /home/nfs/bkarasulu/CARBON/AIRSS/Generating-Clusters/ReaxFF-fromJPCA2015/Units_Real/Try2-Higher-symm/Only-C60
REM
REM
REM
REM
REM
REM ./C.cell (863b2abdce7293c0672fb3ba77bf323a)
REM AIRSS Version 0.9.1 bugfix July 2018 build 013d7b7c2542+ Fri, 06 Jul 2018 19:26:36 +0100
REM compiler GCC version 9.2.1 20190827 (Red Hat 9.2.1-1)
REM options -cpp -mtune=generic -march=x86-64 -g -O0 -fpre-include=/usr/include/finclude/math-vector-fortran.h
REM seed -1592785583 2119560068 1462484872 944533092 1710772039 -1274180331 -277977610 -17325169 -1941534383 1184060936 1256830390 -657001855 -470026102 1793086614 388637588 -1445830744 -1558733658 -1719958701 278207785 -1833540674 1127716875 679846132 -1903045195 841852125 -385876674 -1889017803 -99808507 2046550580 -2103171515 -666897287 365626899 -1731490285 1671684675
REM
CELL 1.54180   15.00000   15.00000   15.00000   90.00000   90.00000   90.00000
LATT -1
SFAC C  
C      1  0.4288920000000  0.4614860000000  0.5793530000000 1.0
C      1  0.5140190000000  0.4204130000000  0.5805030000000 1.0
C      1  0.5790650000000  0.4889670000000  0.5795930000000 1.0
C      1  0.5345440000000  0.5722340000000  0.5801970000000 1.0
C      1  0.4415470000000  0.5551480000000  0.5798980000000 1.0
C      1  0.4279500000000  0.4614280000000  0.4202130000000 1.0
C      1  0.5134780000000  0.4211010000000  0.4216060000000 1.0
C      1  0.5796300000000  0.4888600000000  0.4190790000000 1.0
C      1  0.5344280000000  0.5718790000000  0.4212100000000 1.0
C      1  0.4413090000000  0.5551180000000  0.4200530000000 1.0
C      1  0.3560720000000  0.5687770000000  0.2983850000000 1.0
C      1  0.3890100000000  0.3842540000000  0.2985160000000 1.0
C      1  0.5764410000000  0.3599570000000  0.2983360000000 1.0
C      1  0.6588440000000  0.5289370000000  0.2970880000000 1.0
C      1  0.5217150000000  0.6585140000000  0.2985360000000 1.0
C      1  0.3560670000000  0.5685160000000  0.7017220000000 1.0
C      1  0.3892940000000  0.3834940000000  0.7017000000000 1.0
C      1  0.5760710000000  0.3601350000000  0.7016020000000 1.0
C      1  0.6584590000000  0.5300190000000  0.7016990000000 1.0
C      1  0.5220040000000  0.6587800000000  0.7017030000000 1.0
C      1  0.3472920000000  0.4125290000000  0.4512450000000 1.0
C      1  0.5360440000000  0.3288570000000  0.4507220000000 1.0
C      1  0.6730230000000  0.4811840000000  0.4516050000000 1.0
C      1  0.5711930000000  0.6590850000000  0.4509980000000 1.0
C      1  0.3696520000000  0.6165580000000  0.4507240000000 1.0
C      1  0.3481120000000  0.4122510000000  0.5493730000000 1.0
C      1  0.5362360000000  0.3289740000000  0.5489110000000 1.0
C      1  0.6734530000000  0.4816270000000  0.5497380000000 1.0
C      1  0.5711790000000  0.6590210000000  0.5490120000000 1.0
C      1  0.3698450000000  0.6164540000000  0.5488020000000 1.0
C      1  0.4668850000000  0.7121610000000  0.3608860000000 1.0
C      1  0.2874670000000  0.5335940000000  0.3601170000000 1.0
C      1  0.4025550000000  0.3086880000000  0.3610360000000 1.0
C      1  0.6530610000000  0.3487740000000  0.3598000000000 1.0
C      1  0.6921460000000  0.5972400000000  0.3605500000000 1.0
C      1  0.4667490000000  0.7119700000000  0.6391010000000 1.0
C      1  0.2877780000000  0.5332210000000  0.6396340000000 1.0
C      1  0.4022560000000  0.3082240000000  0.6388620000000 1.0
C      1  0.6522260000000  0.3491480000000  0.6395700000000 1.0
C      1  0.6925890000000  0.5987030000000  0.6393590000000 1.0
C      1  0.6111360000000  0.6123260000000  0.3051610000000 1.0
C      1  0.4274720000000  0.6398070000000  0.3053690000000 1.0
C      1  0.3424680000000  0.4734710000000  0.3031110000000 1.0
C      1  0.4768730000000  0.3456360000000  0.3062750000000 1.0
C      1  0.6425900000000  0.4298860000000  0.3030450000000 1.0
C      1  0.6123330000000  0.6143900000000  0.6960860000000 1.0
C      1  0.4279700000000  0.6390910000000  0.6941700000000 1.0
C      1  0.3434440000000  0.4732340000000  0.6961350000000 1.0
C      1  0.4765830000000  0.3435960000000  0.6947260000000 1.0
C      1  0.6415430000000  0.4305940000000  0.6956150000000 1.0
C      1  0.3596180000000  0.3155760000000  0.5510690000000 1.0
C      1  0.6322400000000  0.3127760000000  0.5507920000000 1.0
C      1  0.7207330000000  0.5669110000000  0.5512200000000 1.0
C      1  0.5052820000000  0.7307970000000  0.5510530000000 1.0
C      1  0.2819270000000  0.5746180000000  0.5510060000000 1.0
C      1  0.3598260000000  0.3159890000000  0.4487570000000 1.0
C      1  0.6322430000000  0.3130970000000  0.4484720000000 1.0
C      1  0.7204250000000  0.5663100000000  0.4490210000000 1.0
C      1  0.5050670000000  0.7307490000000  0.4490740000000 1.0
C      1  0.2816440000000  0.5748620000000  0.4488050000000 1.0
END
