TITL C-1525613-7943-6638 -0.00798652629558688 3375 -9277.67664481756 0 0 60 (C1) n - 1
REM
REM in /home/nfs/bkarasulu/CARBON/AIRSS/Generating-Clusters/ReaxFF-fromJPCA2015/Units_Real/Try2-Higher-symm/Only-C60
REM
REM
REM
REM
REM
REM ./C.cell (863b2abdce7293c0672fb3ba77bf323a)
REM AIRSS Version 0.9.1 bugfix July 2018 build 013d7b7c2542+ Fri, 06 Jul 2018 19:26:36 +0100
REM compiler GCC version 9.2.1 20190827 (Red Hat 9.2.1-1)
REM options -cpp -mtune=generic -march=x86-64 -g -O0 -fpre-include=/usr/include/finclude/math-vector-fortran.h
REM seed 1880418639 655388123 -16214156 674918523 -406154751 -956338670 2082361160 699010399 1147650147 237518239 -595953724 1987261828 1136707388 -308821972 -73803156 1575682252 1138062882 -1022516098 842397298 -93998154 -775991400 -2002569589 -1307288528 763814291 -1288449207 -690303894 -914712670 2145750860 -1668931218 -233480344 17179666 171700835 1462473213
REM
CELL 1.54180   15.00000   15.00000   15.00000   90.00000   90.00000   90.00000
LATT -1
SFAC C  
C      1  0.4609900000000  0.4705780000000  0.2603490000000 1.0
C      1  0.4613130000000  0.7203060000000  0.3986460000000 1.0
C      1  0.4602150000000  0.6634260000000  0.6806930000000 1.0
C      1  0.4611360000000  0.3808400000000  0.7080300000000 1.0
C      1  0.4592200000000  0.2642620000000  0.4530380000000 1.0
C      1  0.4602210000000  0.4706630000000  0.7409530000000 1.0
C      1  0.4612980000000  0.7199240000000  0.6016590000000 1.0
C      1  0.4606760000000  0.6637340000000  0.3196630000000 1.0
C      1  0.4622450000000  0.3807230000000  0.2940210000000 1.0
C      1  0.4597790000000  0.2657820000000  0.5484820000000 1.0
C      1  0.3093650000000  0.4986140000000  0.3401850000000 1.0
C      1  0.3106430000000  0.6493390000000  0.4501170000000 1.0
C      1  0.3093600000000  0.5929130000000  0.6288530000000 1.0
C      1  0.3123520000000  0.4070360000000  0.6278300000000 1.0
C      1  0.3115910000000  0.3485530000000  0.4515850000000 1.0
C      1  0.3092140000000  0.4983960000000  0.6596740000000 1.0
C      1  0.3107260000000  0.6491060000000  0.5497890000000 1.0
C      1  0.3097080000000  0.5931970000000  0.3710300000000 1.0
C      1  0.3129930000000  0.4075970000000  0.3719890000000 1.0
C      1  0.3132540000000  0.3491860000000  0.5478140000000 1.0
C      1  0.6335690000000  0.2779850000000  0.3996420000000 1.0
C      1  0.6349310000000  0.5252060000000  0.2568650000000 1.0
C      1  0.6361470000000  0.7390700000000  0.4503440000000 1.0
C      1  0.6341500000000  0.6195240000000  0.7126240000000 1.0
C      1  0.6330120000000  0.3358780000000  0.6784310000000 1.0
C      1  0.6322600000000  0.2784100000000  0.5986590000000 1.0
C      1  0.6343080000000  0.5247090000000  0.7427110000000 1.0
C      1  0.6363370000000  0.7388900000000  0.5497840000000 1.0
C      1  0.6348120000000  0.6200600000000  0.2867540000000 1.0
C      1  0.6322890000000  0.3372060000000  0.3212090000000 1.0
C      1  0.6795710000000  0.6491990000000  0.4504110000000 1.0
C      1  0.6753090000000  0.5914990000000  0.6259290000000 1.0
C      1  0.6806220000000  0.4061160000000  0.6272110000000 1.0
C      1  0.6801600000000  0.3490120000000  0.4507950000000 1.0
C      1  0.6783590000000  0.4988460000000  0.3426680000000 1.0
C      1  0.6804040000000  0.6493070000000  0.5491230000000 1.0
C      1  0.6772830000000  0.5923110000000  0.3729250000000 1.0
C      1  0.6799400000000  0.4070540000000  0.3722550000000 1.0
C      1  0.6792770000000  0.3490030000000  0.5475320000000 1.0
C      1  0.6769000000000  0.4980330000000  0.6564760000000 1.0
C      1  0.5360290000000  0.6239330000000  0.7280700000000 1.0
C      1  0.5354220000000  0.3280240000000  0.6827420000000 1.0
C      1  0.5349350000000  0.2700440000000  0.3928320000000 1.0
C      1  0.5365500000000  0.5295040000000  0.2435500000000 1.0
C      1  0.5375040000000  0.7524400000000  0.4507920000000 1.0
C      1  0.5365190000000  0.6240960000000  0.2724860000000 1.0
C      1  0.5362400000000  0.3281710000000  0.3178590000000 1.0
C      1  0.5344890000000  0.2724360000000  0.6062870000000 1.0
C      1  0.5361210000000  0.5294610000000  0.7572550000000 1.0
C      1  0.5376660000000  0.7520700000000  0.5497500000000 1.0
C      1  0.3775160000000  0.6147380000000  0.3018290000000 1.0
C      1  0.3781870000000  0.7218720000000  0.5493650000000 1.0
C      1  0.3770430000000  0.5207490000000  0.7280610000000 1.0
C      1  0.3817870000000  0.2968420000000  0.5898130000000 1.0
C      1  0.3827120000000  0.3505030000000  0.3351760000000 1.0
C      1  0.3768790000000  0.6146470000000  0.6983700000000 1.0
C      1  0.3781340000000  0.7221100000000  0.4507980000000 1.0
C      1  0.3778300000000  0.5207390000000  0.2723250000000 1.0
C      1  0.3804600000000  0.2954830000000  0.4102060000000 1.0
C      1  0.3820360000000  0.3506460000000  0.6656850000000 1.0
END
