TITL C-1525613-7943-3884 -0.000553136380791271 3375 -9158.6591513971 0 0 60 (C2) n - 1
REM
REM in /home/nfs/bkarasulu/CARBON/AIRSS/Generating-Clusters/ReaxFF-fromJPCA2015/Units_Real/Try2-Higher-symm/Only-C60
REM
REM
REM
REM
REM
REM ./C.cell (863b2abdce7293c0672fb3ba77bf323a)
REM AIRSS Version 0.9.1 bugfix July 2018 build 013d7b7c2542+ Fri, 06 Jul 2018 19:26:36 +0100
REM compiler GCC version 9.2.1 20190827 (Red Hat 9.2.1-1)
REM options -cpp -mtune=generic -march=x86-64 -g -O0 -fpre-include=/usr/include/finclude/math-vector-fortran.h
REM seed 1645318367 1446147317 21410725 558499166 2865601 -2023709597 1386718959 -668765312 -306835749 -208087940 1260690657 -1907956841 -1563442847 132712184 -341629797 -903080101 397977553 -841344869 894198877 -654530602 -768502596 -2118379641 1934288520 1389775890 -1516498314 -137969572 2128340081 -1280174195 1179889785 -1106803712 -1676610701 879748000 -818775076
REM
CELL 1.54180   15.00000   15.00000   15.00000   90.00000   90.00000   90.00000
LATT -1
SFAC C  
C      1  0.5015570000000  0.3815370000000  0.3169760000000 1.0
C      1  0.5911330000000  0.3702170000000  0.3258570000000 1.0
C      1  0.6144050000000  0.4604600000000  0.3149650000000 1.0
C      1  0.6138890000000  0.5438720000000  0.3152150000000 1.0
C      1  0.5898370000000  0.6355710000000  0.3270980000000 1.0
C      1  0.4984440000000  0.6184870000000  0.3169910000000 1.0
C      1  0.4088680000000  0.6298060000000  0.3258730000000 1.0
C      1  0.3855960000000  0.5395640000000  0.3149690000000 1.0
C      1  0.3861120000000  0.4561520000000  0.3152090000000 1.0
C      1  0.4101640000000  0.3644510000000  0.3270800000000 1.0
C      1  0.7607790000000  0.5367610000000  0.5543480000000 1.0
C      1  0.6937160000000  0.6857980000000  0.5625990000000 1.0
C      1  0.5464640000000  0.7486930000000  0.5488230000000 1.0
C      1  0.3854760000000  0.7478410000000  0.5618790000000 1.0
C      1  0.2709350000000  0.6309160000000  0.5482110000000 1.0
C      1  0.2392210000000  0.4632320000000  0.5543420000000 1.0
C      1  0.3062840000000  0.3141930000000  0.5625740000000 1.0
C      1  0.4535360000000  0.2513010000000  0.5487900000000 1.0
C      1  0.6145230000000  0.2521510000000  0.5618480000000 1.0
C      1  0.7290650000000  0.3690780000000  0.5481950000000 1.0
C      1  0.5389310000000  0.7354250000000  0.4526610000000 1.0
C      1  0.3803060000000  0.7624350000000  0.4671230000000 1.0
C      1  0.2939900000000  0.6341100000000  0.4509480000000 1.0
C      1  0.2358170000000  0.4644530000000  0.4527220000000 1.0
C      1  0.3035860000000  0.3047760000000  0.4608290000000 1.0
C      1  0.4610690000000  0.2645810000000  0.4526300000000 1.0
C      1  0.6196940000000  0.2375700000000  0.4670900000000 1.0
C      1  0.7060100000000  0.3658960000000  0.4509320000000 1.0
C      1  0.7641830000000  0.5355530000000  0.4527280000000 1.0
C      1  0.6964140000000  0.6952290000000  0.4608560000000 1.0
C      1  0.7134200000000  0.6024890000000  0.6000240000000 1.0
C      1  0.6114860000000  0.7056390000000  0.5994840000000 1.0
C      1  0.4705170000000  0.7330180000000  0.5995930000000 1.0
C      1  0.3360350000000  0.6761320000000  0.6042230000000 1.0
C      1  0.2693710000000  0.5435330000000  0.5937940000000 1.0
C      1  0.2865790000000  0.3974990000000  0.6000090000000 1.0
C      1  0.3885140000000  0.2943480000000  0.5994570000000 1.0
C      1  0.5294820000000  0.2669690000000  0.5995630000000 1.0
C      1  0.6639640000000  0.3238540000000  0.6042010000000 1.0
C      1  0.7306280000000  0.4564550000000  0.5937900000000 1.0
C      1  0.6411360000000  0.5663980000000  0.6515460000000 1.0
C      1  0.5742930000000  0.6358410000000  0.6529170000000 1.0
C      1  0.4794250000000  0.6547720000000  0.6531280000000 1.0
C      1  0.3914120000000  0.6148040000000  0.6550830000000 1.0
C      1  0.3473570000000  0.5291600000000  0.6497700000000 1.0
C      1  0.3588630000000  0.4335820000000  0.6515360000000 1.0
C      1  0.4257060000000  0.3641390000000  0.6528990000000 1.0
C      1  0.5205750000000  0.3452080000000  0.6531080000000 1.0
C      1  0.6085870000000  0.3851760000000  0.6550690000000 1.0
C      1  0.6526430000000  0.4708200000000  0.6497670000000 1.0
C      1  0.6134740000000  0.6952980000000  0.4068360000000 1.0
C      1  0.4510540000000  0.7476620000000  0.4161500000000 1.0
C      1  0.3620380000000  0.7003280000000  0.3962910000000 1.0
C      1  0.2679310000000  0.5534030000000  0.4346780000000 1.0
C      1  0.2784260000000  0.3845370000000  0.4264200000000 1.0
C      1  0.3865270000000  0.3047140000000  0.4068100000000 1.0
C      1  0.5489460000000  0.2523490000000  0.4161190000000 1.0
C      1  0.6379630000000  0.2996860000000  0.3962660000000 1.0
C      1  0.7320690000000  0.4466050000000  0.4346730000000 1.0
C      1  0.7215740000000  0.6154720000000  0.4264360000000 1.0
END
