TITL C-1525613-7943-2038 -0.0171916981271927 3375 -8692.33555938016 0 0 60 (Ci) n - 1
REM
REM in /home/nfs/bkarasulu/CARBON/AIRSS/Generating-Clusters/ReaxFF-fromJPCA2015/Units_Real/Try2-Higher-symm/Only-C60
REM
REM
REM
REM
REM
REM ./C.cell (863b2abdce7293c0672fb3ba77bf323a)
REM AIRSS Version 0.9.1 bugfix July 2018 build 013d7b7c2542+ Fri, 06 Jul 2018 19:26:36 +0100
REM compiler GCC version 9.2.1 20190827 (Red Hat 9.2.1-1)
REM options -cpp -mtune=generic -march=x86-64 -g -O0 -fpre-include=/usr/include/finclude/math-vector-fortran.h
REM seed 302119221 1179207491 -760385811 -1388121103 -222092100 193458339 -1866072164 -693852398 -2133805399 -494051473 -318787174 -248779203 978551556 523996534 -2134293981 478941118 -723137781 83630979 951207218 1379211082 643595232 466358013 550992671 -878212169 1645419211 -191124129 1574920325 -1774542597 244941079 -515649422 1749424791 -395642962 -1525269051
REM
CELL 1.54180   15.00000   15.00000   15.00000   90.00000   90.00000   90.00000
LATT -1
SFAC C  
C      1  0.5863390000000  0.5366170000000  0.4456840000000 1.0
C      1  0.5485390000000  0.5479260000000  0.5848000000000 1.0
C      1  0.5082520000000  0.5917470000000  0.4567040000000 1.0
C      1  0.4514020000000  0.5462410000000  0.5856100000000 1.0
C      1  0.4259480000000  0.5431260000000  0.4399340000000 1.0
C      1  0.4137940000000  0.4636370000000  0.5539440000000 1.0
C      1  0.4516920000000  0.4525170000000  0.4149250000000 1.0
C      1  0.4917250000000  0.4086790000000  0.5432490000000 1.0
C      1  0.5486080000000  0.4538990000000  0.4141430000000 1.0
C      1  0.5736630000000  0.4569730000000  0.5596610000000 1.0
C      1  0.6336520000000  0.3640950000000  0.3584950000000 1.0
C      1  0.6744750000000  0.4689760000000  0.6570080000000 1.0
C      1  0.6372030000000  0.5935690000000  0.3320900000000 1.0
C      1  0.5941980000000  0.6642410000000  0.6393150000000 1.0
C      1  0.4706480000000  0.6687230000000  0.3489610000000 1.0
C      1  0.3660550000000  0.6359380000000  0.6414060000000 1.0
C      1  0.3248820000000  0.5308100000000  0.3432110000000 1.0
C      1  0.3628760000000  0.4064400000000  0.6674220000000 1.0
C      1  0.4063090000000  0.3361680000000  0.3608000000000 1.0
C      1  0.5302800000000  0.3336490000000  0.6529590000000 1.0
C      1  0.5617850000000  0.4368810000000  0.3170860000000 1.0
C      1  0.5895010000000  0.4842160000000  0.7035970000000 1.0
C      1  0.5700480000000  0.5367110000000  0.2957090000000 1.0
C      1  0.5504630000000  0.5738790000000  0.6818760000000 1.0
C      1  0.4826840000000  0.5818190000000  0.3003420000000 1.0
C      1  0.4379540000000  0.5628610000000  0.6827690000000 1.0
C      1  0.4107380000000  0.5167810000000  0.2972700000000 1.0
C      1  0.4293820000000  0.4635110000000  0.7044840000000 1.0
C      1  0.4496040000000  0.4262710000000  0.3178710000000 1.0
C      1  0.5174260000000  0.4188970000000  0.7017510000000 1.0
C      1  0.6528360000000  0.6627890000000  0.3886790000000 1.0
C      1  0.5271020000000  0.7143480000000  0.6012600000000 1.0
C      1  0.3928870000000  0.6878560000000  0.3922330000000 1.0
C      1  0.2972460000000  0.5907730000000  0.6004410000000 1.0
C      1  0.2894820000000  0.4579510000000  0.3858600000000 1.0
C      1  0.3473020000000  0.3370230000000  0.6109650000000 1.0
C      1  0.4734480000000  0.2861840000000  0.3985890000000 1.0
C      1  0.6062160000000  0.3114860000000  0.6072830000000 1.0
C      1  0.7020220000000  0.4093230000000  0.4001580000000 1.0
C      1  0.7099120000000  0.5415760000000  0.6136970000000 1.0
C      1  0.3384780000000  0.6748130000000  0.4664960000000 1.0
C      1  0.2753950000000  0.5360540000000  0.5298350000000 1.0
C      1  0.2876610000000  0.3979390000000  0.4566880000000 1.0
C      1  0.3826210000000  0.2970740000000  0.5335540000000 1.0
C      1  0.5343380000000  0.2710300000000  0.4639660000000 1.0
C      1  0.6610430000000  0.3247780000000  0.5328680000000 1.0
C      1  0.7241150000000  0.4638000000000  0.4707550000000 1.0
C      1  0.7123430000000  0.6020650000000  0.5434030000000 1.0
C      1  0.6174730000000  0.7030510000000  0.4662310000000 1.0
C      1  0.4664190000000  0.7277040000000  0.5347660000000 1.0
C      1  0.6854350000000  0.5531350000000  0.4566450000000 1.0
C      1  0.6505010000000  0.6766260000000  0.5569220000000 1.0
C      1  0.5192410000000  0.6908600000000  0.4502370000000 1.0
C      1  0.3785060000000  0.6911280000000  0.5570770000000 1.0
C      1  0.3248080000000  0.5763930000000  0.4462200000000 1.0
C      1  0.3144400000000  0.4470730000000  0.5433060000000 1.0
C      1  0.3497860000000  0.3235300000000  0.4431010000000 1.0
C      1  0.4817860000000  0.3079400000000  0.5497430000000 1.0
C      1  0.6222120000000  0.3073180000000  0.4421430000000 1.0
C      1  0.6748190000000  0.4225840000000  0.5538060000000 1.0
END
