TITL C-1525613-7943-3280 0.00180332361991747 3375 -9533.22192765062 0 0 60 (C1) n - 1
REM
REM in /home/nfs/bkarasulu/CARBON/AIRSS/Generating-Clusters/ReaxFF-fromJPCA2015/Units_Real/Try2-Higher-symm/Only-C60
REM
REM
REM
REM
REM
REM ./C.cell (863b2abdce7293c0672fb3ba77bf323a)
REM AIRSS Version 0.9.1 bugfix July 2018 build 013d7b7c2542+ Fri, 06 Jul 2018 19:26:36 +0100
REM compiler GCC version 9.2.1 20190827 (Red Hat 9.2.1-1)
REM options -cpp -mtune=generic -march=x86-64 -g -O0 -fpre-include=/usr/include/finclude/math-vector-fortran.h
REM seed 1173136608 1033128465 1503672036 1509224463 654573645 140172870 -84906847 -1581302431 543690329 578926883 -1502509976 -133674059 -270121252 1204458553 -1588418725 -695502676 1211726060 -1079679241 516124678 -719079553 383933245 -877476262 -317700094 649129824 2072560841 -1685216768 262751030 113729914 545306783 829702177 -664848914 1623913356 1901546925
REM
CELL 1.54180   15.00000   15.00000   15.00000   90.00000   90.00000   90.00000
LATT -1
SFAC C  
C      1  0.6070880000000  0.7125250000000  0.5129030000000 1.0
C      1  0.7000550000000  0.5359610000000  0.7277770000000 1.0
C      1  0.5972430000000  0.2873820000000  0.5985900000000 1.0
C      1  0.5963800000000  0.3393410000000  0.3147790000000 1.0
C      1  0.5927280000000  0.6225490000000  0.3083310000000 1.0
C      1  0.3940520000000  0.7132240000000  0.5125080000000 1.0
C      1  0.3007230000000  0.5361050000000  0.7288060000000 1.0
C      1  0.4038100000000  0.2865590000000  0.5990140000000 1.0
C      1  0.4044740000000  0.3369140000000  0.3126770000000 1.0
C      1  0.4065750000000  0.6277770000000  0.3013820000000 1.0
C      1  0.5939780000000  0.4231610000000  0.6985440000000 1.0
C      1  0.5970770000000  0.2575360000000  0.4618300000000 1.0
C      1  0.5940530000000  0.4661630000000  0.2649380000000 1.0
C      1  0.6144990000000  0.7029480000000  0.4166810000000 1.0
C      1  0.6053390000000  0.6526660000000  0.6595870000000 1.0
C      1  0.4065960000000  0.4228550000000  0.6990980000000 1.0
C      1  0.4041960000000  0.2571320000000  0.4620750000000 1.0
C      1  0.4040760000000  0.4656130000000  0.2575310000000 1.0
C      1  0.3857650000000  0.7065330000000  0.4156570000000 1.0
C      1  0.3958010000000  0.6528410000000  0.6597990000000 1.0
C      1  0.3540630000000  0.4203600000000  0.3305290000000 1.0
C      1  0.3423860000000  0.6268850000000  0.3768410000000 1.0
C      1  0.3613580000000  0.6420860000000  0.5701360000000 1.0
C      1  0.3185160000000  0.4568900000000  0.6694560000000 1.0
C      1  0.3522020000000  0.3182150000000  0.5203080000000 1.0
C      1  0.6414840000000  0.4240260000000  0.3344610000000 1.0
C      1  0.6524660000000  0.6224430000000  0.3802320000000 1.0
C      1  0.6393810000000  0.6416860000000  0.5700150000000 1.0
C      1  0.6819550000000  0.4571260000000  0.6681310000000 1.0
C      1  0.6479940000000  0.3195150000000  0.5196980000000 1.0
C      1  0.6888790000000  0.4751300000000  0.5713390000000 1.0
C      1  0.6758010000000  0.4110920000000  0.5011300000000 1.0
C      1  0.6703470000000  0.4584720000000  0.4174620000000 1.0
C      1  0.6752240000000  0.5508440000000  0.4360170000000 1.0
C      1  0.6775020000000  0.5616240000000  0.5307840000000 1.0
C      1  0.3107200000000  0.4745720000000  0.5723260000000 1.0
C      1  0.3233210000000  0.4097190000000  0.5021080000000 1.0
C      1  0.3268810000000  0.4566260000000  0.4167190000000 1.0
C      1  0.3213500000000  0.5512930000000  0.4355410000000 1.0
C      1  0.3210980000000  0.5619020000000  0.5316560000000 1.0
C      1  0.4519460000000  0.3816860000000  0.2382710000000 1.0
C      1  0.4519030000000  0.7058180000000  0.3411690000000 1.0
C      1  0.4510900000000  0.7335870000000  0.6583140000000 1.0
C      1  0.4525320000000  0.5024120000000  0.7302180000000 1.0
C      1  0.4517050000000  0.2219600000000  0.5416100000000 1.0
C      1  0.5496310000000  0.3840680000000  0.2407560000000 1.0
C      1  0.5493240000000  0.7026130000000  0.3424600000000 1.0
C      1  0.5503380000000  0.7335080000000  0.6582540000000 1.0
C      1  0.5480490000000  0.5025220000000  0.7300520000000 1.0
C      1  0.5498870000000  0.2221410000000  0.5415230000000 1.0
C      1  0.5489400000000  0.5480680000000  0.2703450000000 1.0
C      1  0.5502880000000  0.7709770000000  0.5669400000000 1.0
C      1  0.6104220000000  0.5807180000000  0.7275850000000 1.0
C      1  0.5489210000000  0.3461250000000  0.6609930000000 1.0
C      1  0.5491430000000  0.2849920000000  0.3808380000000 1.0
C      1  0.4531980000000  0.5497010000000  0.2662430000000 1.0
C      1  0.4511510000000  0.7713050000000  0.5670270000000 1.0
C      1  0.3903630000000  0.5806960000000  0.7278370000000 1.0
C      1  0.4516500000000  0.3459420000000  0.6612440000000 1.0
C      1  0.4520850000000  0.2848690000000  0.3809250000000 1.0
END
