TITL C-1525613-7943-1202 0.0533980165673945 3375 -8993.46194676004 0 0 60 (C1) n - 1
REM
REM in /home/nfs/bkarasulu/CARBON/AIRSS/Generating-Clusters/ReaxFF-fromJPCA2015/Units_Real/Try2-Higher-symm/Only-C60
REM
REM
REM
REM
REM
REM ./C.cell (863b2abdce7293c0672fb3ba77bf323a)
REM AIRSS Version 0.9.1 bugfix July 2018 build 013d7b7c2542+ Fri, 06 Jul 2018 19:26:36 +0100
REM compiler GCC version 9.2.1 20190827 (Red Hat 9.2.1-1)
REM options -cpp -mtune=generic -march=x86-64 -g -O0 -fpre-include=/usr/include/finclude/math-vector-fortran.h
REM seed -697265013 -2062828130 238115681 -1150715381 -931030521 1552010828 -1282772253 1993746509 2051713402 701574477 -540568770 124500586 -1909604467 -1858232928 420209899 998790531 -23317183 -3951580 -594579034 1533549745 206286039 -1440157453 -1458771299 749010280 1251937741 1567220392 2078362721 642721896 -1799315794 -1954612615 -56836821 -1368484566 1295297480
REM
CELL 1.54180   15.00000   15.00000   15.00000   90.00000   90.00000   90.00000
LATT -1
SFAC C  
C      1  0.5797110000000  0.4977330000000  0.5767980000000 1.0
C      1  0.5566400000000  0.4229220000000  0.5256370000000 1.0
C      1  0.5567910000000  0.4524230000000  0.4329700000000 1.0
C      1  0.5568690000000  0.5496460000000  0.4359330000000 1.0
C      1  0.5553850000000  0.5747260000000  0.5296110000000 1.0
C      1  0.4211200000000  0.4980160000000  0.5785760000000 1.0
C      1  0.4434440000000  0.4226270000000  0.5297920000000 1.0
C      1  0.4433110000000  0.4508310000000  0.4316310000000 1.0
C      1  0.4424620000000  0.5517630000000  0.4344830000000 1.0
C      1  0.4442630000000  0.5756880000000  0.5338650000000 1.0
C      1  0.6961120000000  0.6488330000000  0.5536540000000 1.0
C      1  0.7030930000000  0.4957720000000  0.6588910000000 1.0
C      1  0.6971730000000  0.3495100000000  0.5456690000000 1.0
C      1  0.6961970000000  0.4104410000000  0.3710370000000 1.0
C      1  0.6957230000000  0.5952140000000  0.3761330000000 1.0
C      1  0.3037920000000  0.6519140000000  0.5532960000000 1.0
C      1  0.2983110000000  0.4961200000000  0.6548630000000 1.0
C      1  0.3030790000000  0.3469280000000  0.5452430000000 1.0
C      1  0.3030810000000  0.4095580000000  0.3710410000000 1.0
C      1  0.3030980000000  0.5968320000000  0.3758710000000 1.0
C      1  0.2706420000000  0.4127820000000  0.6116670000000 1.0
C      1  0.2741060000000  0.3622060000000  0.4526380000000 1.0
C      1  0.2760720000000  0.5034300000000  0.3621410000000 1.0
C      1  0.2755760000000  0.6402460000000  0.4599300000000 1.0
C      1  0.2725750000000  0.5818850000000  0.6159360000000 1.0
C      1  0.7299960000000  0.4128110000000  0.6140980000000 1.0
C      1  0.7265830000000  0.3652110000000  0.4532790000000 1.0
C      1  0.7260570000000  0.5032440000000  0.3579680000000 1.0
C      1  0.7249940000000  0.6367490000000  0.4605240000000 1.0
C      1  0.7280690000000  0.5811770000000  0.6182780000000 1.0
C      1  0.4513610000000  0.3060220000000  0.3803670000000 1.0
C      1  0.4508490000000  0.5543630000000  0.2806010000000 1.0
C      1  0.4510970000000  0.7278090000000  0.4855300000000 1.0
C      1  0.4516460000000  0.5860350000000  0.7041220000000 1.0
C      1  0.4514280000000  0.3226860000000  0.6456360000000 1.0
C      1  0.5487270000000  0.3071360000000  0.3807170000000 1.0
C      1  0.5480500000000  0.5540860000000  0.2817630000000 1.0
C      1  0.5486790000000  0.7268180000000  0.4854260000000 1.0
C      1  0.5481870000000  0.5858040000000  0.7047310000000 1.0
C      1  0.5495000000000  0.3239040000000  0.6447520000000 1.0
C      1  0.4038970000000  0.3951600000000  0.3505140000000 1.0
C      1  0.4040480000000  0.6115630000000  0.3564400000000 1.0
C      1  0.4044890000000  0.6734890000000  0.5617270000000 1.0
C      1  0.4034710000000  0.4956320000000  0.6693260000000 1.0
C      1  0.4041920000000  0.3249930000000  0.5523940000000 1.0
C      1  0.5943990000000  0.3982790000000  0.3541860000000 1.0
C      1  0.5939040000000  0.6077700000000  0.3604940000000 1.0
C      1  0.5947070000000  0.6694700000000  0.5601660000000 1.0
C      1  0.5981770000000  0.4955510000000  0.6725800000000 1.0
C      1  0.5952990000000  0.3291670000000  0.5508100000000 1.0
C      1  0.4515460000000  0.2743660000000  0.4735330000000 1.0
C      1  0.4507460000000  0.4560070000000  0.2778350000000 1.0
C      1  0.4511850000000  0.6993350000000  0.3912170000000 1.0
C      1  0.4509950000000  0.6706190000000  0.6548780000000 1.0
C      1  0.4519410000000  0.4039610000000  0.6999410000000 1.0
C      1  0.5490150000000  0.2752060000000  0.4733630000000 1.0
C      1  0.5480230000000  0.4560850000000  0.2788870000000 1.0
C      1  0.5483180000000  0.6978070000000  0.3917800000000 1.0
C      1  0.5491580000000  0.6695340000000  0.6541430000000 1.0
C      1  0.5486420000000  0.4041080000000  0.7006900000000 1.0
END
