TITL C-1525613-7943-5855 -0.0487490502906256 3375 -9071.29008217676 0 0 60 (C1) n - 1
REM
REM in /home/nfs/bkarasulu/CARBON/AIRSS/Generating-Clusters/ReaxFF-fromJPCA2015/Units_Real/Try2-Higher-symm/Only-C60
REM
REM
REM
REM
REM
REM ./C.cell (863b2abdce7293c0672fb3ba77bf323a)
REM AIRSS Version 0.9.1 bugfix July 2018 build 013d7b7c2542+ Fri, 06 Jul 2018 19:26:36 +0100
REM compiler GCC version 9.2.1 20190827 (Red Hat 9.2.1-1)
REM options -cpp -mtune=generic -march=x86-64 -g -O0 -fpre-include=/usr/include/finclude/math-vector-fortran.h
REM seed -2114711832 -17499129 -1889402989 -574030262 -1941889566 1229355877 -1548697271 -1611847530 584543300 1148580609 1352325730 -1227128712 -793057793 900755008 110414465 -1146755195 -1390170654 550500274 -912063767 -499220500 63726022 2123210616 -1752416003 844283840 912524997 -551503938 -933038651 1622444728 1905587936 -647209474 -2116018985 -1234084832 -787860406
REM
CELL 1.54180   15.00000   15.00000   15.00000   90.00000   90.00000   90.00000
LATT -1
SFAC C  
C      1  0.5864990000000  0.6777440000000  0.6101770000000 1.0
C      1  0.5909190000000  0.4503220000000  0.7080340000000 1.0
C      1  0.5876680000000  0.3008570000000  0.5214060000000 1.0
C      1  0.5891000000000  0.4156990000000  0.3090460000000 1.0
C      1  0.5855820000000  0.6515360000000  0.3635610000000 1.0
C      1  0.4118970000000  0.3228540000000  0.6099910000000 1.0
C      1  0.4097080000000  0.5530230000000  0.7085970000000 1.0
C      1  0.4114220000000  0.7000130000000  0.5195040000000 1.0
C      1  0.4098540000000  0.5852110000000  0.3040950000000 1.0
C      1  0.4134310000000  0.3462900000000  0.3620660000000 1.0
C      1  0.6476350000000  0.3378830000000  0.4486170000000 1.0
C      1  0.6457710000000  0.4956780000000  0.3278790000000 1.0
C      1  0.6418260000000  0.6547360000000  0.4450590000000 1.0
C      1  0.6405940000000  0.6009680000000  0.6334230000000 1.0
C      1  0.6452110000000  0.4019940000000  0.6412650000000 1.0
C      1  0.3518550000000  0.6619580000000  0.4470550000000 1.0
C      1  0.3566310000000  0.5070830000000  0.3277660000000 1.0
C      1  0.3580540000000  0.3455430000000  0.4431590000000 1.0
C      1  0.3553280000000  0.3965940000000  0.6316190000000 1.0
C      1  0.3560930000000  0.5981780000000  0.6409990000000 1.0
C      1  0.5504400000000  0.4981460000000  0.5804320000000 1.0
C      1  0.5495660000000  0.4161110000000  0.5201240000000 1.0
C      1  0.5520970000000  0.4530360000000  0.4273460000000 1.0
C      1  0.5465810000000  0.5525790000000  0.4351260000000 1.0
C      1  0.5508320000000  0.5793120000000  0.5260140000000 1.0
C      1  0.4518920000000  0.4895560000000  0.5892860000000 1.0
C      1  0.4529910000000  0.5900980000000  0.5276180000000 1.0
C      1  0.4458700000000  0.5467390000000  0.4403060000000 1.0
C      1  0.4515790000000  0.4483680000000  0.4350560000000 1.0
C      1  0.4519990000000  0.4165680000000  0.5236590000000 1.0
C      1  0.3088810000000  0.5480020000000  0.5678990000000 1.0
C      1  0.3075440000000  0.4506170000000  0.5646570000000 1.0
C      1  0.3074660000000  0.4245880000000  0.4682890000000 1.0
C      1  0.3048520000000  0.5050590000000  0.4123860000000 1.0
C      1  0.3038370000000  0.5817200000000  0.4747560000000 1.0
C      1  0.6929480000000  0.4518600000000  0.5685780000000 1.0
C      1  0.6920850000000  0.5490870000000  0.5660290000000 1.0
C      1  0.6930010000000  0.5763560000000  0.4706720000000 1.0
C      1  0.6954460000000  0.4962620000000  0.4132380000000 1.0
C      1  0.6953180000000  0.4192480000000  0.4750160000000 1.0
C      1  0.5904600000000  0.3249110000000  0.6192520000000 1.0
C      1  0.5947360000000  0.3332500000000  0.3667090000000 1.0
C      1  0.5885510000000  0.5714390000000  0.3038530000000 1.0
C      1  0.5888540000000  0.7054190000000  0.5133400000000 1.0
C      1  0.5866430000000  0.5495640000000  0.7000330000000 1.0
C      1  0.4081690000000  0.6791370000000  0.6199980000000 1.0
C      1  0.4047490000000  0.6634800000000  0.3641530000000 1.0
C      1  0.4114280000000  0.4279300000000  0.3046900000000 1.0
C      1  0.4102040000000  0.2942220000000  0.5132060000000 1.0
C      1  0.4164270000000  0.4534180000000  0.6928090000000 1.0
C      1  0.5040320000000  0.3010440000000  0.3857070000000 1.0
C      1  0.4978190000000  0.5487160000000  0.2738460000000 1.0
C      1  0.4994710000000  0.7262420000000  0.4743110000000 1.0
C      1  0.4976960000000  0.5942650000000  0.7134350000000 1.0
C      1  0.5005080000000  0.3273390000000  0.6582590000000 1.0
C      1  0.4951020000000  0.6971280000000  0.3850590000000 1.0
C      1  0.4999330000000  0.4523520000000  0.2751600000000 1.0
C      1  0.5004050000000  0.2738280000000  0.4758240000000 1.0
C      1  0.5051430000000  0.4055970000000  0.7133280000000 1.0
C      1  0.4993650000000  0.6732420000000  0.6572270000000 1.0
END
