TITL C-1525613-7943-2515 0.132629177710324 3375 -9050.5210817469 0 0 60 (C1) n - 1
REM
REM in /home/nfs/bkarasulu/CARBON/AIRSS/Generating-Clusters/ReaxFF-fromJPCA2015/Units_Real/Try2-Higher-symm/Only-C60
REM
REM
REM
REM
REM
REM ./C.cell (863b2abdce7293c0672fb3ba77bf323a)
REM AIRSS Version 0.9.1 bugfix July 2018 build 013d7b7c2542+ Fri, 06 Jul 2018 19:26:36 +0100
REM compiler GCC version 9.2.1 20190827 (Red Hat 9.2.1-1)
REM options -cpp -mtune=generic -march=x86-64 -g -O0 -fpre-include=/usr/include/finclude/math-vector-fortran.h
REM seed 756347407 909999542 -242579175 1949400144 1233161064 1367404286 1050222505 -1585807739 27022697 1071227825 836332848 1435351560 276377104 -1698651462 1206744954 -342241139 1153826264 -2000230547 273366058 -905000393 -49737844 -1386243742 2006223300 -80446141 1985565568 858810840 2131234201 1729291883 -74502254 -1000478175 651514896 -537088434 -327710860
REM
CELL 1.54180   15.00000   15.00000   15.00000   90.00000   90.00000   90.00000
LATT -1
SFAC C  
C      1  0.6029340000000  0.4328390000000  0.7277690000000 1.0
C      1  0.7239520000000  0.4464040000000  0.6208930000000 1.0
C      1  0.7484760000000  0.4486000000000  0.4670610000000 1.0
C      1  0.6731770000000  0.4553410000000  0.3172410000000 1.0
C      1  0.5427590000000  0.4297770000000  0.2389930000000 1.0
C      1  0.3960080000000  0.4336440000000  0.2746710000000 1.0
C      1  0.2747910000000  0.4449370000000  0.3854750000000 1.0
C      1  0.2524010000000  0.4477840000000  0.5264240000000 1.0
C      1  0.3265830000000  0.4565860000000  0.6795010000000 1.0
C      1  0.4558060000000  0.4293520000000  0.7603780000000 1.0
C      1  0.2990810000000  0.4042320000000  0.6019390000000 1.0
C      1  0.3863750000000  0.3850390000000  0.7104870000000 1.0
C      1  0.5314240000000  0.3749510000000  0.7397830000000 1.0
C      1  0.6607500000000  0.3931410000000  0.6687810000000 1.0
C      1  0.7317300000000  0.3905680000000  0.5434240000000 1.0
C      1  0.7020720000000  0.4025280000000  0.3943010000000 1.0
C      1  0.6124750000000  0.3843650000000  0.2875420000000 1.0
C      1  0.4672070000000  0.3759520000000  0.2610890000000 1.0
C      1  0.3393670000000  0.3947190000000  0.3354070000000 1.0
C      1  0.2667440000000  0.3812320000000  0.4565280000000 1.0
C      1  0.4577200000000  0.6351050000000  0.7348870000000 1.0
C      1  0.6121330000000  0.5706760000000  0.6437130000000 1.0
C      1  0.7247890000000  0.6482030000000  0.5717930000000 1.0
C      1  0.7270080000000  0.6276530000000  0.4766520000000 1.0
C      1  0.6297680000000  0.6284680000000  0.3083560000000 1.0
C      1  0.5425520000000  0.6345720000000  0.2651070000000 1.0
C      1  0.3871890000000  0.5726950000000  0.3559000000000 1.0
C      1  0.2747270000000  0.6495500000000  0.4287130000000 1.0
C      1  0.2739130000000  0.6285780000000  0.5238100000000 1.0
C      1  0.3704380000000  0.6295120000000  0.6917990000000 1.0
C      1  0.4938510000000  0.6883220000000  0.6608490000000 1.0
C      1  0.5776730000000  0.6556120000000  0.6198740000000 1.0
C      1  0.6431570000000  0.7012330000000  0.5613540000000 1.0
C      1  0.6472870000000  0.6876760000000  0.4624480000000 1.0
C      1  0.5984260000000  0.6923740000000  0.3793770000000 1.0
C      1  0.5068100000000  0.6882690000000  0.3391190000000 1.0
C      1  0.4218840000000  0.6576560000000  0.3794180000000 1.0
C      1  0.3566450000000  0.7025740000000  0.4387760000000 1.0
C      1  0.3533250000000  0.6885510000000  0.5377550000000 1.0
C      1  0.4019760000000  0.6935240000000  0.6210420000000 1.0
C      1  0.6542820000000  0.3313250000000  0.5279690000000 1.0
C      1  0.6364690000000  0.3389810000000  0.4324950000000 1.0
C      1  0.5729230000000  0.3282730000000  0.3609380000000 1.0
C      1  0.4781960000000  0.3223430000000  0.3428780000000 1.0
C      1  0.3928840000000  0.3322730000000  0.3885540000000 1.0
C      1  0.3458170000000  0.3239740000000  0.4724420000000 1.0
C      1  0.3641250000000  0.3387250000000  0.5670980000000 1.0
C      1  0.4272970000000  0.3279810000000  0.6390420000000 1.0
C      1  0.5220720000000  0.3223460000000  0.6570600000000 1.0
C      1  0.6078650000000  0.3326750000000  0.6124920000000 1.0
C      1  0.7017860000000  0.5437130000000  0.6018020000000 1.0
C      1  0.7132690000000  0.5329970000000  0.4984580000000 1.0
C      1  0.6155920000000  0.5326190000000  0.3216050000000 1.0
C      1  0.5257440000000  0.5267990000000  0.2653970000000 1.0
C      1  0.4304320000000  0.5166180000000  0.2958450000000 1.0
C      1  0.2981090000000  0.5459970000000  0.3998890000000 1.0
C      1  0.2908430000000  0.5342940000000  0.5013080000000 1.0
C      1  0.3846730000000  0.5336560000000  0.6776330000000 1.0
C      1  0.4735980000000  0.5263370000000  0.7341340000000 1.0
C      1  0.5686440000000  0.5152800000000  0.7045350000000 1.0
END
