TITL C-1525613-7943-6192 0.233507383122794 3375 -8953.08559100807 0 0 60 (C2) n - 1
REM
REM in /home/nfs/bkarasulu/CARBON/AIRSS/Generating-Clusters/ReaxFF-fromJPCA2015/Units_Real/Try2-Higher-symm/Only-C60
REM
REM
REM
REM
REM
REM ./C.cell (863b2abdce7293c0672fb3ba77bf323a)
REM AIRSS Version 0.9.1 bugfix July 2018 build 013d7b7c2542+ Fri, 06 Jul 2018 19:26:36 +0100
REM compiler GCC version 9.2.1 20190827 (Red Hat 9.2.1-1)
REM options -cpp -mtune=generic -march=x86-64 -g -O0 -fpre-include=/usr/include/finclude/math-vector-fortran.h
REM seed -131927141 -532312235 -733148025 -648834469 -1867045419 -814272113 880786451 454240640 -1361815033 -1673178167 1556448850 -739885347 957555648 -1833717457 522623612 2109452593 -1300890899 -1558647695 1321230580 889310967 -1442137538 -451599697 1998471081 -891101028 -858428060 -1080185391 -2010412914 963891977 360502083 106839131 933335413 1294313840 -527032363
REM
CELL 1.54180   15.00000   15.00000   15.00000   90.00000   90.00000   90.00000
LATT -1
SFAC C  
C      1  0.2732240000000  0.6049920000000  0.4652490000000 1.0
C      1  0.3485610000000  0.3184520000000  0.4568780000000 1.0
C      1  0.6214700000000  0.2786860000000  0.4606170000000 1.0
C      1  0.7305240000000  0.5596180000000  0.4515680000000 1.0
C      1  0.5199900000000  0.7331780000000  0.4613190000000 1.0
C      1  0.7267760000000  0.6049920000000  0.5347510000000 1.0
C      1  0.6514390000000  0.3184520000000  0.5431220000000 1.0
C      1  0.3785300000000  0.2786860000000  0.5393830000000 1.0
C      1  0.2694760000000  0.5596180000000  0.5484320000000 1.0
C      1  0.4800100000000  0.7331780000000  0.5386810000000 1.0
C      1  0.4168750000000  0.4843680000000  0.4281830000000 1.0
C      1  0.4866690000000  0.4201710000000  0.4307030000000 1.0
C      1  0.5719050000000  0.4634740000000  0.4349150000000 1.0
C      1  0.5623980000000  0.5616640000000  0.4506250000000 1.0
C      1  0.4524220000000  0.5741960000000  0.4467720000000 1.0
C      1  0.5831250000000  0.4843680000000  0.5718160000000 1.0
C      1  0.5133310000000  0.4201710000000  0.5692970000000 1.0
C      1  0.4280950000000  0.4634740000000  0.5650860000000 1.0
C      1  0.4376020000000  0.5616640000000  0.5493750000000 1.0
C      1  0.5475780000000  0.5741960000000  0.5532280000000 1.0
C      1  0.4535500000000  0.4312140000000  0.2736850000000 1.0
C      1  0.5517640000000  0.4357540000000  0.2761680000000 1.0
C      1  0.5776920000000  0.5298580000000  0.2800490000000 1.0
C      1  0.4962000000000  0.5834160000000  0.2782090000000 1.0
C      1  0.4191100000000  0.5230400000000  0.2754290000000 1.0
C      1  0.5464500000000  0.4312140000000  0.7263150000000 1.0
C      1  0.4482360000000  0.4357540000000  0.7238320000000 1.0
C      1  0.4223080000000  0.5298580000000  0.7199510000000 1.0
C      1  0.5038000000000  0.5834160000000  0.7217910000000 1.0
C      1  0.5808900000000  0.5230400000000  0.7245710000000 1.0
C      1  0.6559480000000  0.5649780000000  0.3319120000000 1.0
C      1  0.4860910000000  0.6676000000000  0.3297230000000 1.0
C      1  0.3365470000000  0.5407360000000  0.3253190000000 1.0
C      1  0.4122040000000  0.3569980000000  0.3231330000000 1.0
C      1  0.6056790000000  0.3711850000000  0.3270330000000 1.0
C      1  0.3440520000000  0.5649780000000  0.6680880000000 1.0
C      1  0.5139090000000  0.6676000000000  0.6702770000000 1.0
C      1  0.6634530000000  0.5407360000000  0.6746810000000 1.0
C      1  0.5877960000000  0.3569980000000  0.6768670000000 1.0
C      1  0.3943210000000  0.3711850000000  0.6729670000000 1.0
C      1  0.6503510000000  0.4251060000000  0.3952020000000 1.0
C      1  0.6209070000000  0.6270240000000  0.3992260000000 1.0
C      1  0.4149740000000  0.6537100000000  0.3950240000000 1.0
C      1  0.3297310000000  0.4672290000000  0.3900810000000 1.0
C      1  0.4736320000000  0.3283970000000  0.3943330000000 1.0
C      1  0.3496500000000  0.4251060000000  0.6047980000000 1.0
C      1  0.3790930000000  0.6270240000000  0.6007740000000 1.0
C      1  0.5850260000000  0.6537100000000  0.6049760000000 1.0
C      1  0.6702690000000  0.4672290000000  0.6099200000000 1.0
C      1  0.5263680000000  0.3283970000000  0.6056670000000 1.0
C      1  0.4378300000000  0.7038520000000  0.6181960000000 1.0
C      1  0.2879580000000  0.5004270000000  0.6200620000000 1.0
C      1  0.4337290000000  0.2995120000000  0.6205800000000 1.0
C      1  0.6682630000000  0.3699560000000  0.6238550000000 1.0
C      1  0.6748800000000  0.6212100000000  0.6204330000000 1.0
C      1  0.5621700000000  0.7038520000000  0.3818040000000 1.0
C      1  0.7120420000000  0.5004270000000  0.3799380000000 1.0
C      1  0.5662710000000  0.2995120000000  0.3794200000000 1.0
C      1  0.3317370000000  0.3699560000000  0.3761450000000 1.0
C      1  0.3251200000000  0.6212100000000  0.3795670000000 1.0
END
