TITL C-1525613-7943-106 0.00809074810875733 3375 -8136.51843372181 0 0 60 (C2) n - 1
REM
REM in /home/nfs/bkarasulu/CARBON/AIRSS/Generating-Clusters/ReaxFF-fromJPCA2015/Units_Real/Try2-Higher-symm/Only-C60
REM
REM
REM
REM
REM
REM ./C.cell (863b2abdce7293c0672fb3ba77bf323a)
REM AIRSS Version 0.9.1 bugfix July 2018 build 013d7b7c2542+ Fri, 06 Jul 2018 19:26:36 +0100
REM compiler GCC version 9.2.1 20190827 (Red Hat 9.2.1-1)
REM options -cpp -mtune=generic -march=x86-64 -g -O0 -fpre-include=/usr/include/finclude/math-vector-fortran.h
REM seed -849259046 1834404310 1588875308 -756388998 1037108204 1096613129 2085434167 363588654 -799672706 -608922261 -559567660 -508864239 -1648159816 -825234613 -944866013 -989105831 -1345475233 2064580369 1888747586 -1250088822 1721120100 -1773327528 1938639470 1676473863 -1703124424 -955929085 1786803955 1667024411 -148671722 -786765085 595505177 1566563603 1985160806
REM
CELL 1.54180   15.00000   15.00000   15.00000   90.00000   90.00000   90.00000
LATT -1
SFAC C  
C      1  0.3426760000000  0.6197860000000  0.6007480000000 1.0
C      1  0.3420080000000  0.6558870000000  0.5128180000000 1.0
C      1  0.3438510000000  0.6314980000000  0.4213570000000 1.0
C      1  0.3346050000000  0.5563390000000  0.3625430000000 1.0
C      1  0.3437980000000  0.4616420000000  0.3515750000000 1.0
C      1  0.3426740000000  0.3802030000000  0.3992370000000 1.0
C      1  0.3419920000000  0.3441230000000  0.4871780000000 1.0
C      1  0.3438480000000  0.3685080000000  0.5786440000000 1.0
C      1  0.3346070000000  0.4436610000000  0.6374620000000 1.0
C      1  0.3437850000000  0.5383560000000  0.6484180000000 1.0
C      1  0.3819840000000  0.7545390000000  0.5228370000000 1.0
C      1  0.3860510000000  0.7161790000000  0.3726060000000 1.0
C      1  0.3675860000000  0.5964660000000  0.2736870000000 1.0
C      1  0.3870370000000  0.4417870000000  0.2563140000000 1.0
C      1  0.3826910000000  0.3070870000000  0.3321830000000 1.0
C      1  0.3819840000000  0.2454730000000  0.4771540000000 1.0
C      1  0.3860590000000  0.2838330000000  0.6273940000000 1.0
C      1  0.3675910000000  0.4035330000000  0.7263150000000 1.0
C      1  0.3870110000000  0.5582230000000  0.7436980000000 1.0
C      1  0.3826960000000  0.6929280000000  0.6678090000000 1.0
C      1  0.5283310000000  0.3363810000000  0.4775890000000 1.0
C      1  0.5302730000000  0.3539540000000  0.5912000000000 1.0
C      1  0.5289140000000  0.4163080000000  0.6733330000000 1.0
C      1  0.5319580000000  0.5185360000000  0.6713060000000 1.0
C      1  0.5270270000000  0.6190030000000  0.6148210000000 1.0
C      1  0.5283460000000  0.6636030000000  0.5224180000000 1.0
C      1  0.5302720000000  0.6460550000000  0.4088060000000 1.0
C      1  0.5289130000000  0.5836820000000  0.3266720000000 1.0
C      1  0.5319770000000  0.4814500000000  0.3286830000000 1.0
C      1  0.5269950000000  0.3810010000000  0.3851930000000 1.0
C      1  0.6671990000000  0.3529720000000  0.6466650000000 1.0
C      1  0.6678180000000  0.4726300000000  0.7055490000000 1.0
C      1  0.6576310000000  0.6021130000000  0.6896110000000 1.0
C      1  0.6558380000000  0.6942910000000  0.5958940000000 1.0
C      1  0.6570810000000  0.7132010000000  0.4656970000000 1.0
C      1  0.6672170000000  0.6470390000000  0.3533250000000 1.0
C      1  0.6678040000000  0.5273460000000  0.2944540000000 1.0
C      1  0.6576310000000  0.3979190000000  0.3103720000000 1.0
C      1  0.6558520000000  0.3057030000000  0.4040860000000 1.0
C      1  0.6571080000000  0.2868110000000  0.5343260000000 1.0
C      1  0.4761320000000  0.2551680000000  0.4811890000000 1.0
C      1  0.4791980000000  0.2756980000000  0.6138920000000 1.0
C      1  0.4603670000000  0.3856710000000  0.7455890000000 1.0
C      1  0.4814010000000  0.5565320000000  0.7439150000000 1.0
C      1  0.4748160000000  0.6721230000000  0.6761730000000 1.0
C      1  0.4761290000000  0.7448000000000  0.5188380000000 1.0
C      1  0.4791790000000  0.7242910000000  0.3861050000000 1.0
C      1  0.4603670000000  0.6143130000000  0.2544180000000 1.0
C      1  0.4814150000000  0.4434600000000  0.2560770000000 1.0
C      1  0.4747830000000  0.3278800000000  0.3238290000000 1.0
C      1  0.6074400000000  0.2695770000000  0.4667080000000 1.0
C      1  0.6106080000000  0.2946950000000  0.6089320000000 1.0
C      1  0.6267350000000  0.4014040000000  0.6997590000000 1.0
C      1  0.6120600000000  0.5385420000000  0.7292670000000 1.0
C      1  0.6069150000000  0.6662110000000  0.6622070000000 1.0
C      1  0.6074320000000  0.7304140000000  0.5332880000000 1.0
C      1  0.6106020000000  0.7053250000000  0.3910830000000 1.0
C      1  0.6267320000000  0.5985800000000  0.3002330000000 1.0
C      1  0.6120880000000  0.4614710000000  0.2707340000000 1.0
C      1  0.6068800000000  0.3337970000000  0.3377870000000 1.0
END
