TITL C-1525613-7943-1192 0.0510008932190491 3375 -8172.5978741132 0 0 60 (Ci) n - 1
REM
REM in /home/nfs/bkarasulu/CARBON/AIRSS/Generating-Clusters/ReaxFF-fromJPCA2015/Units_Real/Try2-Higher-symm/Only-C60
REM
REM
REM
REM
REM
REM ./C.cell (863b2abdce7293c0672fb3ba77bf323a)
REM AIRSS Version 0.9.1 bugfix July 2018 build 013d7b7c2542+ Fri, 06 Jul 2018 19:26:36 +0100
REM compiler GCC version 9.2.1 20190827 (Red Hat 9.2.1-1)
REM options -cpp -mtune=generic -march=x86-64 -g -O0 -fpre-include=/usr/include/finclude/math-vector-fortran.h
REM seed 522417689 1603192105 90296888 -2010259242 -805154927 -1919827477 54801151 -1809637234 57190046 98216088 -832356620 -1722349600 1777455917 -1942073947 629660149 987084261 -1543225645 -1914611015 1181908473 -521176876 -781018454 377085836 -1835734030 1602951279 -2025207322 -1199057111 1505354622 951980683 -1644268266 -1173241229 1452262980 1894927553 44559778
REM
CELL 1.54180   15.00000   15.00000   15.00000   90.00000   90.00000   90.00000
LATT -1
SFAC C  
C      1  0.6120940000000  0.4756480000000  0.5148540000000 1.0
C      1  0.5537970000000  0.4085730000000  0.4726900000000 1.0
C      1  0.5337130000000  0.4387590000000  0.5542140000000 1.0
C      1  0.4708360000000  0.3919670000000  0.5118550000000 1.0
C      1  0.3904200000000  0.4313420000000  0.5018080000000 1.0
C      1  0.3879530000000  0.5243580000000  0.4852010000000 1.0
C      1  0.4461540000000  0.5914310000000  0.5273070000000 1.0
C      1  0.4662080000000  0.5611770000000  0.4455810000000 1.0
C      1  0.5293690000000  0.6080970000000  0.4880730000000 1.0
C      1  0.6094180000000  0.5686810000000  0.4982270000000 1.0
C      1  0.5384380000000  0.2339370000000  0.4631510000000 1.0
C      1  0.3888760000000  0.2715470000000  0.5391460000000 1.0
C      1  0.2503420000000  0.4062930000000  0.4630360000000 1.0
C      1  0.2396670000000  0.5551440000000  0.5311920000000 1.0
C      1  0.3196830000000  0.6914190000000  0.4673520000000 1.0
C      1  0.4615730000000  0.7660330000000  0.5369680000000 1.0
C      1  0.6111050000000  0.7284860000000  0.4608510000000 1.0
C      1  0.7497000000000  0.5937020000000  0.5369610000000 1.0
C      1  0.7603710000000  0.4448080000000  0.4688740000000 1.0
C      1  0.6803360000000  0.3085510000000  0.5325510000000 1.0
C      1  0.4437850000000  0.5952960000000  0.6808150000000 1.0
C      1  0.5078200000000  0.6330630000000  0.3157510000000 1.0
C      1  0.5770990000000  0.5931460000000  0.6784820000000 1.0
C      1  0.5971140000000  0.5336270000000  0.3286590000000 1.0
C      1  0.5920430000000  0.4581700000000  0.6729680000000 1.0
C      1  0.5562040000000  0.4046640000000  0.3191610000000 1.0
C      1  0.4921710000000  0.3669240000000  0.6842400000000 1.0
C      1  0.4229300000000  0.4068520000000  0.3215070000000 1.0
C      1  0.4029060000000  0.4663980000000  0.6713480000000 1.0
C      1  0.4080890000000  0.5419170000000  0.3271770000000 1.0
C      1  0.7030490000000  0.4223760000000  0.3963580000000 1.0
C      1  0.6209840000000  0.3106920000000  0.6051650000000 1.0
C      1  0.4884380000000  0.2732170000000  0.3943550000000 1.0
C      1  0.3512190000000  0.3263120000000  0.6023050000000 1.0
C      1  0.2767170000000  0.4540050000000  0.3869290000000 1.0
C      1  0.2969780000000  0.5775400000000  0.6036480000000 1.0
C      1  0.3789710000000  0.6892600000000  0.3948330000000 1.0
C      1  0.5114270000000  0.7267420000000  0.6056920000000 1.0
C      1  0.6487170000000  0.6735090000000  0.3977770000000 1.0
C      1  0.7232970000000  0.5460080000000  0.6131040000000 1.0
C      1  0.5625150000000  0.7683630000000  0.5306360000000 1.0
C      1  0.6862750000000  0.6144190000000  0.4692600000000 1.0
C      1  0.7718460000000  0.5050850000000  0.5423840000000 1.0
C      1  0.7212830000000  0.3602200000000  0.4648670000000 1.0
C      1  0.6042410000000  0.2540710000000  0.5318150000000 1.0
C      1  0.4375930000000  0.2317450000000  0.4693230000000 1.0
C      1  0.3137610000000  0.3856630000000  0.5306840000000 1.0
C      1  0.2281910000000  0.4948980000000  0.4575720000000 1.0
C      1  0.2787210000000  0.6398440000000  0.5351440000000 1.0
C      1  0.3957960000000  0.7459870000000  0.4681950000000 1.0
C      1  0.3725850000000  0.5484320000000  0.6588800000000 1.0
C      1  0.4250280000000  0.6282400000000  0.3344220000000 1.0
C      1  0.5108730000000  0.6434230000000  0.6612620000000 1.0
C      1  0.5901780000000  0.6190190000000  0.3333360000000 1.0
C      1  0.6379180000000  0.5324180000000  0.6617600000000 1.0
C      1  0.6273670000000  0.4516170000000  0.3410640000000 1.0
C      1  0.5748670000000  0.3717400000000  0.6656000000000 1.0
C      1  0.4891250000000  0.3565780000000  0.3387100000000 1.0
C      1  0.4098160000000  0.3809670000000  0.6666610000000 1.0
C      1  0.3620040000000  0.4676010000000  0.3382590000000 1.0
END
