TITL C-1525613-7943-3485 0.101676981386883 3375 -8979.43505706387 0 0 60 (C1) n - 1
REM
REM in /home/nfs/bkarasulu/CARBON/AIRSS/Generating-Clusters/ReaxFF-fromJPCA2015/Units_Real/Try2-Higher-symm/Only-C60
REM
REM
REM
REM
REM
REM ./C.cell (863b2abdce7293c0672fb3ba77bf323a)
REM AIRSS Version 0.9.1 bugfix July 2018 build 013d7b7c2542+ Fri, 06 Jul 2018 19:26:36 +0100
REM compiler GCC version 9.2.1 20190827 (Red Hat 9.2.1-1)
REM options -cpp -mtune=generic -march=x86-64 -g -O0 -fpre-include=/usr/include/finclude/math-vector-fortran.h
REM seed 2064206328 2000362114 -518651546 101645706 864015452 1676051191 2043564470 179727458 -2079119005 394655000 -35690419 -603171378 1687825534 -1672853822 -1382476923 -270649529 -1339230552 -1447389337 -1312608633 -1890063186 1749035815 1379174423 -594444846 807073405 1242572168 827158955 489153006 237278981 -53130631 809279423 -2102914779 -1582738043 862770756
REM
CELL 1.54180   15.00000   15.00000   15.00000   90.00000   90.00000   90.00000
LATT -1
SFAC C  
C      1  0.3825860000000  0.4209230000000  0.7007180000000 1.0
C      1  0.3814480000000  0.2869290000000  0.4845200000000 1.0
C      1  0.3993120000000  0.4109710000000  0.3043820000000 1.0
C      1  0.3891090000000  0.6716170000000  0.3344440000000 1.0
C      1  0.4046350000000  0.6862010000000  0.6011760000000 1.0
C      1  0.5883570000000  0.5688430000000  0.7038330000000 1.0
C      1  0.6201790000000  0.7122980000000  0.4919560000000 1.0
C      1  0.6104550000000  0.5788560000000  0.2973730000000 1.0
C      1  0.5941860000000  0.3470820000000  0.3490660000000 1.0
C      1  0.5972230000000  0.3188030000000  0.5951910000000 1.0
C      1  0.3048860000000  0.4557290000000  0.4346460000000 1.0
C      1  0.3013670000000  0.5501950000000  0.4327350000000 1.0
C      1  0.2969030000000  0.5806140000000  0.5238400000000 1.0
C      1  0.2964540000000  0.5043650000000  0.5796210000000 1.0
C      1  0.3058530000000  0.4272260000000  0.5250980000000 1.0
C      1  0.6982920000000  0.5446980000000  0.4325400000000 1.0
C      1  0.7025190000000  0.4498960000000  0.4250540000000 1.0
C      1  0.7112600000000  0.4129440000000  0.5128790000000 1.0
C      1  0.7115810000000  0.4866430000000  0.5745140000000 1.0
C      1  0.6954750000000  0.5679420000000  0.5239570000000 1.0
C      1  0.3393130000000  0.3946120000000  0.3668700000000 1.0
C      1  0.3295700000000  0.6013520000000  0.3556370000000 1.0
C      1  0.3230650000000  0.6678050000000  0.5579160000000 1.0
C      1  0.3244260000000  0.5002850000000  0.6764510000000 1.0
C      1  0.3514560000000  0.3460260000000  0.5533050000000 1.0
C      1  0.6649720000000  0.6097670000000  0.3628660000000 1.0
C      1  0.6729320000000  0.3956080000000  0.3510260000000 1.0
C      1  0.6778060000000  0.3291880000000  0.5469270000000 1.0
C      1  0.6661340000000  0.4734150000000  0.6465990000000 1.0
C      1  0.6458500000000  0.6437650000000  0.5565200000000 1.0
C      1  0.3808000000000  0.7389310000000  0.5310620000000 1.0
C      1  0.3768600000000  0.5626930000000  0.7147860000000 1.0
C      1  0.3850190000000  0.3424520000000  0.6440340000000 1.0
C      1  0.3737320000000  0.3083500000000  0.3909750000000 1.0
C      1  0.4107520000000  0.5872770000000  0.3105590000000 1.0
C      1  0.6164190000000  0.2603680000000  0.5288540000000 1.0
C      1  0.6178320000000  0.4769380000000  0.7073900000000 1.0
C      1  0.6023830000000  0.6390810000000  0.6414660000000 1.0
C      1  0.6310820000000  0.6988260000000  0.3976520000000 1.0
C      1  0.6157210000000  0.3958300000000  0.2760180000000 1.0
C      1  0.4555990000000  0.2255040000000  0.4645360000000 1.0
C      1  0.4540320000000  0.4494870000000  0.2436660000000 1.0
C      1  0.4512490000000  0.7265530000000  0.3803760000000 1.0
C      1  0.4447710000000  0.7044750000000  0.6843410000000 1.0
C      1  0.4638050000000  0.3899110000000  0.7495350000000 1.0
C      1  0.5413830000000  0.7711830000000  0.4737750000000 1.0
C      1  0.5553140000000  0.5466230000000  0.2323770000000 1.0
C      1  0.5488190000000  0.2679300000000  0.3728920000000 1.0
C      1  0.5568570000000  0.3219930000000  0.6778580000000 1.0
C      1  0.5303990000000  0.6252980000000  0.7587420000000 1.0
C      1  0.5506260000000  0.4466590000000  0.2310460000000 1.0
C      1  0.5481570000000  0.7493570000000  0.3783580000000 1.0
C      1  0.5416450000000  0.6963680000000  0.6929840000000 1.0
C      1  0.5596860000000  0.3996170000000  0.7303120000000 1.0
C      1  0.5528700000000  0.2373910000000  0.4628530000000 1.0
C      1  0.4545590000000  0.5448830000000  0.2399140000000 1.0
C      1  0.4519630000000  0.2504370000000  0.3701440000000 1.0
C      1  0.4629220000000  0.3073560000000  0.6945530000000 1.0
C      1  0.4297790000000  0.6296360000000  0.7489240000000 1.0
C      1  0.4473610000000  0.7539940000000  0.4683590000000 1.0
END
