TITL C-1525613-7943-5493 0.207904910473671 3375 -8773.97332631085 0 0 60 (C1) n - 1
REM
REM in /home/nfs/bkarasulu/CARBON/AIRSS/Generating-Clusters/ReaxFF-fromJPCA2015/Units_Real/Try2-Higher-symm/Only-C60
REM
REM
REM
REM
REM
REM ./C.cell (863b2abdce7293c0672fb3ba77bf323a)
REM AIRSS Version 0.9.1 bugfix July 2018 build 013d7b7c2542+ Fri, 06 Jul 2018 19:26:36 +0100
REM compiler GCC version 9.2.1 20190827 (Red Hat 9.2.1-1)
REM options -cpp -mtune=generic -march=x86-64 -g -O0 -fpre-include=/usr/include/finclude/math-vector-fortran.h
REM seed 473481075 -1740371971 -1075522768 1001205646 183884117 1423972260 1339912336 -213589043 1953625676 1023285047 -771193871 -636422406 254527813 1854304332 1371650360 116477115 -2058098657 -1100296812 -340935110 1380317791 -354699936 -816980197 -872799601 941121767 1494586608 1039729399 1107537570 1453209431 -619012364 -1213326231 1632752174 -281491631 1806146902
REM
CELL 1.54180   15.00000   15.00000   15.00000   90.00000   90.00000   90.00000
LATT -1
SFAC C  
C      1  0.4376120000000  0.3397820000000  0.5459150000000 1.0
C      1  0.4384440000000  0.3488140000000  0.4448860000000 1.0
C      1  0.5467280000000  0.3433920000000  0.4166820000000 1.0
C      1  0.6019850000000  0.3388250000000  0.5094700000000 1.0
C      1  0.5240520000000  0.3422180000000  0.5903990000000 1.0
C      1  0.4342750000000  0.6612640000000  0.5437530000000 1.0
C      1  0.4354400000000  0.6537030000000  0.4425700000000 1.0
C      1  0.5445610000000  0.6572160000000  0.4152850000000 1.0
C      1  0.5992310000000  0.6598940000000  0.5087990000000 1.0
C      1  0.5211750000000  0.6568440000000  0.5889820000000 1.0
C      1  0.5502640000000  0.2472020000000  0.3747380000000 1.0
C      1  0.6364230000000  0.2409230000000  0.5063920000000 1.0
C      1  0.5299060000000  0.2441980000000  0.6398250000000 1.0
C      1  0.3880250000000  0.2644330000000  0.5818000000000 1.0
C      1  0.3954960000000  0.2571120000000  0.4118610000000 1.0
C      1  0.5514680000000  0.7538660000000  0.3760450000000 1.0
C      1  0.6383760000000  0.7561500000000  0.5080550000000 1.0
C      1  0.5296130000000  0.7539020000000  0.6392840000000 1.0
C      1  0.3863470000000  0.7371670000000  0.5808820000000 1.0
C      1  0.3955060000000  0.7472750000000  0.4109540000000 1.0
C      1  0.3698590000000  0.7695360000000  0.4962100000000 1.0
C      1  0.4626210000000  0.7953660000000  0.3540280000000 1.0
C      1  0.6286830000000  0.8006860000000  0.4169500000000 1.0
C      1  0.5953350000000  0.7867350000000  0.5822430000000 1.0
C      1  0.4402910000000  0.7890890000000  0.6540830000000 1.0
C      1  0.3712680000000  0.2332570000000  0.4969870000000 1.0
C      1  0.4600530000000  0.2101670000000  0.3508750000000 1.0
C      1  0.6250740000000  0.1965590000000  0.4151560000000 1.0
C      1  0.5920200000000  0.2104730000000  0.5796000000000 1.0
C      1  0.4397730000000  0.2119410000000  0.6563180000000 1.0
C      1  0.5277930000000  0.5907950000000  0.6586490000000 1.0
C      1  0.3331360000000  0.5471730000000  0.5786150000000 1.0
C      1  0.3793790000000  0.5892460000000  0.3878010000000 1.0
C      1  0.5785880000000  0.5934250000000  0.3473500000000 1.0
C      1  0.6733040000000  0.5955470000000  0.5226550000000 1.0
C      1  0.5294440000000  0.4087670000000  0.6595700000000 1.0
C      1  0.3337990000000  0.4508810000000  0.5783910000000 1.0
C      1  0.3799710000000  0.4092340000000  0.3881950000000 1.0
C      1  0.5798530000000  0.4069550000000  0.3482100000000 1.0
C      1  0.6744790000000  0.4050890000000  0.5228650000000 1.0
C      1  0.6819600000000  0.5502940000000  0.6081240000000 1.0
C      1  0.4510590000000  0.5484680000000  0.7001140000000 1.0
C      1  0.2623260000000  0.5483520000000  0.5100860000000 1.0
C      1  0.4177550000000  0.5488860000000  0.3085620000000 1.0
C      1  0.6654360000000  0.5505380000000  0.3589710000000 1.0
C      1  0.6821010000000  0.4515280000000  0.6078520000000 1.0
C      1  0.4518920000000  0.4506420000000  0.6998670000000 1.0
C      1  0.2626420000000  0.4491000000000  0.5102230000000 1.0
C      1  0.4183060000000  0.4488070000000  0.3085280000000 1.0
C      1  0.6661650000000  0.4510500000000  0.3590290000000 1.0
C      1  0.5155060000000  0.4496190000000  0.2888890000000 1.0
C      1  0.7126150000000  0.4511480000000  0.4463970000000 1.0
C      1  0.6107760000000  0.4541040000000  0.6725180000000 1.0
C      1  0.3562890000000  0.4492220000000  0.6742460000000 1.0
C      1  0.2962540000000  0.4489930000000  0.4170770000000 1.0
C      1  0.5149250000000  0.5489980000000  0.2884970000000 1.0
C      1  0.7125700000000  0.5508480000000  0.4460200000000 1.0
C      1  0.6100050000000  0.5471880000000  0.6721660000000 1.0
C      1  0.3554840000000  0.5486170000000  0.6744760000000 1.0
C      1  0.2962840000000  0.5485020000000  0.4170290000000 1.0
END
