TITL C-1525613-7943-5857 1.51638777301704 3375 -6519.55024982712 0 0 60 (C1) n - 1
REM
REM in /home/nfs/bkarasulu/CARBON/AIRSS/Generating-Clusters/ReaxFF-fromJPCA2015/Units_Real/Try2-Higher-symm/Only-C60
REM
REM
REM
REM
REM
REM ./C.cell (863b2abdce7293c0672fb3ba77bf323a)
REM AIRSS Version 0.9.1 bugfix July 2018 build 013d7b7c2542+ Fri, 06 Jul 2018 19:26:36 +0100
REM compiler GCC version 9.2.1 20190827 (Red Hat 9.2.1-1)
REM options -cpp -mtune=generic -march=x86-64 -g -O0 -fpre-include=/usr/include/finclude/math-vector-fortran.h
REM seed -1027258207 -819916728 1273155015 -887156476 -795845372 1072899440 580450573 -1684108333 -1961454572 640542875 1731822840 119076850 1958306428 -1502745526 -362854060 749986837 -1287515802 -1624840586 -1236374757 813390962 -811435043 2103785963 -1463558209 -1159386080 -1372784575 241691767 -214155602 115278838 789386156 1533754628 1641354744 -1058911654 131857402
REM
CELL 1.54180   15.00000   15.00000   15.00000   90.00000   90.00000   90.00000
LATT -1
SFAC C  
C      1  0.3885320000000  0.3475620000000  0.5211640000000 1.0
C      1  0.3260600000000  0.4471180000000  0.4710830000000 1.0
C      1  0.3236030000000  0.5670710000000  0.5192870000000 1.0
C      1  0.3980130000000  0.6471720000000  0.4786690000000 1.0
C      1  0.5074070000000  0.6801410000000  0.5229310000000 1.0
C      1  0.6101240000000  0.6489390000000  0.4805530000000 1.0
C      1  0.6761630000000  0.5508440000000  0.5270750000000 1.0
C      1  0.6757770000000  0.4312390000000  0.4825590000000 1.0
C      1  0.6020410000000  0.3613650000000  0.5242640000000 1.0
C      1  0.4944590000000  0.3157500000000  0.4791040000000 1.0
C      1  0.5743450000000  0.5372200000000  0.7044440000000 1.0
C      1  0.5826860000000  0.4865420000000  0.2917650000000 1.0
C      1  0.5587510000000  0.4413910000000  0.7051760000000 1.0
C      1  0.5146830000000  0.4184880000000  0.2947570000000 1.0
C      1  0.4630450000000  0.4260590000000  0.7056440000000 1.0
C      1  0.4266840000000  0.4631530000000  0.2934030000000 1.0
C      1  0.4170500000000  0.5136520000000  0.7086440000000 1.0
C      1  0.4410040000000  0.5585600000000  0.2959970000000 1.0
C      1  0.4855230000000  0.5821740000000  0.7048670000000 1.0
C      1  0.5372140000000  0.5742900000000  0.2945480000000 1.0
C      1  0.4473190000000  0.6959960000000  0.3731820000000 1.0
C      1  0.5846490000000  0.6673160000000  0.6346810000000 1.0
C      1  0.6589000000000  0.5822310000000  0.3838430000000 1.0
C      1  0.6927890000000  0.5095580000000  0.6178060000000 1.0
C      1  0.6478300000000  0.3754670000000  0.3694630000000 1.0
C      1  0.5533960000000  0.3030380000000  0.6248950000000 1.0
C      1  0.4168310000000  0.3341450000000  0.3688580000000 1.0
C      1  0.3412510000000  0.4182140000000  0.6172220000000 1.0
C      1  0.3022360000000  0.4891770000000  0.3791340000000 1.0
C      1  0.3542600000000  0.6258540000000  0.6322330000000 1.0
C      1  0.5174520000000  0.3330110000000  0.3497260000000 1.0
C      1  0.4082160000000  0.3558830000000  0.6590840000000 1.0
C      1  0.3575800000000  0.4178280000000  0.3426910000000 1.0
C      1  0.3398570000000  0.5355810000000  0.6552940000000 1.0
C      1  0.3829560000000  0.6266660000000  0.3422550000000 1.0
C      1  0.4815160000000  0.6673360000000  0.6500290000000 1.0
C      1  0.5917440000000  0.6444120000000  0.3402050000000 1.0
C      1  0.6427090000000  0.5830900000000  0.6586870000000 1.0
C      1  0.6597780000000  0.4651700000000  0.3449030000000 1.0
C      1  0.6151720000000  0.3731810000000  0.6553870000000 1.0
C      1  0.5658600000000  0.2830420000000  0.5251600000000 1.0
C      1  0.4025550000000  0.2928090000000  0.4666390000000 1.0
C      1  0.3122790000000  0.3715390000000  0.5271970000000 1.0
C      1  0.2702270000000  0.5179000000000  0.4668340000000 1.0
C      1  0.3344450000000  0.6572180000000  0.5396580000000 1.0
C      1  0.4363490000000  0.7158120000000  0.4766530000000 1.0
C      1  0.5967060000000  0.7055220000000  0.5331900000000 1.0
C      1  0.6883430000000  0.6282520000000  0.4733260000000 1.0
C      1  0.7285180000000  0.4790490000000  0.5316050000000 1.0
C      1  0.6668610000000  0.3440820000000  0.4615860000000 1.0
C      1  0.5793590000000  0.5248450000000  0.4328470000000 1.0
C      1  0.5800780000000  0.4699710000000  0.5624350000000 1.0
C      1  0.5449460000000  0.4343560000000  0.4385750000000 1.0
C      1  0.4962030000000  0.4179710000000  0.5658390000000 1.0
C      1  0.4491410000000  0.4364960000000  0.4390610000000 1.0
C      1  0.4194370000000  0.4792850000000  0.5637060000000 1.0
C      1  0.4178830000000  0.5295880000000  0.4346070000000 1.0
C      1  0.4538420000000  0.5676600000000  0.5605040000000 1.0
C      1  0.5053340000000  0.5838460000000  0.4350200000000 1.0
C      1  0.5520270000000  0.5588770000000  0.5600450000000 1.0
END
