TITL C-1525613-7943-3200 0.0136953216702497 3375 -8701.17768830082 0 0 60 (C1) n - 1
REM
REM in /home/nfs/bkarasulu/CARBON/AIRSS/Generating-Clusters/ReaxFF-fromJPCA2015/Units_Real/Try2-Higher-symm/Only-C60
REM
REM
REM
REM
REM
REM ./C.cell (863b2abdce7293c0672fb3ba77bf323a)
REM AIRSS Version 0.9.1 bugfix July 2018 build 013d7b7c2542+ Fri, 06 Jul 2018 19:26:36 +0100
REM compiler GCC version 9.2.1 20190827 (Red Hat 9.2.1-1)
REM options -cpp -mtune=generic -march=x86-64 -g -O0 -fpre-include=/usr/include/finclude/math-vector-fortran.h
REM seed 339281223 -2134157629 -2102631747 -1373655961 1062362106 264801508 -995214763 -1055385663 1424128806 311423059 1808112222 831852761 -872819464 -115073186 593481005 2004980671 -909608973 1049944647 -2134943024 1639286494 -963714852 -495598984 -435743154 -2132570302 881205157 -452725242 -1938277897 -1559624320 791622646 -56870243 334085819 -1479543652 1697780533
REM
CELL 1.54180   15.00000   15.00000   15.00000   90.00000   90.00000   90.00000
LATT -1
SFAC C  
C      1  0.4550730000000  0.3545130000000  0.7092780000000 1.0
C      1  0.5418350000000  0.5109690000000  0.7335290000000 1.0
C      1  0.4640470000000  0.6557440000000  0.6920300000000 1.0
C      1  0.5248690000000  0.7355670000000  0.5625380000000 1.0
C      1  0.4638850000000  0.7343290000000  0.4014620000000 1.0
C      1  0.5271390000000  0.6299510000000  0.2940510000000 1.0
C      1  0.4541780000000  0.4810060000000  0.2749650000000 1.0
C      1  0.5406480000000  0.3444070000000  0.2974970000000 1.0
C      1  0.4519380000000  0.2529530000000  0.4222900000000 1.0
C      1  0.5374070000000  0.2529520000000  0.5801550000000 1.0
C      1  0.4762990000000  0.4493410000000  0.6897020000000 1.0
C      1  0.5378600000000  0.5903700000000  0.6765690000000 1.0
C      1  0.4456480000000  0.6981460000000  0.6068890000000 1.0
C      1  0.5297380000000  0.7016190000000  0.4701750000000 1.0
C      1  0.4456610000000  0.6623520000000  0.3391930000000 1.0
C      1  0.5246270000000  0.5344920000000  0.3122420000000 1.0
C      1  0.4615270000000  0.4048990000000  0.3361620000000 1.0
C      1  0.5216950000000  0.2823810000000  0.3624510000000 1.0
C      1  0.4686700000000  0.2887750000000  0.5129690000000 1.0
C      1  0.5128210000000  0.3006320000000  0.6570980000000 1.0
C      1  0.5876840000000  0.4478870000000  0.4720430000000 1.0
C      1  0.4309160000000  0.3799690000000  0.5162690000000 1.0
C      1  0.5915970000000  0.4707200000000  0.5639990000000 1.0
C      1  0.4268910000000  0.4706740000000  0.6058800000000 1.0
C      1  0.5825970000000  0.5698100000000  0.5859130000000 1.0
C      1  0.4265110000000  0.5454170000000  0.5397100000000 1.0
C      1  0.5768390000000  0.6141480000000  0.4771880000000 1.0
C      1  0.4241530000000  0.5243810000000  0.4492700000000 1.0
C      1  0.5771130000000  0.5247990000000  0.4057730000000 1.0
C      1  0.4452390000000  0.4334510000000  0.4278350000000 1.0
C      1  0.6784300000000  0.5854690000000  0.6170210000000 1.0
C      1  0.3743030000000  0.6315360000000  0.5593260000000 1.0
C      1  0.6710720000000  0.6415640000000  0.4654510000000 1.0
C      1  0.3755190000000  0.5996650000000  0.3898730000000 1.0
C      1  0.6674160000000  0.5138900000000  0.3639210000000 1.0
C      1  0.2893770000000  0.4454150000000  0.3828180000000 1.0
C      1  0.6575340000000  0.3828710000000  0.4576100000000 1.0
C      1  0.3319160000000  0.3666450000000  0.5285820000000 1.0
C      1  0.6624900000000  0.4221050000000  0.6106040000000 1.0
C      1  0.3324070000000  0.4856790000000  0.6439740000000 1.0
C      1  0.3551100000000  0.3529300000000  0.6852690000000 1.0
C      1  0.6368600000000  0.5026090000000  0.7223790000000 1.0
C      1  0.3732990000000  0.6253190000000  0.6974690000000 1.0
C      1  0.6230520000000  0.7198590000000  0.5769830000000 1.0
C      1  0.3734190000000  0.7322820000000  0.4308540000000 1.0
C      1  0.6239460000000  0.6428550000000  0.3176880000000 1.0
C      1  0.3593450000000  0.5135680000000  0.2508540000000 1.0
C      1  0.6300600000000  0.3580330000000  0.3262170000000 1.0
C      1  0.3584110000000  0.2896370000000  0.4116510000000 1.0
C      1  0.6258390000000  0.2902820000000  0.5852420000000 1.0
C      1  0.2954340000000  0.3603660000000  0.4356950000000 1.0
C      1  0.6889230000000  0.3487570000000  0.5475920000000 1.0
C      1  0.2989710000000  0.3957960000000  0.6177540000000 1.0
C      1  0.7066300000000  0.5005360000000  0.6582140000000 1.0
C      1  0.3173550000000  0.5810890000000  0.6377780000000 1.0
C      1  0.7003230000000  0.6611560000000  0.5584520000000 1.0
C      1  0.3357330000000  0.6549910000000  0.4648650000000 1.0
C      1  0.6961160000000  0.6071850000000  0.3746450000000 1.0
C      1  0.3142970000000  0.5244810000000  0.3371610000000 1.0
C      1  0.6913090000000  0.4167800000000  0.3689350000000 1.0
END
