TITL C-1525613-7943-2268 -0.032268356498123 3375 -9412.10240701598 0 0 60 (Cs) n - 1
REM
REM in /home/nfs/bkarasulu/CARBON/AIRSS/Generating-Clusters/ReaxFF-fromJPCA2015/Units_Real/Try2-Higher-symm/Only-C60
REM
REM
REM
REM
REM
REM ./C.cell (863b2abdce7293c0672fb3ba77bf323a)
REM AIRSS Version 0.9.1 bugfix July 2018 build 013d7b7c2542+ Fri, 06 Jul 2018 19:26:36 +0100
REM compiler GCC version 9.2.1 20190827 (Red Hat 9.2.1-1)
REM options -cpp -mtune=generic -march=x86-64 -g -O0 -fpre-include=/usr/include/finclude/math-vector-fortran.h
REM seed 1393271278 168438417 -1950613737 1503585125 -1831621243 -28459297 930282612 1444868908 -1754371475 -932905417 -1280002362 1593068852 -802545119 -879622041 -1999028087 -1536201932 1494981703 1024096944 -2083884114 -934207151 -529380801 688065740 -1589393670 -1540786877 1973853159 -144302590 1870735394 -432197058 175221940 -2040902374 2126416441 -1088438742 -526207172
REM
CELL 1.54180   15.00000   15.00000   15.00000   90.00000   90.00000   90.00000
LATT -1
SFAC C  
C      1  0.4504520000000  0.7419900000000  0.7053560000000 1.0
C      1  0.7139300000000  0.6225710000000  0.7060120000000 1.0
C      1  0.6815740000000  0.3348200000000  0.7062820000000 1.0
C      1  0.3983540000000  0.2763800000000  0.7062340000000 1.0
C      1  0.2558140000000  0.5283190000000  0.7062000000000 1.0
C      1  0.5495460000000  0.7419850000000  0.7053530000000 1.0
C      1  0.2860610000000  0.6225630000000  0.7060220000000 1.0
C      1  0.3184260000000  0.3348210000000  0.7062770000000 1.0
C      1  0.6016490000000  0.2763830000000  0.7062420000000 1.0
C      1  0.7441910000000  0.5283050000000  0.7061890000000 1.0
C      1  0.5941360000000  0.7116230000000  0.4573460000000 1.0
C      1  0.7347710000000  0.4752150000000  0.4564930000000 1.0
C      1  0.5483780000000  0.2693830000000  0.4564420000000 1.0
C      1  0.2951580000000  0.3832040000000  0.4565220000000 1.0
C      1  0.3269540000000  0.6579030000000  0.4567130000000 1.0
C      1  0.4058500000000  0.7116270000000  0.4573240000000 1.0
C      1  0.2652300000000  0.4752240000000  0.4565010000000 1.0
C      1  0.4516300000000  0.2693820000000  0.4564530000000 1.0
C      1  0.7048460000000  0.3832000000000  0.4565200000000 1.0
C      1  0.6730170000000  0.6579280000000  0.4567250000000 1.0
C      1  0.6593050000000  0.4999120000000  0.3029090000000 1.0
C      1  0.5485490000000  0.3493280000000  0.3030680000000 1.0
C      1  0.3709360000000  0.4076920000000  0.3031000000000 1.0
C      1  0.3714130000000  0.5942450000000  0.3030240000000 1.0
C      1  0.5491690000000  0.6493490000000  0.3074740000000 1.0
C      1  0.3406960000000  0.4999230000000  0.3029100000000 1.0
C      1  0.4514660000000  0.3493360000000  0.3030640000000 1.0
C      1  0.6290800000000  0.4076890000000  0.3030950000000 1.0
C      1  0.6285680000000  0.5942340000000  0.3030200000000 1.0
C      1  0.4508230000000  0.6493530000000  0.3074600000000 1.0
C      1  0.5917950000000  0.2909510000000  0.3711070000000 1.0
C      1  0.3289450000000  0.3485060000000  0.3711720000000 1.0
C      1  0.3032700000000  0.6160250000000  0.3715340000000 1.0
C      1  0.5461320000000  0.7169010000000  0.3769150000000 1.0
C      1  0.7278230000000  0.5231610000000  0.3712380000000 1.0
C      1  0.4082120000000  0.2909540000000  0.3710980000000 1.0
C      1  0.6710520000000  0.3484970000000  0.3711710000000 1.0
C      1  0.6967350000000  0.6160160000000  0.3715100000000 1.0
C      1  0.4538690000000  0.7169080000000  0.3769140000000 1.0
C      1  0.2721820000000  0.5231800000000  0.3712390000000 1.0
C      1  0.2629650000000  0.4746030000000  0.6218690000000 1.0
C      1  0.4022840000000  0.7173860000000  0.6210880000000 1.0
C      1  0.6764390000000  0.6612760000000  0.6214700000000 1.0
C      1  0.7071590000000  0.3825390000000  0.6219430000000 1.0
C      1  0.4516030000000  0.2666860000000  0.6218870000000 1.0
C      1  0.7370370000000  0.4746090000000  0.6218620000000 1.0
C      1  0.5976950000000  0.7173800000000  0.6210720000000 1.0
C      1  0.3235560000000  0.6612870000000  0.6214610000000 1.0
C      1  0.2928520000000  0.3825270000000  0.6219340000000 1.0
C      1  0.5483920000000  0.2666850000000  0.6218830000000 1.0
C      1  0.7342740000000  0.5255200000000  0.5394310000000 1.0
C      1  0.5959960000000  0.2853220000000  0.5394650000000 1.0
C      1  0.3250860000000  0.3428670000000  0.5395080000000 1.0
C      1  0.2962060000000  0.6181550000000  0.5391470000000 1.0
C      1  0.5480560000000  0.7281410000000  0.5391070000000 1.0
C      1  0.2657310000000  0.5255410000000  0.5394130000000 1.0
C      1  0.4040040000000  0.2853260000000  0.5394640000000 1.0
C      1  0.6749190000000  0.3428630000000  0.5394920000000 1.0
C      1  0.7037940000000  0.6181470000000  0.5391720000000 1.0
C      1  0.4519640000000  0.7281520000000  0.5391030000000 1.0
END
