TITL C-1525613-7943-2796 0.23868881299705 3375 -9427.81181832876 0 0 60 (D5) n - 1
REM
REM in /home/nfs/bkarasulu/CARBON/AIRSS/Generating-Clusters/ReaxFF-fromJPCA2015/Units_Real/Try2-Higher-symm/Only-C60
REM
REM
REM
REM
REM
REM ./C.cell (863b2abdce7293c0672fb3ba77bf323a)
REM AIRSS Version 0.9.1 bugfix July 2018 build 013d7b7c2542+ Fri, 06 Jul 2018 19:26:36 +0100
REM compiler GCC version 9.2.1 20190827 (Red Hat 9.2.1-1)
REM options -cpp -mtune=generic -march=x86-64 -g -O0 -fpre-include=/usr/include/finclude/math-vector-fortran.h
REM seed 173472199 -1286062450 1857017723 1889409307 885658580 -718084386 513708739 -1244203055 1448472608 275630410 -1807567873 -410198297 -1659361763 -448098924 -891237481 1640137009 -1314359601 -3466848 -1178308536 -863069219 -1733812108 -813842288 -1465330141 -610735267 1056527045 422965456 -1699275048 401731387 688289341 -426921982 -1174445243 -1689306758 1216521262
REM
CELL 1.54180   15.00000   15.00000   15.00000   90.00000   90.00000   90.00000
LATT -1
SFAC C  
C      1  0.3588930000000  0.3914350000000  0.6443240000000 1.0
C      1  0.5592760000000  0.3325410000000  0.6445580000000 1.0
C      1  0.6777490000000  0.5047690000000  0.6449290000000 1.0
C      1  0.5503490000000  0.6709320000000  0.6449670000000 1.0
C      1  0.3529800000000  0.6004770000000  0.6450970000000 1.0
C      1  0.6413200000000  0.3916760000000  0.3567600000000 1.0
C      1  0.4407580000000  0.3323710000000  0.3557910000000 1.0
C      1  0.3219070000000  0.5047720000000  0.3552960000000 1.0
C      1  0.4498610000000  0.6707240000000  0.3547850000000 1.0
C      1  0.6467870000000  0.6009650000000  0.3545390000000 1.0
C      1  0.4975240000000  0.7386780000000  0.4043790000000 1.0
C      1  0.2716280000000  0.5716380000000  0.4039940000000 1.0
C      1  0.3615550000000  0.3048790000000  0.4042240000000 1.0
C      1  0.6423220000000  0.3089650000000  0.4039260000000 1.0
C      1  0.7261710000000  0.5764390000000  0.4038790000000 1.0
C      1  0.5028650000000  0.7398440000000  0.5963850000000 1.0
C      1  0.7278030000000  0.5713200000000  0.5955110000000 1.0
C      1  0.6382410000000  0.3051780000000  0.5958930000000 1.0
C      1  0.3571810000000  0.3078940000000  0.5956290000000 1.0
C      1  0.2733600000000  0.5763650000000  0.5956740000000 1.0
C      1  0.6980670000000  0.6475600000000  0.5568720000000 1.0
C      1  0.4215510000000  0.7340460000000  0.5572070000000 1.0
C      1  0.2524970000000  0.4973610000000  0.5572490000000 1.0
C      1  0.4258720000000  0.2636280000000  0.5566950000000 1.0
C      1  0.7017880000000  0.3565970000000  0.5569260000000 1.0
C      1  0.3016990000000  0.6476530000000  0.4433460000000 1.0
C      1  0.5791490000000  0.7345170000000  0.4436900000000 1.0
C      1  0.7475520000000  0.4971460000000  0.4426500000000 1.0
C      1  0.5742300000000  0.2638460000000  0.4432360000000 1.0
C      1  0.2985620000000  0.3564970000000  0.4432930000000 1.0
C      1  0.4324440000000  0.5447570000000  0.6527890000000 1.0
C      1  0.4365510000000  0.4498820000000  0.6522790000000 1.0
C      1  0.5280680000000  0.4246140000000  0.6524130000000 1.0
C      1  0.5804720000000  0.5037090000000  0.6526590000000 1.0
C      1  0.5214550000000  0.5782170000000  0.6526580000000 1.0
C      1  0.5673000000000  0.5447980000000  0.3463000000000 1.0
C      1  0.5644760000000  0.4491740000000  0.3475740000000 1.0
C      1  0.4720370000000  0.4244420000000  0.3479400000000 1.0
C      1  0.4199170000000  0.5036190000000  0.3471610000000 1.0
C      1  0.4783900000000  0.5781110000000  0.3463360000000 1.0
C      1  0.5843190000000  0.2471020000000  0.5389520000000 1.0
C      1  0.7660290000000  0.5020290000000  0.5388630000000 1.0
C      1  0.5803630000000  0.7546670000000  0.5391530000000 1.0
C      1  0.2834860000000  0.6548430000000  0.5384890000000 1.0
C      1  0.2854770000000  0.3412200000000  0.5384500000000 1.0
C      1  0.4154610000000  0.2466540000000  0.4611770000000 1.0
C      1  0.2335290000000  0.5020200000000  0.4607790000000 1.0
C      1  0.4201660000000  0.7533300000000  0.4616860000000 1.0
C      1  0.7162830000000  0.6546010000000  0.4611730000000 1.0
C      1  0.7144300000000  0.3418300000000  0.4613280000000 1.0
C      1  0.4913920000000  0.2635650000000  0.4031260000000 1.0
C      1  0.7218910000000  0.4189960000000  0.4020170000000 1.0
C      1  0.6454230000000  0.6860870000000  0.4026560000000 1.0
C      1  0.3682390000000  0.6956990000000  0.4028430000000 1.0
C      1  0.2729790000000  0.4352640000000  0.4030130000000 1.0
C      1  0.5083470000000  0.2638150000000  0.5970520000000 1.0
C      1  0.2778870000000  0.4187100000000  0.5969480000000 1.0
C      1  0.3544680000000  0.6858210000000  0.5975100000000 1.0
C      1  0.6320360000000  0.6966050000000  0.5975650000000 1.0
C      1  0.7271840000000  0.4351030000000  0.5974090000000 1.0
END
