TITL C-1525613-7943-2617 -0.000167134865589576 3375 -8674.94736897803 0 0 60 (C5) n - 1
REM
REM in /home/nfs/bkarasulu/CARBON/AIRSS/Generating-Clusters/ReaxFF-fromJPCA2015/Units_Real/Try2-Higher-symm/Only-C60
REM
REM
REM
REM
REM
REM ./C.cell (863b2abdce7293c0672fb3ba77bf323a)
REM AIRSS Version 0.9.1 bugfix July 2018 build 013d7b7c2542+ Fri, 06 Jul 2018 19:26:36 +0100
REM compiler GCC version 9.2.1 20190827 (Red Hat 9.2.1-1)
REM options -cpp -mtune=generic -march=x86-64 -g -O0 -fpre-include=/usr/include/finclude/math-vector-fortran.h
REM seed 1529030683 -1835907122 1447912054 407850287 2107367011 -1101256230 1003218826 -1739991862 -602052903 629187376 -946165341 -1654675379 -1790912383 85220989 -487537600 -722168499 247119134 -1581477662 -1780249481 114674634 677765601 32677527 -614854755 964022220 1689929481 -1221590742 1944343144 1801364264 1242014628 -396964011 -1630847053 2110181510 -1371629880
REM
CELL 1.54180   15.00000   15.00000   15.00000   90.00000   90.00000   90.00000
LATT -1
SFAC C  
C      1  0.3715020000000  0.5940460000000  0.6812210000000 1.0
C      1  0.5498840000000  0.6515630000000  0.6812760000000 1.0
C      1  0.6596210000000  0.4994090000000  0.6811860000000 1.0
C      1  0.5488470000000  0.3480200000000  0.6811020000000 1.0
C      1  0.3706930000000  0.4065950000000  0.6811320000000 1.0
C      1  0.6285480000000  0.5941270000000  0.6812650000000 1.0
C      1  0.4501540000000  0.6515730000000  0.6812070000000 1.0
C      1  0.3405110000000  0.4994310000000  0.6811610000000 1.0
C      1  0.4513720000000  0.3482780000000  0.6811020000000 1.0
C      1  0.6293020000000  0.4068240000000  0.6811580000000 1.0
C      1  0.7340370000000  0.4757100000000  0.3901280000000 1.0
C      1  0.5492220000000  0.2698180000000  0.3899900000000 1.0
C      1  0.2962360000000  0.3819080000000  0.3898330000000 1.0
C      1  0.3252340000000  0.6565750000000  0.3911150000000 1.0
C      1  0.5951670000000  0.7149190000000  0.3907050000000 1.0
C      1  0.2657540000000  0.4758530000000  0.3899000000000 1.0
C      1  0.4504810000000  0.2704880000000  0.3908550000000 1.0
C      1  0.7029120000000  0.3820070000000  0.3910100000000 1.0
C      1  0.6747560000000  0.6564690000000  0.3912630000000 1.0
C      1  0.4048040000000  0.7150670000000  0.3905240000000 1.0
C      1  0.5490380000000  0.6521430000000  0.3291320000000 1.0
C      1  0.6599690000000  0.5001250000000  0.3287060000000 1.0
C      1  0.5495860000000  0.3476990000000  0.3284510000000 1.0
C      1  0.3705580000000  0.4056460000000  0.3284970000000 1.0
C      1  0.3705340000000  0.5935380000000  0.3293420000000 1.0
C      1  0.4509520000000  0.6522550000000  0.3289940000000 1.0
C      1  0.3398870000000  0.5003620000000  0.3286360000000 1.0
C      1  0.4500200000000  0.3481610000000  0.3291320000000 1.0
C      1  0.6287700000000  0.4055730000000  0.3294160000000 1.0
C      1  0.6293910000000  0.5933310000000  0.3296080000000 1.0
C      1  0.6289060000000  0.5928830000000  0.5224210000000 1.0
C      1  0.6282520000000  0.4063330000000  0.5223050000000 1.0
C      1  0.4505950000000  0.3491780000000  0.5221740000000 1.0
C      1  0.3409790000000  0.5005380000000  0.5217340000000 1.0
C      1  0.4515520000000  0.6513390000000  0.5217340000000 1.0
C      1  0.3712000000000  0.5928760000000  0.5223110000000 1.0
C      1  0.3717390000000  0.4061000000000  0.5216460000000 1.0
C      1  0.5499220000000  0.3489670000000  0.5214730000000 1.0
C      1  0.6592210000000  0.5007550000000  0.5216550000000 1.0
C      1  0.5485190000000  0.6513780000000  0.5218780000000 1.0
C      1  0.7416610000000  0.5261840000000  0.4742010000000 1.0
C      1  0.5995770000000  0.2783960000000  0.4740370000000 1.0
C      1  0.3201250000000  0.3370900000000  0.4740800000000 1.0
C      1  0.2905230000000  0.6195200000000  0.4752880000000 1.0
C      1  0.5493690000000  0.7373960000000  0.4747070000000 1.0
C      1  0.2586440000000  0.5260550000000  0.4741970000000 1.0
C      1  0.4008580000000  0.2802590000000  0.4751330000000 1.0
C      1  0.6784720000000  0.3377840000000  0.4753080000000 1.0
C      1  0.7096020000000  0.6196180000000  0.4754520000000 1.0
C      1  0.4505860000000  0.7376080000000  0.4745180000000 1.0
C      1  0.6637990000000  0.6424070000000  0.6027020000000 1.0
C      1  0.6860370000000  0.3884240000000  0.6024840000000 1.0
C      1  0.4513880000000  0.2886690000000  0.6023590000000 1.0
C      1  0.2833650000000  0.4813990000000  0.6025440000000 1.0
C      1  0.4156400000000  0.7007410000000  0.6029070000000 1.0
C      1  0.3363120000000  0.6423100000000  0.6025660000000 1.0
C      1  0.3138870000000  0.3876160000000  0.6024930000000 1.0
C      1  0.5499130000000  0.2879800000000  0.6027590000000 1.0
C      1  0.7171900000000  0.4819020000000  0.6029130000000 1.0
C      1  0.5844240000000  0.7007810000000  0.6029750000000 1.0
END
