TITL C-1525613-7943-1731 -0.095668535987066 3375 -8970.75919321052 0 0 60 (C1) n - 1
REM
REM in /home/nfs/bkarasulu/CARBON/AIRSS/Generating-Clusters/ReaxFF-fromJPCA2015/Units_Real/Try2-Higher-symm/Only-C60
REM
REM
REM
REM
REM
REM ./C.cell (863b2abdce7293c0672fb3ba77bf323a)
REM AIRSS Version 0.9.1 bugfix July 2018 build 013d7b7c2542+ Fri, 06 Jul 2018 19:26:36 +0100
REM compiler GCC version 9.2.1 20190827 (Red Hat 9.2.1-1)
REM options -cpp -mtune=generic -march=x86-64 -g -O0 -fpre-include=/usr/include/finclude/math-vector-fortran.h
REM seed -753013756 -710351371 670829484 -1340526733 -1793934748 -1389657236 1283472119 -1255622008 1527309008 142446488 -2115021172 1010643763 1553498690 1237536816 1765540059 -2109129672 -2067839379 287609663 343215766 979233869 2050572342 -1934676706 51518775 -1650376634 -2092187885 938208045 353765752 -1669155008 -300288860 -1619982412 -413853728 1285754477 1751299470
REM
CELL 1.54180   15.00000   15.00000   15.00000   90.00000   90.00000   90.00000
LATT -1
SFAC C  
C      1  0.5305680000000  0.2933820000000  0.2467080000000 1.0
C      1  0.5637930000000  0.4810780000000  0.1685980000000 1.0
C      1  0.5240030000000  0.6781670000000  0.2453900000000 1.0
C      1  0.5759040000000  0.8122130000000  0.3901420000000 1.0
C      1  0.5467140000000  0.8192440000000  0.5962770000000 1.0
C      1  0.5508750000000  0.6870140000000  0.7556880000000 1.0
C      1  0.5173430000000  0.4771610000000  0.8060820000000 1.0
C      1  0.5622600000000  0.3527220000000  0.7639570000000 1.0
C      1  0.5251930000000  0.2120550000000  0.5926600000000 1.0
C      1  0.5519710000000  0.2255380000000  0.3760980000000 1.0
C      1  0.5763740000000  0.5995230000000  0.7342940000000 1.0
C      1  0.5943630000000  0.4449160000000  0.7502280000000 1.0
C      1  0.5707110000000  0.3110540000000  0.6763200000000 1.0
C      1  0.5707150000000  0.2488700000000  0.5223040000000 1.0
C      1  0.6080850000000  0.3011290000000  0.3892200000000 1.0
C      1  0.5550860000000  0.3876870000000  0.2791820000000 1.0
C      1  0.5734740000000  0.5514300000000  0.2397750000000 1.0
C      1  0.5634940000000  0.6821780000000  0.3278320000000 1.0
C      1  0.5850880000000  0.7534760000000  0.4708460000000 1.0
C      1  0.5613680000000  0.7225190000000  0.6272210000000 1.0
C      1  0.4999240000000  0.7600990000000  0.3438380000000 1.0
C      1  0.5005010000000  0.7979980000000  0.5105650000000 1.0
C      1  0.4871770000000  0.7242340000000  0.6972910000000 1.0
C      1  0.4924290000000  0.5684980000000  0.7826700000000 1.0
C      1  0.4728590000000  0.3902480000000  0.7918310000000 1.0
C      1  0.4902120000000  0.2513570000000  0.6694040000000 1.0
C      1  0.5043380000000  0.2072720000000  0.4604990000000 1.0
C      1  0.4756710000000  0.2447060000000  0.3134320000000 1.0
C      1  0.4905850000000  0.4254800000000  0.2135710000000 1.0
C      1  0.4853300000000  0.5991680000000  0.2165960000000 1.0
C      1  0.3823610000000  0.4582870000000  0.3496440000000 1.0
C      1  0.3798800000000  0.5583540000000  0.3541400000000 1.0
C      1  0.3896330000000  0.6338870000000  0.4153470000000 1.0
C      1  0.3852180000000  0.6581230000000  0.5120510000000 1.0
C      1  0.3757510000000  0.6230130000000  0.6020030000000 1.0
C      1  0.3792130000000  0.5371650000000  0.6531840000000 1.0
C      1  0.3781750000000  0.4404580000000  0.6492270000000 1.0
C      1  0.3824650000000  0.3631060000000  0.5874850000000 1.0
C      1  0.3902690000000  0.3407350000000  0.4925390000000 1.0
C      1  0.3781690000000  0.3749240000000  0.3999610000000 1.0
C      1  0.3994300000000  0.2832170000000  0.3646650000000 1.0
C      1  0.4074490000000  0.4644160000000  0.2536000000000 1.0
C      1  0.4032200000000  0.5617080000000  0.2573680000000 1.0
C      1  0.4189730000000  0.7272670000000  0.3947090000000 1.0
C      1  0.4146680000000  0.7508320000000  0.4888230000000 1.0
C      1  0.4041110000000  0.6716160000000  0.6841790000000 1.0
C      1  0.4078580000000  0.5875360000000  0.7338870000000 1.0
C      1  0.4001530000000  0.3795720000000  0.7264540000000 1.0
C      1  0.4047600000000  0.3042320000000  0.6642970000000 1.0
C      1  0.4142930000000  0.2514900000000  0.4554080000000 1.0
C      1  0.5947070000000  0.5316700000000  0.3387650000000 1.0
C      1  0.5913420000000  0.6119400000000  0.3921700000000 1.0
C      1  0.5984140000000  0.6546970000000  0.4803350000000 1.0
C      1  0.5872620000000  0.6385490000000  0.5755570000000 1.0
C      1  0.5954420000000  0.5665940000000  0.6408800000000 1.0
C      1  0.6043290000000  0.4704680000000  0.6548650000000 1.0
C      1  0.5967440000000  0.3821040000000  0.6099580000000 1.0
C      1  0.6015250000000  0.3468520000000  0.5217130000000 1.0
C      1  0.6322070000000  0.3799270000000  0.4319780000000 1.0
C      1  0.5955710000000  0.4368430000000  0.3562890000000 1.0
END
