TITL C-1525613-7943-3292 -0.0571917565649892 3375 -9095.26423142129 0 0 60 (C5v) n - 1
REM
REM in /home/nfs/bkarasulu/CARBON/AIRSS/Generating-Clusters/ReaxFF-fromJPCA2015/Units_Real/Try2-Higher-symm/Only-C60
REM
REM
REM
REM
REM
REM ./C.cell (863b2abdce7293c0672fb3ba77bf323a)
REM AIRSS Version 0.9.1 bugfix July 2018 build 013d7b7c2542+ Fri, 06 Jul 2018 19:26:36 +0100
REM compiler GCC version 9.2.1 20190827 (Red Hat 9.2.1-1)
REM options -cpp -mtune=generic -march=x86-64 -g -O0 -fpre-include=/usr/include/finclude/math-vector-fortran.h
REM seed -1717655130 1878500918 1204956350 1738405860 -1058240077 -918264724 853642952 -22856641 -953322835 1161308452 386703613 790315568 -1815334477 457061408 1185497185 2021159999 388424313 2098286625 596440270 1865181803 -266767577 -575221947 -1614775174 -1378338114 1570488017 1182062486 1215747033 803616909 -1800217655 1005237760 -266635478 -1752346915 -1152183268
REM
CELL 1.54180   15.00000   15.00000   15.00000   90.00000   90.00000   90.00000
LATT -1
SFAC C  
C      1  0.5922060000000  0.3234020000000  0.3727630000000 1.0
C      1  0.6494900000000  0.3241010000000  0.5486490000000 1.0
C      1  0.4998590000000  0.3228250000000  0.6573400000000 1.0
C      1  0.3502590000000  0.3234750000000  0.5487500000000 1.0
C      1  0.4072430000000  0.3231970000000  0.3728380000000 1.0
C      1  0.5921030000000  0.3240860000000  0.6272260000000 1.0
C      1  0.6495420000000  0.3230430000000  0.4515590000000 1.0
C      1  0.4999270000000  0.3231070000000  0.3427110000000 1.0
C      1  0.3501780000000  0.3238560000000  0.4513810000000 1.0
C      1  0.4073050000000  0.3231450000000  0.6271160000000 1.0
C      1  0.7285780000000  0.6251580000000  0.4513100000000 1.0
C      1  0.6158620000000  0.6253160000000  0.7011690000000 1.0
C      1  0.3466110000000  0.6230780000000  0.6730500000000 1.0
C      1  0.2868910000000  0.6252240000000  0.4059920000000 1.0
C      1  0.5243150000000  0.6245860000000  0.2671890000000 1.0
C      1  0.7279640000000  0.6255520000000  0.5491960000000 1.0
C      1  0.6174600000000  0.6247180000000  0.2973990000000 1.0
C      1  0.3439860000000  0.6250740000000  0.3264530000000 1.0
C      1  0.2882140000000  0.6249210000000  0.5948070000000 1.0
C      1  0.5226970000000  0.6231580000000  0.7301720000000 1.0
C      1  0.4734140000000  0.3647030000000  0.7446130000000 1.0
C      1  0.2593520000000  0.3663040000000  0.5506190000000 1.0
C      1  0.3776070000000  0.3653690000000  0.2867890000000 1.0
C      1  0.6650830000000  0.3653500000000  0.3179990000000 1.0
C      1  0.7239680000000  0.3664400000000  0.6009620000000 1.0
C      1  0.4732850000000  0.3651670000000  0.2555630000000 1.0
C      1  0.2592050000000  0.3661250000000  0.4499370000000 1.0
C      1  0.3774820000000  0.3647560000000  0.7135900000000 1.0
C      1  0.6645760000000  0.3667360000000  0.6822500000000 1.0
C      1  0.7241210000000  0.3653940000000  0.3995000000000 1.0
C      1  0.3740590000000  0.5440750000000  0.7254240000000 1.0
C      1  0.2479030000000  0.5456550000000  0.4502430000000 1.0
C      1  0.4699550000000  0.5445770000000  0.2450790000000 1.0
C      1  0.7334000000000  0.5449810000000  0.3930770000000 1.0
C      1  0.6740430000000  0.5466170000000  0.6894460000000 1.0
C      1  0.3743850000000  0.5448080000000  0.2766460000000 1.0
C      1  0.2481590000000  0.5462030000000  0.5511540000000 1.0
C      1  0.4696150000000  0.5438940000000  0.7561080000000 1.0
C      1  0.7336880000000  0.5460950000000  0.6081060000000 1.0
C      1  0.6745610000000  0.5447830000000  0.3113430000000 1.0
C      1  0.7622040000000  0.4548820000000  0.4200640000000 1.0
C      1  0.6569490000000  0.4561520000000  0.7245230000000 1.0
C      1  0.3344970000000  0.4539100000000  0.7202550000000 1.0
C      1  0.2400130000000  0.4556890000000  0.4113260000000 1.0
C      1  0.5044990000000  0.4546030000000  0.2253720000000 1.0
C      1  0.7622870000000  0.4559690000000  0.5810910000000 1.0
C      1  0.6577370000000  0.4548390000000  0.2752830000000 1.0
C      1  0.3347530000000  0.4549160000000  0.2810260000000 1.0
C      1  0.2409090000000  0.4557100000000  0.5894270000000 1.0
C      1  0.5045910000000  0.4538170000000  0.7753770000000 1.0
C      1  0.6498700000000  0.6868350000000  0.5492360000000 1.0
C      1  0.4980870000000  0.6815360000000  0.6554130000000 1.0
C      1  0.3511330000000  0.6865300000000  0.5489230000000 1.0
C      1  0.4072110000000  0.6876160000000  0.3707550000000 1.0
C      1  0.5945230000000  0.6877250000000  0.3706200000000 1.0
C      1  0.6512360000000  0.6875420000000  0.4498210000000 1.0
C      1  0.4996380000000  0.6873690000000  0.3400070000000 1.0
C      1  0.3497720000000  0.6866510000000  0.4519220000000 1.0
C      1  0.4098030000000  0.6818350000000  0.6270340000000 1.0
C      1  0.5917380000000  0.6868240000000  0.6270140000000 1.0
END
