TITL C-1525613-7943-7146 0.0573923495437165 3375 -8540.46770932897 0 0 60 (C2) n - 1
REM
REM in /home/nfs/bkarasulu/CARBON/AIRSS/Generating-Clusters/ReaxFF-fromJPCA2015/Units_Real/Try2-Higher-symm/Only-C60
REM
REM
REM
REM
REM
REM ./C.cell (863b2abdce7293c0672fb3ba77bf323a)
REM AIRSS Version 0.9.1 bugfix July 2018 build 013d7b7c2542+ Fri, 06 Jul 2018 19:26:36 +0100
REM compiler GCC version 9.2.1 20190827 (Red Hat 9.2.1-1)
REM options -cpp -mtune=generic -march=x86-64 -g -O0 -fpre-include=/usr/include/finclude/math-vector-fortran.h
REM seed -282540656 914368005 -588671623 1221619627 143901554 -1713779267 1940070342 -1439539205 1478100778 -1757722154 -2064546544 1104595122 177722854 -2145590123 901313461 -165121489 1572770462 -437644497 -49802461 -1109151177 271963790 -1675874808 -1562624112 1753960585 -1777818175 -1861768097 1542361894 -1483989229 934959666 -1309222891 -1176909639 2116840729 -974367291
REM
CELL 1.54180   15.00000   15.00000   15.00000   90.00000   90.00000   90.00000
LATT -1
SFAC C  
C      1  0.6238590000000  0.5429540000000  0.6322970000000 1.0
C      1  0.6039370000000  0.3670860000000  0.5791580000000 1.0
C      1  0.6427610000000  0.3966090000000  0.3770530000000 1.0
C      1  0.6439730000000  0.5811320000000  0.3640770000000 1.0
C      1  0.6378920000000  0.6455710000000  0.5249990000000 1.0
C      1  0.3761440000000  0.4570530000000  0.6323100000000 1.0
C      1  0.3960620000000  0.6329180000000  0.5791640000000 1.0
C      1  0.3572380000000  0.6034030000000  0.3770210000000 1.0
C      1  0.3560320000000  0.4188580000000  0.3640750000000 1.0
C      1  0.3621140000000  0.3544300000000  0.5250030000000 1.0
C      1  0.4661010000000  0.6124250000000  0.2984900000000 1.0
C      1  0.4713360000000  0.7078040000000  0.5588810000000 1.0
C      1  0.4817120000000  0.5467290000000  0.7215110000000 1.0
C      1  0.4651320000000  0.2949810000000  0.6314130000000 1.0
C      1  0.4654930000000  0.3421140000000  0.3353560000000 1.0
C      1  0.5339010000000  0.3875750000000  0.2984960000000 1.0
C      1  0.5286640000000  0.2922040000000  0.5588800000000 1.0
C      1  0.5182890000000  0.4532680000000  0.7215120000000 1.0
C      1  0.5348710000000  0.7050180000000  0.6314110000000 1.0
C      1  0.5345080000000  0.6578830000000  0.3353540000000 1.0
C      1  0.3001040000000  0.4891170000000  0.5796200000000 1.0
C      1  0.2878510000000  0.4188990000000  0.5107150000000 1.0
C      1  0.2864680000000  0.4640960000000  0.4261840000000 1.0
C      1  0.2923290000000  0.5591230000000  0.4475470000000 1.0
C      1  0.3137910000000  0.5760660000000  0.5391930000000 1.0
C      1  0.6998760000000  0.5108820000000  0.5795990000000 1.0
C      1  0.7121430000000  0.5810980000000  0.5107220000000 1.0
C      1  0.7135240000000  0.5358910000000  0.4262000000000 1.0
C      1  0.7076590000000  0.4408770000000  0.4475470000000 1.0
C      1  0.6862030000000  0.4239460000000  0.5391780000000 1.0
C      1  0.4270990000000  0.4602900000000  0.4188830000000 1.0
C      1  0.4282110000000  0.5527670000000  0.4230380000000 1.0
C      1  0.4501360000000  0.5768670000000  0.5161160000000 1.0
C      1  0.4475910000000  0.4949330000000  0.5743870000000 1.0
C      1  0.4443330000000  0.4193500000000  0.5068200000000 1.0
C      1  0.5729070000000  0.5396960000000  0.4188900000000 1.0
C      1  0.5717740000000  0.4472350000000  0.4230430000000 1.0
C      1  0.5498700000000  0.4231360000000  0.5161010000000 1.0
C      1  0.5524190000000  0.5050650000000  0.5743890000000 1.0
C      1  0.5556750000000  0.5806460000000  0.5068190000000 1.0
C      1  0.5235100000000  0.3137530000000  0.7096320000000 1.0
C      1  0.5152790000000  0.2795800000000  0.3848850000000 1.0
C      1  0.5165090000000  0.5508230000000  0.2491780000000 1.0
C      1  0.5159820000000  0.7385910000000  0.4808980000000 1.0
C      1  0.5440090000000  0.6210070000000  0.7443460000000 1.0
C      1  0.4764920000000  0.6862500000000  0.7096320000000 1.0
C      1  0.4847310000000  0.7204210000000  0.3848850000000 1.0
C      1  0.4834970000000  0.4491780000000  0.2491770000000 1.0
C      1  0.4840250000000  0.2614090000000  0.4808970000000 1.0
C      1  0.4559950000000  0.3789910000000  0.7443490000000 1.0
C      1  0.6002300000000  0.6324410000000  0.6634750000000 1.0
C      1  0.5783040000000  0.3888520000000  0.6760090000000 1.0
C      1  0.6144920000000  0.3006210000000  0.3681520000000 1.0
C      1  0.6148290000000  0.5707210000000  0.2675330000000 1.0
C      1  0.6178390000000  0.7349920000000  0.4901680000000 1.0
C      1  0.3997710000000  0.3675530000000  0.6634770000000 1.0
C      1  0.4216950000000  0.6111460000000  0.6760130000000 1.0
C      1  0.3855000000000  0.6993970000000  0.3681530000000 1.0
C      1  0.3851740000000  0.4292790000000  0.2675240000000 1.0
C      1  0.3821590000000  0.2649990000000  0.4901650000000 1.0
END
