TITL C-1525613-7943-6396 -0.0330462388867965 3375 -8874.9023867885 0 0 60 (C1) n - 1
REM
REM in /home/nfs/bkarasulu/CARBON/AIRSS/Generating-Clusters/ReaxFF-fromJPCA2015/Units_Real/Try2-Higher-symm/Only-C60
REM
REM
REM
REM
REM
REM ./C.cell (863b2abdce7293c0672fb3ba77bf323a)
REM AIRSS Version 0.9.1 bugfix July 2018 build 013d7b7c2542+ Fri, 06 Jul 2018 19:26:36 +0100
REM compiler GCC version 9.2.1 20190827 (Red Hat 9.2.1-1)
REM options -cpp -mtune=generic -march=x86-64 -g -O0 -fpre-include=/usr/include/finclude/math-vector-fortran.h
REM seed -578992227 -677949700 -676052131 1313211040 466453997 -895441482 -1198922002 -1368142457 -1273960337 -1096746843 1300280704 -1294845369 1174431148 1805230640 -780102636 560992203 -1865754513 -1239556442 -1246171422 60475278 1813081117 -429310383 1642458870 1673311121 -1815129447 -1767988953 1616363340 -1823411772 213389167 -784142245 -916470636 -1373845450 1846774121
REM
CELL 1.54180   15.00000   15.00000   15.00000   90.00000   90.00000   90.00000
LATT -1
SFAC C  
C      1  0.6215740000000  0.6730970000000  0.6381910000000 1.0
C      1  0.6197950000000  0.6739250000000  0.3880690000000 1.0
C      1  0.6182080000000  0.4449590000000  0.2979630000000 1.0
C      1  0.6184820000000  0.2904450000000  0.4877990000000 1.0
C      1  0.6202810000000  0.4284520000000  0.6926490000000 1.0
C      1  0.3826450000000  0.6619360000000  0.3700390000000 1.0
C      1  0.3771050000000  0.6818670000000  0.6230940000000 1.0
C      1  0.3818280000000  0.4417310000000  0.7096710000000 1.0
C      1  0.3803020000000  0.2911640000000  0.5096860000000 1.0
C      1  0.3827790000000  0.4246210000000  0.3034170000000 1.0
C      1  0.3889020000000  0.5136090000000  0.3209080000000 1.0
C      1  0.3882770000000  0.3337090000000  0.4295310000000 1.0
C      1  0.3861380000000  0.3874820000000  0.6356850000000 1.0
C      1  0.3826610000000  0.5922590000000  0.6461570000000 1.0
C      1  0.3889870000000  0.6701630000000  0.4603440000000 1.0
C      1  0.6134850000000  0.5171370000000  0.6729030000000 1.0
C      1  0.6081930000000  0.3360500000000  0.5662880000000 1.0
C      1  0.6108460000000  0.3829190000000  0.3640870000000 1.0
C      1  0.6122170000000  0.5926880000000  0.3471450000000 1.0
C      1  0.6150430000000  0.6678270000000  0.5455220000000 1.0
C      1  0.5852010000000  0.7483660000000  0.4090910000000 1.0
C      1  0.5851800000000  0.4856660000000  0.2314400000000 1.0
C      1  0.5836120000000  0.2390280000000  0.4302770000000 1.0
C      1  0.5848040000000  0.3584670000000  0.7237120000000 1.0
C      1  0.5808690000000  0.6706760000000  0.7106250000000 1.0
C      1  0.4165410000000  0.7513480000000  0.5993160000000 1.0
C      1  0.4169940000000  0.4884060000000  0.7680810000000 1.0
C      1  0.4143200000000  0.2427360000000  0.5702840000000 1.0
C      1  0.4160980000000  0.3527100000000  0.2727860000000 1.0
C      1  0.4174100000000  0.6691810000000  0.2927630000000 1.0
C      1  0.3544140000000  0.5387220000000  0.5685070000000 1.0
C      1  0.3542620000000  0.5794590000000  0.4797670000000 1.0
C      1  0.3567630000000  0.5067030000000  0.4140510000000 1.0
C      1  0.3586280000000  0.4219530000000  0.4637170000000 1.0
C      1  0.3572130000000  0.4428950000000  0.5590330000000 1.0
C      1  0.6425240000000  0.5407770000000  0.4259050000000 1.0
C      1  0.6437830000000  0.5788770000000  0.5152150000000 1.0
C      1  0.6468880000000  0.5070070000000  0.5798950000000 1.0
C      1  0.6427640000000  0.4214940000000  0.5311090000000 1.0
C      1  0.6424060000000  0.4426730000000  0.4358930000000 1.0
C      1  0.5452590000000  0.5816030000000  0.7085960000000 1.0
C      1  0.5504610000000  0.7265820000000  0.4959720000000 1.0
C      1  0.5493020000000  0.5636420000000  0.2747240000000 1.0
C      1  0.5478890000000  0.3045700000000  0.3696720000000 1.0
C      1  0.5463120000000  0.3208420000000  0.6438170000000 1.0
C      1  0.4527150000000  0.5806920000000  0.2815680000000 1.0
C      1  0.4537980000000  0.7240060000000  0.5151440000000 1.0
C      1  0.4484150000000  0.5619590000000  0.7162760000000 1.0
C      1  0.4498370000000  0.3101670000000  0.6287770000000 1.0
C      1  0.4514060000000  0.3148090000000  0.3539070000000 1.0
C      1  0.4694990000000  0.7408620000000  0.3025420000000 1.0
C      1  0.4684470000000  0.3824640000000  0.2072900000000 1.0
C      1  0.4666120000000  0.1880260000000  0.5233230000000 1.0
C      1  0.4719500000000  0.4294390000000  0.8074470000000 1.0
C      1  0.4641380000000  0.7687800000000  0.6689020000000 1.0
C      1  0.5326210000000  0.7418100000000  0.7058950000000 1.0
C      1  0.5364320000000  0.3898000000000  0.7913670000000 1.0
C      1  0.5307840000000  0.1876800000000  0.4802280000000 1.0
C      1  0.5325720000000  0.4236280000000  0.1951020000000 1.0
C      1  0.5331300000000  0.7654560000000  0.3388340000000 1.0
END
