TITL C-1525613-7943-2487 -0.0923709002229868 3375 -8850.00953498575 0 0 60 (Ci) n - 1
REM
REM in /home/nfs/bkarasulu/CARBON/AIRSS/Generating-Clusters/ReaxFF-fromJPCA2015/Units_Real/Try2-Higher-symm/Only-C60
REM
REM
REM
REM
REM
REM ./C.cell (863b2abdce7293c0672fb3ba77bf323a)
REM AIRSS Version 0.9.1 bugfix July 2018 build 013d7b7c2542+ Fri, 06 Jul 2018 19:26:36 +0100
REM compiler GCC version 9.2.1 20190827 (Red Hat 9.2.1-1)
REM options -cpp -mtune=generic -march=x86-64 -g -O0 -fpre-include=/usr/include/finclude/math-vector-fortran.h
REM seed -502382681 -347657714 594946773 384088049 6522379 -654386581 -15974629 -204673299 1021030683 1203069801 -1611267797 -909160833 -89326437 -2069449957 -1536615496 -959542805 -1664508491 110447163 1626066776 -573873995 1908897122 921780046 -153636835 1333599755 -304100440 -567433416 79774129 711030061 1188196742 -811855294 -2002471685 82662799 -258564421
REM
CELL 1.54180   15.00000   15.00000   15.00000   90.00000   90.00000   90.00000
LATT -1
SFAC C  
C      1  0.5482520000000  0.6229460000000  0.6742510000000 1.0
C      1  0.4527590000000  0.7026830000000  0.5693790000000 1.0
C      1  0.5453820000000  0.7014590000000  0.4362420000000 1.0
C      1  0.4380030000000  0.6321860000000  0.3115610000000 1.0
C      1  0.5496660000000  0.5044680000000  0.2900330000000 1.0
C      1  0.4517520000000  0.3769060000000  0.3257110000000 1.0
C      1  0.5471680000000  0.2973810000000  0.4306980000000 1.0
C      1  0.4545960000000  0.2986390000000  0.5638490000000 1.0
C      1  0.5621670000000  0.3677110000000  0.6884720000000 1.0
C      1  0.4503860000000  0.4955210000000  0.7099470000000 1.0
C      1  0.5721950000000  0.4448100000000  0.4417120000000 1.0
C      1  0.4284360000000  0.4215390000000  0.4826190000000 1.0
C      1  0.5694720000000  0.4268740000000  0.5336500000000 1.0
C      1  0.4287540000000  0.4612730000000  0.5685160000000 1.0
C      1  0.5680880000000  0.5099300000000  0.5792400000000 1.0
C      1  0.4278690000000  0.5551630000000  0.5583960000000 1.0
C      1  0.5716820000000  0.5785340000000  0.5172480000000 1.0
C      1  0.4307150000000  0.5732170000000  0.4663170000000 1.0
C      1  0.5714280000000  0.5384290000000  0.4312970000000 1.0
C      1  0.4320250000000  0.4899110000000  0.4206880000000 1.0
C      1  0.7145730000000  0.3897250000000  0.5773480000000 1.0
C      1  0.2880140000000  0.4569550000000  0.6245070000000 1.0
C      1  0.7096060000000  0.5358740000000  0.6270700000000 1.0
C      1  0.2732650000000  0.6155570000000  0.5835660000000 1.0
C      1  0.7261530000000  0.6425620000000  0.5011940000000 1.0
C      1  0.2855340000000  0.6103340000000  0.4226820000000 1.0
C      1  0.7119650000000  0.5430830000000  0.3754300000000 1.0
C      1  0.2901510000000  0.4640340000000  0.3729010000000 1.0
C      1  0.7267110000000  0.3845200000000  0.4164330000000 1.0
C      1  0.2738450000000  0.3574420000000  0.4987820000000 1.0
C      1  0.4511090000000  0.6317440000000  0.6406210000000 1.0
C      1  0.5483170000000  0.6896040000000  0.5373860000000 1.0
C      1  0.4514040000000  0.6727370000000  0.4231330000000 1.0
C      1  0.5509110000000  0.5904340000000  0.3365340000000 1.0
C      1  0.4512230000000  0.4758560000000  0.3124110000000 1.0
C      1  0.5488920000000  0.3682500000000  0.3593650000000 1.0
C      1  0.4515440000000  0.3105840000000  0.4626820000000 1.0
C      1  0.5485920000000  0.3273430000000  0.5770150000000 1.0
C      1  0.4490570000000  0.4095570000000  0.6633390000000 1.0
C      1  0.5488190000000  0.5240450000000  0.6875210000000 1.0
C      1  0.7027320000000  0.3385460000000  0.4995770000000 1.0
C      1  0.2969230000000  0.3685790000000  0.5931680000000 1.0
C      1  0.7121500000000  0.4466070000000  0.6541680000000 1.0
C      1  0.2973860000000  0.5479700000000  0.6509620000000 1.0
C      1  0.7008810000000  0.6248680000000  0.5950160000000 1.0
C      1  0.2971090000000  0.6615970000000  0.5004110000000 1.0
C      1  0.7030040000000  0.6314270000000  0.4068280000000 1.0
C      1  0.2878570000000  0.5533980000000  0.3459310000000 1.0
C      1  0.7026350000000  0.4520760000000  0.3489820000000 1.0
C      1  0.2989860000000  0.3750470000000  0.4049440000000 1.0
C      1  0.3928200000000  0.7066630000000  0.4959060000000 1.0
C      1  0.6077600000000  0.6619690000000  0.3754210000000 1.0
C      1  0.3809160000000  0.5543010000000  0.2983320000000 1.0
C      1  0.6105800000000  0.4335680000000  0.3074590000000 1.0
C      1  0.3903660000000  0.3320190000000  0.3819630000000 1.0
C      1  0.6070440000000  0.2933760000000  0.5042400000000 1.0
C      1  0.3922000000000  0.3381140000000  0.6245480000000 1.0
C      1  0.6191500000000  0.4456400000000  0.7018240000000 1.0
C      1  0.3894460000000  0.5664240000000  0.6925210000000 1.0
C      1  0.6095710000000  0.6679920000000  0.6180560000000 1.0
END
