TITL C-1525613-7943-4546 -0.0331815597351068 3375 -8785.61938241402 0 0 60 (C1) n - 1
REM
REM in /home/nfs/bkarasulu/CARBON/AIRSS/Generating-Clusters/ReaxFF-fromJPCA2015/Units_Real/Try2-Higher-symm/Only-C60
REM
REM
REM
REM
REM
REM ./C.cell (863b2abdce7293c0672fb3ba77bf323a)
REM AIRSS Version 0.9.1 bugfix July 2018 build 013d7b7c2542+ Fri, 06 Jul 2018 19:26:36 +0100
REM compiler GCC version 9.2.1 20190827 (Red Hat 9.2.1-1)
REM options -cpp -mtune=generic -march=x86-64 -g -O0 -fpre-include=/usr/include/finclude/math-vector-fortran.h
REM seed 285411517 -1039448341 1835807571 -749401838 -1683068153 -114197501 1472367717 -1063571430 1873393187 -700338583 -1121488245 441448598 1588853657 -560618995 -115437607 -1625467069 -409218690 940015226 -1706817532 -736245765 -1140605125 1880478068 1205749647 595711474 558172351 -1752869322 -371803009 -281551489 1231486915 882290857 2025859974 180212130 435606929
REM
CELL 1.54180   15.00000   15.00000   15.00000   90.00000   90.00000   90.00000
LATT -1
SFAC C  
C      1  0.4502950000000  0.5467360000000  0.7233010000000 1.0
C      1  0.6953760000000  0.5473900000000  0.6114740000000 1.0
C      1  0.6684440000000  0.5483450000000  0.3490330000000 1.0
C      1  0.4090110000000  0.5485220000000  0.2895690000000 1.0
C      1  0.2764710000000  0.5474930000000  0.5252430000000 1.0
C      1  0.4509230000000  0.4502950000000  0.7226400000000 1.0
C      1  0.6945330000000  0.4519670000000  0.6132480000000 1.0
C      1  0.6689040000000  0.4525440000000  0.3488800000000 1.0
C      1  0.4093920000000  0.4520040000000  0.2893490000000 1.0
C      1  0.2762420000000  0.4525040000000  0.5262370000000 1.0
C      1  0.4981060000000  0.6880540000000  0.3183510000000 1.0
C      1  0.3297550000000  0.6900470000000  0.4488410000000 1.0
C      1  0.3995250000000  0.6873170000000  0.6447840000000 1.0
C      1  0.6058370000000  0.6927500000000  0.6412500000000 1.0
C      1  0.6706410000000  0.6893160000000  0.4434020000000 1.0
C      1  0.4961110000000  0.3115630000000  0.3216130000000 1.0
C      1  0.3313640000000  0.3084730000000  0.4484840000000 1.0
C      1  0.3990070000000  0.3112270000000  0.6449750000000 1.0
C      1  0.6063720000000  0.3115550000000  0.6451300000000 1.0
C      1  0.6719590000000  0.3119090000000  0.4411940000000 1.0
C      1  0.5508580000000  0.2798180000000  0.5684880000000 1.0
C      1  0.5765020000000  0.3026710000000  0.4751550000000 1.0
C      1  0.4989590000000  0.2816990000000  0.4165760000000 1.0
C      1  0.4206390000000  0.2749480000000  0.4759400000000 1.0
C      1  0.4530430000000  0.2745270000000  0.5699330000000 1.0
C      1  0.5510420000000  0.7272180000000  0.5668160000000 1.0
C      1  0.5803510000000  0.7200210000000  0.4723120000000 1.0
C      1  0.5004300000000  0.6952970000000  0.4197420000000 1.0
C      1  0.4209410000000  0.7187540000000  0.4758670000000 1.0
C      1  0.4515670000000  0.7249690000000  0.5688650000000 1.0
C      1  0.7005360000000  0.5962660000000  0.4315270000000 1.0
C      1  0.4982690000000  0.5964860000000  0.2836600000000 1.0
C      1  0.2977790000000  0.5972640000000  0.4367930000000 1.0
C      1  0.3761270000000  0.5975330000000  0.6757880000000 1.0
C      1  0.6216390000000  0.5973670000000  0.6652600000000 1.0
C      1  0.7043160000000  0.4036310000000  0.4305040000000 1.0
C      1  0.4980730000000  0.4034240000000  0.2864220000000 1.0
C      1  0.3030850000000  0.4027340000000  0.4376230000000 1.0
C      1  0.3770770000000  0.4018320000000  0.6750650000000 1.0
C      1  0.6269030000000  0.4038360000000  0.6716320000000 1.0
C      1  0.5107140000000  0.4569460000000  0.4155020000000 1.0
C      1  0.4207520000000  0.4554510000000  0.4543460000000 1.0
C      1  0.4345090000000  0.4523670000000  0.5515210000000 1.0
C      1  0.5295260000000  0.4441870000000  0.5743800000000 1.0
C      1  0.5762220000000  0.4407370000000  0.4874690000000 1.0
C      1  0.5166210000000  0.5578190000000  0.4232260000000 1.0
C      1  0.4246070000000  0.5567260000000  0.4618410000000 1.0
C      1  0.4436220000000  0.5508270000000  0.5592020000000 1.0
C      1  0.5407350000000  0.5451200000000  0.5795280000000 1.0
C      1  0.5851850000000  0.5416990000000  0.4916150000000 1.0
C      1  0.5867410000000  0.4517090000000  0.2894510000000 1.0
C      1  0.3285200000000  0.4522670000000  0.3495890000000 1.0
C      1  0.3056570000000  0.4517910000000  0.6223270000000 1.0
C      1  0.5531690000000  0.4518230000000  0.7219840000000 1.0
C      1  0.7278350000000  0.4511790000000  0.5166230000000 1.0
C      1  0.5868030000000  0.5477260000000  0.2883540000000 1.0
C      1  0.3286510000000  0.5477230000000  0.3508090000000 1.0
C      1  0.3059250000000  0.5486100000000  0.6223930000000 1.0
C      1  0.5503030000000  0.5475620000000  0.7225420000000 1.0
C      1  0.7275010000000  0.5474300000000  0.5163310000000 1.0
END
