TITL C-1525613-7943-1828 -0.000739686528700963 3375 -9161.88372520238 0 0 60 (C5v) n - 1
REM
REM in /home/nfs/bkarasulu/CARBON/AIRSS/Generating-Clusters/ReaxFF-fromJPCA2015/Units_Real/Try2-Higher-symm/Only-C60
REM
REM
REM
REM
REM
REM ./C.cell (863b2abdce7293c0672fb3ba77bf323a)
REM AIRSS Version 0.9.1 bugfix July 2018 build 013d7b7c2542+ Fri, 06 Jul 2018 19:26:36 +0100
REM compiler GCC version 9.2.1 20190827 (Red Hat 9.2.1-1)
REM options -cpp -mtune=generic -march=x86-64 -g -O0 -fpre-include=/usr/include/finclude/math-vector-fortran.h
REM seed -467080244 -771884204 1361727719 -430443063 687961574 292206932 196497310 -1238736931 1218140585 -1157827135 -151080328 -520036862 -2025363747 -612487074 737782829 -449257424 314973407 1487767939 -221057382 -1877248560 214523085 280689730 741292719 -432562647 -973395946 38710273 -259768005 2044357355 1133261911 -1884327263 -1500594548 1703078579 1669825193
REM
CELL 1.54180   15.00000   15.00000   15.00000   90.00000   90.00000   90.00000
LATT -1
SFAC C  
C      1  0.2586110000000  0.4338660000000  0.3786080000000 1.0
C      1  0.3498400000000  0.2997680000000  0.3785930000000 1.0
C      1  0.4876570000000  0.2489270000000  0.3789080000000 1.0
C      1  0.6444060000000  0.2941100000000  0.3791230000000 1.0
C      1  0.7345470000000  0.4107730000000  0.3790140000000 1.0
C      1  0.7392350000000  0.5736700000000  0.3788880000000 1.0
C      1  0.6563530000000  0.6954960000000  0.3789030000000 1.0
C      1  0.5031140000000  0.7509540000000  0.3790540000000 1.0
C      1  0.3615020000000  0.7099400000000  0.3791720000000 1.0
C      1  0.2619290000000  0.5807230000000  0.3789460000000 1.0
C      1  0.4469460000000  0.3524840000000  0.6557830000000 1.0
C      1  0.5432160000000  0.3514400000000  0.6430350000000 1.0
C      1  0.6244780000000  0.4034050000000  0.6558240000000 1.0
C      1  0.6544560000000  0.4950990000000  0.6425840000000 1.0
C      1  0.6300900000000  0.5884890000000  0.6556290000000 1.0
C      1  0.5521690000000  0.6454460000000  0.6426010000000 1.0
C      1  0.4558740000000  0.6512280000000  0.6558520000000 1.0
C      1  0.3777020000000  0.5947230000000  0.6430610000000 1.0
C      1  0.3433250000000  0.5047920000000  0.6558000000000 1.0
C      1  0.3727040000000  0.4133780000000  0.6414970000000 1.0
C      1  0.2250280000000  0.5544070000000  0.4668920000000 1.0
C      1  0.2232620000000  0.4601500000000  0.4673420000000 1.0
C      1  0.3613210000000  0.2572270000000  0.4673200000000 1.0
C      1  0.4496410000000  0.2242570000000  0.4668560000000 1.0
C      1  0.6897140000000  0.2929310000000  0.4668120000000 1.0
C      1  0.7472880000000  0.3672320000000  0.4666850000000 1.0
C      1  0.7549060000000  0.6165880000000  0.4664070000000 1.0
C      1  0.7020370000000  0.6942960000000  0.4664170000000 1.0
C      1  0.4673000000000  0.7787810000000  0.4667330000000 1.0
C      1  0.3770500000000  0.7525060000000  0.4668650000000 1.0
C      1  0.3215250000000  0.3785880000000  0.3572190000000 1.0
C      1  0.4280590000000  0.2993880000000  0.3422530000000 1.0
C      1  0.5604040000000  0.2912840000000  0.3586370000000 1.0
C      1  0.6681840000000  0.3688930000000  0.3432040000000 1.0
C      1  0.7159160000000  0.4928120000000  0.3587880000000 1.0
C      1  0.6752430000000  0.6192460000000  0.3432510000000 1.0
C      1  0.5725790000000  0.7035030000000  0.3588140000000 1.0
C      1  0.4397890000000  0.7046090000000  0.3432440000000 1.0
C      1  0.3280330000000  0.6328420000000  0.3586790000000 1.0
C      1  0.2869800000000  0.5067670000000  0.3422790000000 1.0
C      1  0.2421410000000  0.4284750000000  0.5557730000000 1.0
C      1  0.3387990000000  0.2864050000000  0.5557580000000 1.0
C      1  0.4859690000000  0.2290360000000  0.5560080000000 1.0
C      1  0.6568340000000  0.2778450000000  0.5562380000000 1.0
C      1  0.7540080000000  0.4029730000000  0.5560400000000 1.0
C      1  0.7594650000000  0.5807160000000  0.5558440000000 1.0
C      1  0.6703520000000  0.7116940000000  0.5558590000000 1.0
C      1  0.5030220000000  0.7718880000000  0.5560830000000 1.0
C      1  0.3509550000000  0.7274420000000  0.5562880000000 1.0
C      1  0.2428210000000  0.5864290000000  0.5560460000000 1.0
C      1  0.6921090000000  0.3508330000000  0.6093920000000 1.0
C      1  0.7349000000000  0.4925500000000  0.5880720000000 1.0
C      1  0.7009080000000  0.6366740000000  0.6091240000000 1.0
C      1  0.5793280000000  0.7212150000000  0.5880960000000 1.0
C      1  0.4318020000000  0.7334460000000  0.6094360000000 1.0
C      1  0.3140610000000  0.6436990000000  0.5883970000000 1.0
C      1  0.2585440000000  0.5067570000000  0.6087410000000 1.0
C      1  0.3085330000000  0.3697260000000  0.5861560000000 1.0
C      1  0.4176400000000  0.2729090000000  0.6087160000000 1.0
C      1  0.5653980000000  0.2742680000000  0.5883580000000 1.0
END
