TITL C-1525613-7943-6530 0.113104367352649 3375 -8625.17355987016 0 0 60 (C1) n - 1
REM
REM in /home/nfs/bkarasulu/CARBON/AIRSS/Generating-Clusters/ReaxFF-fromJPCA2015/Units_Real/Try2-Higher-symm/Only-C60
REM
REM
REM
REM
REM
REM ./C.cell (863b2abdce7293c0672fb3ba77bf323a)
REM AIRSS Version 0.9.1 bugfix July 2018 build 013d7b7c2542+ Fri, 06 Jul 2018 19:26:36 +0100
REM compiler GCC version 9.2.1 20190827 (Red Hat 9.2.1-1)
REM options -cpp -mtune=generic -march=x86-64 -g -O0 -fpre-include=/usr/include/finclude/math-vector-fortran.h
REM seed 12459081 -85669704 231268890 -176226977 -719931675 1123322345 1013509046 1075551098 -1551352753 1646738335 -2007611402 -1569837340 108199356 1058407850 1634472110 404263895 -1819669656 2114274604 1405612230 -927323450 322035443 232536724 -2036604466 -922168251 -2060978716 -404618348 1316044757 -751287184 -298931825 -1930613149 775569289 292579370 1172781845
REM
CELL 1.54180   15.00000   15.00000   15.00000   90.00000   90.00000   90.00000
LATT -1
SFAC C  
C      1  0.6201790000000  0.4172360000000  0.2933920000000 1.0
C      1  0.7339390000000  0.4116440000000  0.5510270000000 1.0
C      1  0.5249770000000  0.4336830000000  0.7252120000000 1.0
C      1  0.2867590000000  0.4390940000000  0.5946300000000 1.0
C      1  0.3489830000000  0.4411140000000  0.3266090000000 1.0
C      1  0.6201530000000  0.4170070000000  0.7064130000000 1.0
C      1  0.7338560000000  0.4117860000000  0.4492550000000 1.0
C      1  0.5245910000000  0.4338790000000  0.2754680000000 1.0
C      1  0.2872120000000  0.4392310000000  0.4059580000000 1.0
C      1  0.3476680000000  0.4392760000000  0.6747880000000 1.0
C      1  0.6248640000000  0.5219210000000  0.5428590000000 1.0
C      1  0.5077640000000  0.4583120000000  0.6295760000000 1.0
C      1  0.3681390000000  0.4593090000000  0.5431340000000 1.0
C      1  0.4206930000000  0.4655350000000  0.3887650000000 1.0
C      1  0.5672480000000  0.5237380000000  0.3915220000000 1.0
C      1  0.6250910000000  0.5219340000000  0.4576380000000 1.0
C      1  0.5073150000000  0.4576220000000  0.3706450000000 1.0
C      1  0.3691140000000  0.4579890000000  0.4573300000000 1.0
C      1  0.4189360000000  0.4643370000000  0.6122720000000 1.0
C      1  0.5674040000000  0.5250010000000  0.6084930000000 1.0
C      1  0.3491850000000  0.6541020000000  0.5487480000000 1.0
C      1  0.4072380000000  0.6559550000000  0.3699160000000 1.0
C      1  0.5920220000000  0.6625490000000  0.3731820000000 1.0
C      1  0.6452450000000  0.6594330000000  0.5476510000000 1.0
C      1  0.5004480000000  0.6589820000000  0.6609580000000 1.0
C      1  0.3491010000000  0.6538820000000  0.4508370000000 1.0
C      1  0.4073010000000  0.6560120000000  0.6297210000000 1.0
C      1  0.5920800000000  0.6627000000000  0.6269140000000 1.0
C      1  0.6451390000000  0.6594100000000  0.4523760000000 1.0
C      1  0.5004110000000  0.6591770000000  0.3391080000000 1.0
C      1  0.4732910000000  0.5152680000000  0.7539680000000 1.0
C      1  0.2460870000000  0.5169430000000  0.5492500000000 1.0
C      1  0.3783660000000  0.5177860000000  0.2715480000000 1.0
C      1  0.6776580000000  0.4917950000000  0.3134730000000 1.0
C      1  0.7346920000000  0.4904000000000  0.6105820000000 1.0
C      1  0.4729770000000  0.5153240000000  0.2456460000000 1.0
C      1  0.2457800000000  0.5170120000000  0.4504610000000 1.0
C      1  0.3787100000000  0.5174700000000  0.7272890000000 1.0
C      1  0.6776230000000  0.4915530000000  0.6862270000000 1.0
C      1  0.7345590000000  0.4902630000000  0.3893440000000 1.0
C      1  0.5236690000000  0.5955200000000  0.2682640000000 1.0
C      1  0.7132160000000  0.5713130000000  0.4489600000000 1.0
C      1  0.6119480000000  0.5757090000000  0.6852750000000 1.0
C      1  0.3453890000000  0.5949180000000  0.6762650000000 1.0
C      1  0.2858520000000  0.5939080000000  0.4040670000000 1.0
C      1  0.5238580000000  0.5956600000000  0.7319200000000 1.0
C      1  0.7131440000000  0.5712420000000  0.5509600000000 1.0
C      1  0.6117880000000  0.5758640000000  0.3145250000000 1.0
C      1  0.3454090000000  0.5946470000000  0.3233480000000 1.0
C      1  0.2860030000000  0.5939140000000  0.5953270000000 1.0
C      1  0.4075230000000  0.3262360000000  0.3684900000000 1.0
C      1  0.5987880000000  0.3518610000000  0.3652950000000 1.0
C      1  0.6550720000000  0.3542530000000  0.5499260000000 1.0
C      1  0.5055620000000  0.3251590000000  0.6366400000000 1.0
C      1  0.3444010000000  0.3224260000000  0.5480890000000 1.0
C      1  0.4092560000000  0.3235480000000  0.6308450000000 1.0
C      1  0.5990110000000  0.3506400000000  0.6351570000000 1.0
C      1  0.6551730000000  0.3540500000000  0.4503370000000 1.0
C      1  0.5060850000000  0.3212600000000  0.3616470000000 1.0
C      1  0.3460570000000  0.3222070000000  0.4524800000000 1.0
END
