TITL C-1525613-7943-1219 0.213032397199937 3375 -8193.66925669355 0 0 60 (Cs) n - 1
REM
REM in /home/nfs/bkarasulu/CARBON/AIRSS/Generating-Clusters/ReaxFF-fromJPCA2015/Units_Real/Try2-Higher-symm/Only-C60
REM
REM
REM
REM
REM
REM ./C.cell (863b2abdce7293c0672fb3ba77bf323a)
REM AIRSS Version 0.9.1 bugfix July 2018 build 013d7b7c2542+ Fri, 06 Jul 2018 19:26:36 +0100
REM compiler GCC version 9.2.1 20190827 (Red Hat 9.2.1-1)
REM options -cpp -mtune=generic -march=x86-64 -g -O0 -fpre-include=/usr/include/finclude/math-vector-fortran.h
REM seed 1248073537 1769906112 1801140502 1246757688 1581045671 1707462668 -1076915005 1542102481 -236083166 -679235681 -1975185322 -1851435756 24669363 2036424250 370262685 -1585004592 913737913 1633084727 -1439618642 -1933994522 515070013 -28808526 484866522 -787042983 -1714768691 452752671 -348339707 1022729894 824918283 -862629576 925765588 2080106703 -664294939
REM
CELL 1.54180   15.00000   15.00000   15.00000   90.00000   90.00000   90.00000
LATT -1
SFAC C  
C      1  0.5016520000000  0.6454710000000  0.3408710000000 1.0
C      1  0.6515100000000  0.6437190000000  0.4510570000000 1.0
C      1  0.5943680000000  0.6448640000000  0.6290490000000 1.0
C      1  0.4087290000000  0.6443080000000  0.6293160000000 1.0
C      1  0.3502230000000  0.6426630000000  0.4505280000000 1.0
C      1  0.5019430000000  0.6453540000000  0.6589190000000 1.0
C      1  0.6515530000000  0.6438770000000  0.5489730000000 1.0
C      1  0.5946130000000  0.6451080000000  0.3709560000000 1.0
C      1  0.4086590000000  0.6443610000000  0.3708550000000 1.0
C      1  0.3502610000000  0.6427370000000  0.5494360000000 1.0
C      1  0.5336560000000  0.4057040000000  0.7628060000000 1.0
C      1  0.2570160000000  0.4064210000000  0.6113100000000 1.0
C      1  0.3060690000000  0.4037170000000  0.3038260000000 1.0
C      1  0.6265290000000  0.4060870000000  0.2690250000000 1.0
C      1  0.7789030000000  0.4072770000000  0.5491230000000 1.0
C      1  0.5336570000000  0.4057010000000  0.2371950000000 1.0
C      1  0.2570170000000  0.4064230000000  0.3886910000000 1.0
C      1  0.3060670000000  0.4037160000000  0.6961730000000 1.0
C      1  0.6265280000000  0.4060890000000  0.7309740000000 1.0
C      1  0.7789030000000  0.4072760000000  0.4508770000000 1.0
C      1  0.2145010000000  0.5357610000000  0.5434820000000 1.0
C      1  0.3683500000000  0.5307540000000  0.2430410000000 1.0
C      1  0.7043780000000  0.5303370000000  0.2977600000000 1.0
C      1  0.7569490000000  0.5333400000000  0.6319660000000 1.0
C      1  0.4521520000000  0.5294710000000  0.7840880000000 1.0
C      1  0.2144800000000  0.5357620000000  0.4565130000000 1.0
C      1  0.3683610000000  0.5307540000000  0.7569400000000 1.0
C      1  0.7043740000000  0.5303360000000  0.7022350000000 1.0
C      1  0.7569300000000  0.5333410000000  0.3680490000000 1.0
C      1  0.4521420000000  0.5294670000000  0.2158810000000 1.0
C      1  0.7971900000000  0.5056810000000  0.5517750000000 1.0
C      1  0.5400300000000  0.4983460000000  0.7947110000000 1.0
C      1  0.2311840000000  0.5021310000000  0.6290660000000 1.0
C      1  0.2901930000000  0.4994280000000  0.2868470000000 1.0
C      1  0.6399110000000  0.4987220000000  0.2379090000000 1.0
C      1  0.7971870000000  0.5056820000000  0.4482270000000 1.0
C      1  0.5400270000000  0.4983480000000  0.2052880000000 1.0
C      1  0.2311790000000  0.5021290000000  0.3709330000000 1.0
C      1  0.2901930000000  0.4994280000000  0.7131490000000 1.0
C      1  0.6399080000000  0.4987240000000  0.7620900000000 1.0
C      1  0.6869880000000  0.3674780000000  0.4451280000000 1.0
C      1  0.6391920000000  0.3741350000000  0.6351990000000 1.0
C      1  0.3844720000000  0.3671960000000  0.6494000000000 1.0
C      1  0.3255340000000  0.3771970000000  0.4551580000000 1.0
C      1  0.4658220000000  0.3740670000000  0.3065210000000 1.0
C      1  0.6869880000000  0.3674780000000  0.5548710000000 1.0
C      1  0.6391930000000  0.3741330000000  0.3647990000000 1.0
C      1  0.3844720000000  0.3671970000000  0.3506000000000 1.0
C      1  0.3255340000000  0.3771980000000  0.5448430000000 1.0
C      1  0.4658230000000  0.3740680000000  0.6934770000000 1.0
C      1  0.5880250000000  0.5460400000000  0.3786690000000 1.0
C      1  0.6424660000000  0.5435880000000  0.5465680000000 1.0
C      1  0.4993490000000  0.5464990000000  0.6502970000000 1.0
C      1  0.3556660000000  0.5446260000000  0.5458300000000 1.0
C      1  0.4087450000000  0.5447560000000  0.3778150000000 1.0
C      1  0.5879340000000  0.5463270000000  0.6213480000000 1.0
C      1  0.6425310000000  0.5436350000000  0.4534190000000 1.0
C      1  0.4993390000000  0.5463720000000  0.3498950000000 1.0
C      1  0.3557530000000  0.5445430000000  0.4541320000000 1.0
C      1  0.4086990000000  0.5446480000000  0.6221220000000 1.0
END
