TITL C-1525613-7943-6554 0.464027963844331 3375 -8288.43208984803 0 0 60 (C1) n - 1
REM
REM in /home/nfs/bkarasulu/CARBON/AIRSS/Generating-Clusters/ReaxFF-fromJPCA2015/Units_Real/Try2-Higher-symm/Only-C60
REM
REM
REM
REM
REM
REM ./C.cell (863b2abdce7293c0672fb3ba77bf323a)
REM AIRSS Version 0.9.1 bugfix July 2018 build 013d7b7c2542+ Fri, 06 Jul 2018 19:26:36 +0100
REM compiler GCC version 9.2.1 20190827 (Red Hat 9.2.1-1)
REM options -cpp -mtune=generic -march=x86-64 -g -O0 -fpre-include=/usr/include/finclude/math-vector-fortran.h
REM seed -1718266063 -248929918 1820364601 867278900 -104896773 -1301455957 -2090725056 106098015 1806929128 456584924 1401658725 596796628 1876228566 -1322055282 369941806 -1697438426 2017445587 -1948045368 -370999500 928945381 1138387345 1446433885 -1506730638 -104275024 -417666010 1250475658 -1110114415 -563168456 -1349045911 -1867373184 944963288 2037415023 -672152710
REM
CELL 1.54180   15.00000   15.00000   15.00000   90.00000   90.00000   90.00000
LATT -1
SFAC C  
C      1  0.6344510000000  0.5446050000000  0.2996460000000 1.0
C      1  0.3599950000000  0.4263760000000  0.3079360000000 1.0
C      1  0.6469070000000  0.3512440000000  0.3895210000000 1.0
C      1  0.3667400000000  0.2980780000000  0.5102150000000 1.0
C      1  0.6383600000000  0.3390330000000  0.6324630000000 1.0
C      1  0.3618760000000  0.4459250000000  0.7031850000000 1.0
C      1  0.6375030000000  0.5728940000000  0.6878430000000 1.0
C      1  0.3651660000000  0.6745590000000  0.6095470000000 1.0
C      1  0.6398040000000  0.6964370000000  0.4841430000000 1.0
C      1  0.3625130000000  0.6600470000000  0.3698000000000 1.0
C      1  0.5242980000000  0.6614350000000  0.3277180000000 1.0
C      1  0.4773900000000  0.5300390000000  0.2603370000000 1.0
C      1  0.5171120000000  0.3777790000000  0.2878210000000 1.0
C      1  0.4842820000000  0.2856730000000  0.3937090000000 1.0
C      1  0.5259490000000  0.2670610000000  0.5437700000000 1.0
C      1  0.4790440000000  0.3367120000000  0.6747670000000 1.0
C      1  0.5234690000000  0.4697410000000  0.7391150000000 1.0
C      1  0.4774190000000  0.6153970000000  0.7071640000000 1.0
C      1  0.5261510000000  0.7148380000000  0.5994430000000 1.0
C      1  0.4789750000000  0.7344230000000  0.4539890000000 1.0
C      1  0.5256370000000  0.6010070000000  0.4083920000000 1.0
C      1  0.4653090000000  0.5311030000000  0.3611670000000 1.0
C      1  0.5086940000000  0.4426850000000  0.3727610000000 1.0
C      1  0.4683710000000  0.3782980000000  0.4314670000000 1.0
C      1  0.5299610000000  0.3624940000000  0.5128530000000 1.0
C      1  0.4790820000000  0.3966220000000  0.5926230000000 1.0
C      1  0.5303670000000  0.4698670000000  0.6381090000000 1.0
C      1  0.4742920000000  0.5540560000000  0.6278690000000 1.0
C      1  0.5285230000000  0.6183380000000  0.5695920000000 1.0
C      1  0.4730140000000  0.6382800000000  0.4860560000000 1.0
C      1  0.3653070000000  0.3856570000000  0.3985560000000 1.0
C      1  0.6357890000000  0.3663700000000  0.4858510000000 1.0
C      1  0.3761270000000  0.3764850000000  0.5697960000000 1.0
C      1  0.6335040000000  0.4381450000000  0.6393940000000 1.0
C      1  0.3690120000000  0.5251440000000  0.6417010000000 1.0
C      1  0.6318050000000  0.6076270000000  0.5956770000000 1.0
C      1  0.3710290000000  0.6468890000000  0.5153620000000 1.0
C      1  0.6297880000000  0.6146740000000  0.4286590000000 1.0
C      1  0.3651440000000  0.5616120000000  0.3611270000000 1.0
C      1  0.5973800000000  0.4721600000000  0.3571690000000 1.0
C      1  0.4466290000000  0.4368180000000  0.2567430000000 1.0
C      1  0.5627690000000  0.3135410000000  0.3435720000000 1.0
C      1  0.4522690000000  0.2541870000000  0.4821470000000 1.0
C      1  0.5524080000000  0.2876060000000  0.6362260000000 1.0
C      1  0.4499160000000  0.4071700000000  0.7351700000000 1.0
C      1  0.5523010000000  0.5633310000000  0.7401200000000 1.0
C      1  0.4505430000000  0.6952780000000  0.6567550000000 1.0
C      1  0.5557670000000  0.7457430000000  0.5113910000000 1.0
C      1  0.4491670000000  0.7105900000000  0.3641780000000 1.0
C      1  0.5516380000000  0.5915160000000  0.2656560000000 1.0
C      1  0.6893710000000  0.5670580000000  0.3750360000000 1.0
C      1  0.2962030000000  0.5046700000000  0.3170580000000 1.0
C      1  0.6807100000000  0.4399300000000  0.3793970000000 1.0
C      1  0.2961180000000  0.3317530000000  0.4436200000000 1.0
C      1  0.6976200000000  0.3239330000000  0.5523340000000 1.0
C      1  0.3181420000000  0.4019160000000  0.6336880000000 1.0
C      1  0.7035630000000  0.4947790000000  0.6797180000000 1.0
C      1  0.3045120000000  0.6008370000000  0.6442020000000 1.0
C      1  0.7033840000000  0.6653980000000  0.5568200000000 1.0
C      1  0.3014260000000  0.6741360000000  0.4498560000000 1.0
END
