TITL C-1525613-7943-5912 0.175282007929189 3375 -8287.07128876918 0 0 60 (C1) n - 1
REM
REM in /home/nfs/bkarasulu/CARBON/AIRSS/Generating-Clusters/ReaxFF-fromJPCA2015/Units_Real/Try2-Higher-symm/Only-C60
REM
REM
REM
REM
REM
REM ./C.cell (863b2abdce7293c0672fb3ba77bf323a)
REM AIRSS Version 0.9.1 bugfix July 2018 build 013d7b7c2542+ Fri, 06 Jul 2018 19:26:36 +0100
REM compiler GCC version 9.2.1 20190827 (Red Hat 9.2.1-1)
REM options -cpp -mtune=generic -march=x86-64 -g -O0 -fpre-include=/usr/include/finclude/math-vector-fortran.h
REM seed 126683219 1002539119 2008230667 -2100572245 -1139926099 517180913 -1787157544 -301200691 -1000144187 -1374457199 2127247618 -1237320988 -73005713 -981885896 1732603331 1344634555 -13606802 -342099613 1207804678 2118793250 -1194914975 407332455 -194262871 1209828719 -24961067 -2099486630 -583291504 790904952 1728134502 996188271 -1929878433 -1092231864 -759659455
REM
CELL 1.54180   15.00000   15.00000   15.00000   90.00000   90.00000   90.00000
LATT -1
SFAC C  
C      1  0.3447850000000  0.6558420000000  0.5843380000000 1.0
C      1  0.3470570000000  0.4669440000000  0.6764310000000 1.0
C      1  0.3464750000000  0.3214540000000  0.5249720000000 1.0
C      1  0.3447540000000  0.4208620000000  0.3395040000000 1.0
C      1  0.3467540000000  0.6269840000000  0.3826010000000 1.0
C      1  0.6509510000000  0.3491590000000  0.5820450000000 1.0
C      1  0.6413780000000  0.5375280000000  0.6649190000000 1.0
C      1  0.6548390000000  0.6878190000000  0.5175280000000 1.0
C      1  0.6646300000000  0.5690160000000  0.3233930000000 1.0
C      1  0.6550590000000  0.3706170000000  0.3732060000000 1.0
C      1  0.5136370000000  0.4542850000000  0.2892060000000 1.0
C      1  0.5441910000000  0.6632780000000  0.4190540000000 1.0
C      1  0.5157760000000  0.6616590000000  0.6431180000000 1.0
C      1  0.5148920000000  0.4169400000000  0.6932230000000 1.0
C      1  0.5153780000000  0.2910470000000  0.4803900000000 1.0
C      1  0.4885280000000  0.5481740000000  0.2887700000000 1.0
C      1  0.4848930000000  0.3191240000000  0.3926850000000 1.0
C      1  0.4833260000000  0.3419910000000  0.6400240000000 1.0
C      1  0.4817750000000  0.5874420000000  0.6959220000000 1.0
C      1  0.5005260000000  0.7054960000000  0.4911780000000 1.0
C      1  0.4376080000000  0.6171330000000  0.2431040000000 1.0
C      1  0.4371380000000  0.7689500000000  0.5140310000000 1.0
C      1  0.4328370000000  0.5643650000000  0.7765160000000 1.0
C      1  0.4351450000000  0.2577500000000  0.6469860000000 1.0
C      1  0.4331310000000  0.2859730000000  0.3168980000000 1.0
C      1  0.5641920000000  0.3893870000000  0.2370560000000 1.0
C      1  0.5679350000000  0.2213670000000  0.5233840000000 1.0
C      1  0.5678910000000  0.4377290000000  0.7722030000000 1.0
C      1  0.5653470000000  0.7454450000000  0.6469630000000 1.0
C      1  0.5809230000000  0.6995160000000  0.3347080000000 1.0
C      1  0.4878350000000  0.7118390000000  0.3530150000000 1.0
C      1  0.4687130000000  0.7452110000000  0.6602900000000 1.0
C      1  0.4722660000000  0.4204510000000  0.7809380000000 1.0
C      1  0.4722450000000  0.2086600000000  0.5105610000000 1.0
C      1  0.4678730000000  0.3981960000000  0.2237490000000 1.0
C      1  0.5294180000000  0.2699540000000  0.3206760000000 1.0
C      1  0.5311530000000  0.2600230000000  0.6629460000000 1.0
C      1  0.5288030000000  0.5809390000000  0.7813090000000 1.0
C      1  0.5304850000000  0.7911520000000  0.5079190000000 1.0
C      1  0.5319770000000  0.6051260000000  0.2218740000000 1.0
C      1  0.6755270000000  0.4396900000000  0.4369710000000 1.0
C      1  0.6672010000000  0.5376240000000  0.4149630000000 1.0
C      1  0.6375940000000  0.5946510000000  0.4946300000000 1.0
C      1  0.6544870000000  0.5255290000000  0.5715620000000 1.0
C      1  0.6696240000000  0.4322110000000  0.5373900000000 1.0
C      1  0.3168100000000  0.5600730000000  0.4441500000000 1.0
C      1  0.3187920000000  0.4610680000000  0.4222500000000 1.0
C      1  0.3202250000000  0.4121080000000  0.5108640000000 1.0
C      1  0.3201380000000  0.4807030000000  0.5859740000000 1.0
C      1  0.3177710000000  0.5729820000000  0.5444450000000 1.0
C      1  0.4045160000000  0.6734010000000  0.3170180000000 1.0
C      1  0.3925920000000  0.7413640000000  0.5970550000000 1.0
C      1  0.3919220000000  0.4753930000000  0.7641400000000 1.0
C      1  0.3927640000000  0.2410910000000  0.5594750000000 1.0
C      1  0.3898760000000  0.3630430000000  0.2732360000000 1.0
C      1  0.6080560000000  0.3259080000000  0.2987240000000 1.0
C      1  0.6100990000000  0.2620450000000  0.6030460000000 1.0
C      1  0.6073050000000  0.5265340000000  0.7576630000000 1.0
C      1  0.6088160000000  0.7647850000000  0.5606100000000 1.0
C      1  0.6133660000000  0.6349720000000  0.2682000000000 1.0
END
