TITL C-1525613-7943-3194 0.0216708820052783 3375 -8400.84612374737 0 0 60 (Cs) n - 1
REM
REM in /home/nfs/bkarasulu/CARBON/AIRSS/Generating-Clusters/ReaxFF-fromJPCA2015/Units_Real/Try2-Higher-symm/Only-C60
REM
REM
REM
REM
REM
REM ./C.cell (863b2abdce7293c0672fb3ba77bf323a)
REM AIRSS Version 0.9.1 bugfix July 2018 build 013d7b7c2542+ Fri, 06 Jul 2018 19:26:36 +0100
REM compiler GCC version 9.2.1 20190827 (Red Hat 9.2.1-1)
REM options -cpp -mtune=generic -march=x86-64 -g -O0 -fpre-include=/usr/include/finclude/math-vector-fortran.h
REM seed 1556402779 686594470 902182993 -1661354065 964281700 1057224051 -824965466 1430654094 -2100463111 1913263315 -879273998 -1102241025 1532587991 1538437088 -552154120 -2003030292 2049251522 1562856977 1411862669 -2117306918 1364438822 -986663336 -276273818 1495555330 -450000040 399546419 -1068529192 -1606045333 1371658117 -570326423 -1663812522 -367860190 1479345582
REM
CELL 1.54180   15.00000   15.00000   15.00000   90.00000   90.00000   90.00000
LATT -1
SFAC C  
C      1  0.3297830000000  0.4359300000000  0.4005270000000 1.0
C      1  0.5047290000000  0.3221330000000  0.4027100000000 1.0
C      1  0.6695340000000  0.4485820000000  0.4057550000000 1.0
C      1  0.6011880000000  0.6462520000000  0.4038740000000 1.0
C      1  0.3891360000000  0.6420320000000  0.4037060000000 1.0
C      1  0.3297790000000  0.4360130000000  0.5994160000000 1.0
C      1  0.5049780000000  0.3221150000000  0.5969890000000 1.0
C      1  0.6695340000000  0.4485970000000  0.5942510000000 1.0
C      1  0.6011630000000  0.6463490000000  0.5961670000000 1.0
C      1  0.3891710000000  0.6420510000000  0.5964140000000 1.0
C      1  0.4489210000000  0.4371910000000  0.3128350000000 1.0
C      1  0.5457870000000  0.4285720000000  0.3172500000000 1.0
C      1  0.5811700000000  0.5200720000000  0.3172850000000 1.0
C      1  0.5067970000000  0.5844870000000  0.3168910000000 1.0
C      1  0.4254230000000  0.5314220000000  0.3128150000000 1.0
C      1  0.4488650000000  0.4371870000000  0.6871640000000 1.0
C      1  0.5457450000000  0.4285300000000  0.6827000000000 1.0
C      1  0.5811500000000  0.5200490000000  0.6827110000000 1.0
C      1  0.5068080000000  0.5844740000000  0.6831380000000 1.0
C      1  0.4254290000000  0.5314030000000  0.6872000000000 1.0
C      1  0.6862730000000  0.6701610000000  0.5499970000000 1.0
C      1  0.3940520000000  0.7298340000000  0.5497550000000 1.0
C      1  0.2507710000000  0.4743660000000  0.5499190000000 1.0
C      1  0.4465580000000  0.2549350000000  0.5497990000000 1.0
C      1  0.7202300000000  0.3763660000000  0.5498030000000 1.0
C      1  0.6862630000000  0.6701720000000  0.4500180000000 1.0
C      1  0.3939980000000  0.7297940000000  0.4502250000000 1.0
C      1  0.2508200000000  0.4743660000000  0.4500680000000 1.0
C      1  0.4464500000000  0.2549640000000  0.4502160000000 1.0
C      1  0.7202220000000  0.3763730000000  0.4502320000000 1.0
C      1  0.4128440000000  0.4741860000000  0.5507900000000 1.0
C      1  0.4992670000000  0.4115620000000  0.5494840000000 1.0
C      1  0.5832260000000  0.4703690000000  0.5484850000000 1.0
C      1  0.5550510000000  0.5687820000000  0.5488180000000 1.0
C      1  0.4486470000000  0.5748680000000  0.5495520000000 1.0
C      1  0.4128670000000  0.4742090000000  0.4492370000000 1.0
C      1  0.4992390000000  0.4116130000000  0.4505290000000 1.0
C      1  0.5832250000000  0.4703910000000  0.4515040000000 1.0
C      1  0.5550120000000  0.5687530000000  0.4511540000000 1.0
C      1  0.4486180000000  0.5749410000000  0.4503830000000 1.0
C      1  0.6406400000000  0.3216420000000  0.5528200000000 1.0
C      1  0.7135880000000  0.5784350000000  0.5548500000000 1.0
C      1  0.4905250000000  0.7266730000000  0.5520510000000 1.0
C      1  0.2826760000000  0.5628120000000  0.5647380000000 1.0
C      1  0.3714510000000  0.3108950000000  0.5667670000000 1.0
C      1  0.6406630000000  0.3216170000000  0.4471570000000 1.0
C      1  0.7135710000000  0.5784400000000  0.4451400000000 1.0
C      1  0.4904710000000  0.7265610000000  0.4479050000000 1.0
C      1  0.2826610000000  0.5627870000000  0.4352770000000 1.0
C      1  0.3712890000000  0.3108300000000  0.4333670000000 1.0
C      1  0.5878190000000  0.3445820000000  0.6350560000000 1.0
C      1  0.6745660000000  0.5336340000000  0.6349980000000 1.0
C      1  0.5200810000000  0.6762930000000  0.6339480000000 1.0
C      1  0.3391540000000  0.5747020000000  0.6427560000000 1.0
C      1  0.3800350000000  0.3682060000000  0.6442450000000 1.0
C      1  0.5877790000000  0.3445850000000  0.3649790000000 1.0
C      1  0.6745580000000  0.5336380000000  0.3650130000000 1.0
C      1  0.5202590000000  0.6763360000000  0.3660040000000 1.0
C      1  0.3392140000000  0.5747480000000  0.3572500000000 1.0
C      1  0.3802780000000  0.3681380000000  0.3559120000000 1.0
END
