TITL C-1525613-7943-5164 0.0179583063617095 3375 -8740.34556496338 0 0 60 (C1) n - 1
REM
REM in /home/nfs/bkarasulu/CARBON/AIRSS/Generating-Clusters/ReaxFF-fromJPCA2015/Units_Real/Try2-Higher-symm/Only-C60
REM
REM
REM
REM
REM
REM ./C.cell (863b2abdce7293c0672fb3ba77bf323a)
REM AIRSS Version 0.9.1 bugfix July 2018 build 013d7b7c2542+ Fri, 06 Jul 2018 19:26:36 +0100
REM compiler GCC version 9.2.1 20190827 (Red Hat 9.2.1-1)
REM options -cpp -mtune=generic -march=x86-64 -g -O0 -fpre-include=/usr/include/finclude/math-vector-fortran.h
REM seed -2101764648 1324018437 686448369 892047348 238414841 -469003926 -888575229 1472575123 46847325 290518302 1272786878 1921970769 -83158225 -1092108075 -1572370059 56053292 -445472989 2004643209 1151029013 1050536546 621907193 -1968009151 -112992153 -1278310358 -1339973326 -411206213 47821446 1278493101 623295936 1362011135 109828116 -621170735 -1751173047
REM
CELL 1.54180   15.00000   15.00000   15.00000   90.00000   90.00000   90.00000
LATT -1
SFAC C  
C      1  0.3114560000000  0.4193170000000  0.3448730000000 1.0
C      1  0.5865100000000  0.4088170000000  0.2761560000000 1.0
C      1  0.7135850000000  0.4489520000000  0.5582000000000 1.0
C      1  0.5398450000000  0.4629730000000  0.7360160000000 1.0
C      1  0.2960830000000  0.4215610000000  0.6491170000000 1.0
C      1  0.6940790000000  0.5765580000000  0.3426860000000 1.0
C      1  0.4134930000000  0.5917350000000  0.2767030000000 1.0
C      1  0.2854920000000  0.5507430000000  0.5584010000000 1.0
C      1  0.4605690000000  0.5369990000000  0.7358590000000 1.0
C      1  0.7033560000000  0.5787100000000  0.6482730000000 1.0
C      1  0.4550990000000  0.4013440000000  0.4190990000000 1.0
C      1  0.5500690000000  0.4059350000000  0.4340430000000 1.0
C      1  0.5618230000000  0.4096220000000  0.5320080000000 1.0
C      1  0.4761050000000  0.4126680000000  0.5735910000000 1.0
C      1  0.3995330000000  0.4121610000000  0.5061180000000 1.0
C      1  0.5458090000000  0.6009060000000  0.4214520000000 1.0
C      1  0.4551240000000  0.5957470000000  0.4344390000000 1.0
C      1  0.4391740000000  0.5923520000000  0.5312500000000 1.0
C      1  0.5240130000000  0.5884520000000  0.5736470000000 1.0
C      1  0.5975820000000  0.5876900000000  0.5011990000000 1.0
C      1  0.5710790000000  0.2528370000000  0.5326980000000 1.0
C      1  0.4873230000000  0.2556020000000  0.5806180000000 1.0
C      1  0.4172420000000  0.2499690000000  0.5133870000000 1.0
C      1  0.4575630000000  0.2485180000000  0.4232160000000 1.0
C      1  0.5543980000000  0.2504020000000  0.4355980000000 1.0
C      1  0.4279760000000  0.7484740000000  0.5333240000000 1.0
C      1  0.5118050000000  0.7449380000000  0.5807040000000 1.0
C      1  0.5814230000000  0.7498270000000  0.5125360000000 1.0
C      1  0.5414640000000  0.7501630000000  0.4221020000000 1.0
C      1  0.4449370000000  0.7503720000000  0.4364350000000 1.0
C      1  0.4764640000000  0.3383940000000  0.6380090000000 1.0
C      1  0.3552070000000  0.3225220000000  0.5288750000000 1.0
C      1  0.4297760000000  0.3240560000000  0.3674010000000 1.0
C      1  0.5948950000000  0.3285420000000  0.3912410000000 1.0
C      1  0.6230220000000  0.3339970000000  0.5569610000000 1.0
C      1  0.5239740000000  0.6622190000000  0.6380860000000 1.0
C      1  0.6434800000000  0.6772950000000  0.5270810000000 1.0
C      1  0.5690200000000  0.6735250000000  0.3705650000000 1.0
C      1  0.4064660000000  0.6711360000000  0.3924460000000 1.0
C      1  0.3768130000000  0.6670560000000  0.5572280000000 1.0
C      1  0.3534390000000  0.6636120000000  0.3032240000000 1.0
C      1  0.6479160000000  0.6570550000000  0.3092290000000 1.0
C      1  0.7026920000000  0.6683110000000  0.6081400000000 1.0
C      1  0.4865500000000  0.6334150000000  0.7251790000000 1.0
C      1  0.2781330000000  0.6499150000000  0.5464010000000 1.0
C      1  0.6465360000000  0.3366140000000  0.3009210000000 1.0
C      1  0.3496580000000  0.3424460000000  0.3018990000000 1.0
C      1  0.2952130000000  0.3318350000000  0.6099780000000 1.0
C      1  0.5137850000000  0.3664560000000  0.7252400000000 1.0
C      1  0.7221650000000  0.3496550000000  0.5478310000000 1.0
C      1  0.3798240000000  0.5155570000000  0.6994620000000 1.0
C      1  0.3229720000000  0.4914380000000  0.4901410000000 1.0
C      1  0.4700930000000  0.5304910000000  0.2625910000000 1.0
C      1  0.7023830000000  0.5253150000000  0.4086910000000 1.0
C      1  0.7020880000000  0.4864740000000  0.6550190000000 1.0
C      1  0.6203750000000  0.4843730000000  0.6995780000000 1.0
C      1  0.6759080000000  0.5071300000000  0.4889350000000 1.0
C      1  0.5299850000000  0.4703940000000  0.2624690000000 1.0
C      1  0.2992710000000  0.4725040000000  0.4084050000000 1.0
C      1  0.2978880000000  0.5139250000000  0.6550220000000 1.0
END
