TITL C-1525613-7943-7737 0.0679944909312555 3375 -8811.08217610423 0 0 60 (C2) n - 1
REM
REM in /home/nfs/bkarasulu/CARBON/AIRSS/Generating-Clusters/ReaxFF-fromJPCA2015/Units_Real/Try2-Higher-symm/Only-C60
REM
REM
REM
REM
REM
REM ./C.cell (863b2abdce7293c0672fb3ba77bf323a)
REM AIRSS Version 0.9.1 bugfix July 2018 build 013d7b7c2542+ Fri, 06 Jul 2018 19:26:36 +0100
REM compiler GCC version 9.2.1 20190827 (Red Hat 9.2.1-1)
REM options -cpp -mtune=generic -march=x86-64 -g -O0 -fpre-include=/usr/include/finclude/math-vector-fortran.h
REM seed 1335626186 1619586908 457347863 -923890124 1889573189 1344682939 880573764 310938780 1699809330 -968778127 -1089919155 1892770246 -181793841 1397433372 2095415510 -1171724426 -253753261 1512086661 -2113255732 -1578265092 -915264608 -1285926357 -532898080 -2002706784 -1212908225 -917766482 2087087423 946624742 -1439056489 -1037216427 -764278763 678563756 867192288
REM
CELL 1.54180   15.00000   15.00000   15.00000   90.00000   90.00000   90.00000
LATT -1
SFAC C  
C      1  0.5818560000000  0.3343790000000  0.5859650000000 1.0
C      1  0.4139610000000  0.3204270000000  0.5713800000000 1.0
C      1  0.4109070000000  0.3234810000000  0.4799820000000 1.0
C      1  0.5160400000000  0.3304540000000  0.3791380000000 1.0
C      1  0.6339870000000  0.3275670000000  0.4539730000000 1.0
C      1  0.4176510000000  0.6661660000000  0.5862560000000 1.0
C      1  0.5853340000000  0.6785520000000  0.5708110000000 1.0
C      1  0.5888440000000  0.6754630000000  0.4794270000000 1.0
C      1  0.4838460000000  0.6702330000000  0.3793430000000 1.0
C      1  0.3656280000000  0.6728400000000  0.4539130000000 1.0
C      1  0.7391070000000  0.5919270000000  0.5906290000000 1.0
C      1  0.4869400000000  0.5992780000000  0.7102240000000 1.0
C      1  0.2488360000000  0.6184590000000  0.5678860000000 1.0
C      1  0.3634360000000  0.5837880000000  0.2947140000000 1.0
C      1  0.6431500000000  0.6144700000000  0.3223430000000 1.0
C      1  0.2605460000000  0.4073310000000  0.5891640000000 1.0
C      1  0.5128580000000  0.4010540000000  0.7100620000000 1.0
C      1  0.7509750000000  0.3818750000000  0.5679810000000 1.0
C      1  0.6364980000000  0.4160380000000  0.2939000000000 1.0
C      1  0.3565720000000  0.3857420000000  0.3235910000000 1.0
C      1  0.6738850000000  0.6473030000000  0.5831340000000 1.0
C      1  0.4967180000000  0.6562780000000  0.6296250000000 1.0
C      1  0.3331950000000  0.6748190000000  0.5420880000000 1.0
C      1  0.3909790000000  0.6598030000000  0.3633910000000 1.0
C      1  0.5773690000000  0.6702390000000  0.3847940000000 1.0
C      1  0.3251060000000  0.3509010000000  0.5827600000000 1.0
C      1  0.5027170000000  0.3443100000000  0.6294340000000 1.0
C      1  0.6664270000000  0.3258410000000  0.5418900000000 1.0
C      1  0.6088100000000  0.3406940000000  0.3631590000000 1.0
C      1  0.4226670000000  0.3294620000000  0.3854520000000 1.0
C      1  0.6662720000000  0.4669320000000  0.6676420000000 1.0
C      1  0.4042860000000  0.5485460000000  0.7315900000000 1.0
C      1  0.2309670000000  0.5430740000000  0.5097400000000 1.0
C      1  0.4388960000000  0.5245660000000  0.2823610000000 1.0
C      1  0.7023560000000  0.5517490000000  0.3667230000000 1.0
C      1  0.3336810000000  0.5325480000000  0.6674070000000 1.0
C      1  0.5955430000000  0.4516110000000  0.7318780000000 1.0
C      1  0.7699540000000  0.4577380000000  0.5108680000000 1.0
C      1  0.5608640000000  0.4757090000000  0.2826480000000 1.0
C      1  0.2982050000000  0.4488950000000  0.3686080000000 1.0
C      1  0.6250610000000  0.5495530000000  0.2518780000000 1.0
C      1  0.7924460000000  0.5137160000000  0.5905800000000 1.0
C      1  0.5396110000000  0.5300910000000  0.7605590000000 1.0
C      1  0.2432470000000  0.5614750000000  0.6465530000000 1.0
C      1  0.3007820000000  0.5090670000000  0.2885150000000 1.0
C      1  0.3743590000000  0.4504570000000  0.2528720000000 1.0
C      1  0.2080330000000  0.4861030000000  0.5886240000000 1.0
C      1  0.4602660000000  0.4702540000000  0.7606260000000 1.0
C      1  0.7567830000000  0.4378440000000  0.6474170000000 1.0
C      1  0.6989910000000  0.4909030000000  0.2867970000000 1.0
C      1  0.4614820000000  0.5022880000000  0.5701060000000 1.0
C      1  0.3251690000000  0.5197480000000  0.4964830000000 1.0
C      1  0.4552370000000  0.5126580000000  0.3777150000000 1.0
C      1  0.6304990000000  0.5119950000000  0.4204200000000 1.0
C      1  0.6285350000000  0.4897230000000  0.5796420000000 1.0
C      1  0.5386810000000  0.4971020000000  0.5700480000000 1.0
C      1  0.6758190000000  0.4805570000000  0.4966180000000 1.0
C      1  0.5462370000000  0.4878260000000  0.3783030000000 1.0
C      1  0.3712620000000  0.4885710000000  0.4206820000000 1.0
C      1  0.3716300000000  0.5095280000000  0.5796930000000 1.0
END
