TITL C-1525613-7943-3885 0.0390987951803477 3375 -8611.23186775046 0 0 60 (C1) n - 1
REM
REM in /home/nfs/bkarasulu/CARBON/AIRSS/Generating-Clusters/ReaxFF-fromJPCA2015/Units_Real/Try2-Higher-symm/Only-C60
REM
REM
REM
REM
REM
REM ./C.cell (863b2abdce7293c0672fb3ba77bf323a)
REM AIRSS Version 0.9.1 bugfix July 2018 build 013d7b7c2542+ Fri, 06 Jul 2018 19:26:36 +0100
REM compiler GCC version 9.2.1 20190827 (Red Hat 9.2.1-1)
REM options -cpp -mtune=generic -march=x86-64 -g -O0 -fpre-include=/usr/include/finclude/math-vector-fortran.h
REM seed -1408242952 322435013 2031564080 -81019461 -1655444926 134789696 1985374068 -665328302 -1218410636 -1991894164 225529541 425757369 45405681 -749742761 500172485 1287595333 -496961901 -413508608 -352426408 1120357965 -634108486 -1222917929 -1114782573 1821138577 1340379382 1965502990 -386574245 1949774730 299663635 207136994 -906076017 -726537993 -1048789860
REM
CELL 1.54180   15.00000   15.00000   15.00000   90.00000   90.00000   90.00000
LATT -1
SFAC C  
C      1  0.5481100000000  0.6388150000000  0.5032200000000 1.0
C      1  0.3800560000000  0.5843280000000  0.5047630000000 1.0
C      1  0.3819250000000  0.4140660000000  0.5030550000000 1.0
C      1  0.5450810000000  0.3604970000000  0.5019350000000 1.0
C      1  0.6474470000000  0.4989920000000  0.5030830000000 1.0
C      1  0.4558380000000  0.6332550000000  0.4980140000000 1.0
C      1  0.6203280000000  0.5865410000000  0.5001250000000 1.0
C      1  0.6191840000000  0.4143230000000  0.4971070000000 1.0
C      1  0.4559240000000  0.3604180000000  0.4968440000000 1.0
C      1  0.3515100000000  0.4977330000000  0.4997000000000 1.0
C      1  0.7459160000000  0.4827630000000  0.4930830000000 1.0
C      1  0.5943420000000  0.7275740000000  0.4929790000000 1.0
C      1  0.3093730000000  0.6546490000000  0.4927000000000 1.0
C      1  0.2931910000000  0.3707080000000  0.4928940000000 1.0
C      1  0.5596380000000  0.2617460000000  0.4918460000000 1.0
C      1  0.2527670000000  0.4818750000000  0.5089070000000 1.0
C      1  0.4068960000000  0.7230940000000  0.5003810000000 1.0
C      1  0.6908420000000  0.6578780000000  0.5088570000000 1.0
C      1  0.7079440000000  0.3688310000000  0.5074480000000 1.0
C      1  0.4401180000000  0.2619920000000  0.5074830000000 1.0
C      1  0.4591880000000  0.7377060000000  0.5893240000000 1.0
C      1  0.2593080000000  0.5357200000000  0.5953850000000 1.0
C      1  0.3916910000000  0.2836640000000  0.5945860000000 1.0
C      1  0.6722360000000  0.3294710000000  0.5941340000000 1.0
C      1  0.7157120000000  0.6110090000000  0.5952820000000 1.0
C      1  0.5489320000000  0.7393160000000  0.4038020000000 1.0
C      1  0.7422620000000  0.5359110000000  0.4066770000000 1.0
C      1  0.6068960000000  0.2859100000000  0.4051560000000 1.0
C      1  0.3272550000000  0.3306090000000  0.4064090000000 1.0
C      1  0.2814960000000  0.6097770000000  0.4058670000000 1.0
C      1  0.6983790000000  0.3020340000000  0.4260670000000 1.0
C      1  0.7522340000000  0.6279320000000  0.4280570000000 1.0
C      1  0.4566970000000  0.7415960000000  0.4176210000000 1.0
C      1  0.2199640000000  0.5406000000000  0.4271340000000 1.0
C      1  0.3728900000000  0.2496320000000  0.4268610000000 1.0
C      1  0.3009140000000  0.3024400000000  0.5734560000000 1.0
C      1  0.2474740000000  0.6277330000000  0.5746690000000 1.0
C      1  0.5428350000000  0.7781850000000  0.5709620000000 1.0
C      1  0.7780100000000  0.5422120000000  0.5743800000000 1.0
C      1  0.6268270000000  0.2487440000000  0.5725790000000 1.0
C      1  0.5242720000000  0.3834500000000  0.6676070000000 1.0
C      1  0.6185070000000  0.4871670000000  0.6675350000000 1.0
C      1  0.5487130000000  0.6095440000000  0.6666740000000 1.0
C      1  0.4117730000000  0.5811960000000  0.6666270000000 1.0
C      1  0.3963530000000  0.4415280000000  0.6674870000000 1.0
C      1  0.4745900000000  0.3902060000000  0.3318700000000 1.0
C      1  0.3760890000000  0.4878960000000  0.3360660000000 1.0
C      1  0.4423850000000  0.6310690000000  0.3404350000000 1.0
C      1  0.5968210000000  0.5854820000000  0.3340320000000 1.0
C      1  0.6023090000000  0.4447140000000  0.3319420000000 1.0
C      1  0.5636250000000  0.3599630000000  0.3392830000000 1.0
C      1  0.6609870000000  0.5191260000000  0.3369860000000 1.0
C      1  0.5335010000000  0.6588340000000  0.3356950000000 1.0
C      1  0.3623440000000  0.5815250000000  0.3410550000000 1.0
C      1  0.3809240000000  0.3949060000000  0.3381570000000 1.0
C      1  0.4344960000000  0.3561140000000  0.6618270000000 1.0
C      1  0.3423900000000  0.5183260000000  0.6617140000000 1.0
C      1  0.4676590000000  0.6567600000000  0.6586860000000 1.0
C      1  0.6374730000000  0.5787020000000  0.6621020000000 1.0
C      1  0.6171600000000  0.3932110000000  0.6613920000000 1.0
END
