TITL C-1525613-7943-6540 0.0260832794957204 3375 -8528.75050958358 0 0 60 (C1) n - 1
REM
REM in /home/nfs/bkarasulu/CARBON/AIRSS/Generating-Clusters/ReaxFF-fromJPCA2015/Units_Real/Try2-Higher-symm/Only-C60
REM
REM
REM
REM
REM
REM ./C.cell (863b2abdce7293c0672fb3ba77bf323a)
REM AIRSS Version 0.9.1 bugfix July 2018 build 013d7b7c2542+ Fri, 06 Jul 2018 19:26:36 +0100
REM compiler GCC version 9.2.1 20190827 (Red Hat 9.2.1-1)
REM options -cpp -mtune=generic -march=x86-64 -g -O0 -fpre-include=/usr/include/finclude/math-vector-fortran.h
REM seed -1661724540 -1076909847 1345266355 481479915 873374950 791003639 -409410954 -1069325427 -554264855 2138179302 1333333533 781869504 883426864 1236489703 634368100 -838401225 179425192 -2017243793 -1757596260 -1483039763 -1866382336 1599131683 1940246630 877713161 -1294708382 1815334613 -582476255 1106287651 -1216825361 -164832209 -445902541 -663265752 -430319169
REM
CELL 1.54180   15.00000   15.00000   15.00000   90.00000   90.00000   90.00000
LATT -1
SFAC C  
C      1  0.6312080000000  0.3796380000000  0.5830720000000 1.0
C      1  0.6693450000000  0.5960970000000  0.5699320000000 1.0
C      1  0.4661370000000  0.6849790000000  0.5775430000000 1.0
C      1  0.3309970000000  0.5259500000000  0.5892540000000 1.0
C      1  0.4361120000000  0.3437050000000  0.6167210000000 1.0
C      1  0.3692210000000  0.3822650000000  0.4185080000000 1.0
C      1  0.3304580000000  0.5973910000000  0.4294140000000 1.0
C      1  0.5344340000000  0.6854160000000  0.4221660000000 1.0
C      1  0.6697410000000  0.5263830000000  0.4089300000000 1.0
C      1  0.5627760000000  0.3449150000000  0.3822840000000 1.0
C      1  0.5673190000000  0.4542220000000  0.5962640000000 1.0
C      1  0.5903840000000  0.5484590000000  0.6188410000000 1.0
C      1  0.4887750000000  0.5967980000000  0.6262680000000 1.0
C      1  0.4248350000000  0.5198160000000  0.6127950000000 1.0
C      1  0.4738500000000  0.4369050000000  0.6055940000000 1.0
C      1  0.4330800000000  0.4571420000000  0.4058300000000 1.0
C      1  0.4101210000000  0.5505670000000  0.3805870000000 1.0
C      1  0.5124240000000  0.5979810000000  0.3718910000000 1.0
C      1  0.5763760000000  0.5206030000000  0.3831150000000 1.0
C      1  0.5260030000000  0.4387340000000  0.3929180000000 1.0
C      1  0.7127840000000  0.4763490000000  0.4809050000000 1.0
C      1  0.5920450000000  0.7103610000000  0.4972590000000 1.0
C      1  0.3284590000000  0.6588620000000  0.5032900000000 1.0
C      1  0.3148190000000  0.3859990000000  0.4999650000000 1.0
C      1  0.5255680000000  0.2739890000000  0.5365700000000 1.0
C      1  0.2864870000000  0.4762640000000  0.5180220000000 1.0
C      1  0.4083600000000  0.7107650000000  0.5028760000000 1.0
C      1  0.6715580000000  0.6579230000000  0.4963450000000 1.0
C      1  0.6847300000000  0.3863040000000  0.5011100000000 1.0
C      1  0.4789530000000  0.2739470000000  0.4639080000000 1.0
C      1  0.5491490000000  0.7357410000000  0.5842250000000 1.0
C      1  0.2972970000000  0.6204640000000  0.5929610000000 1.0
C      1  0.3414130000000  0.3274790000000  0.5751660000000 1.0
C      1  0.5953820000000  0.2883410000000  0.5999170000000 1.0
C      1  0.7363390000000  0.5247780000000  0.5646470000000 1.0
C      1  0.4513310000000  0.7361130000000  0.4160010000000 1.0
C      1  0.7032820000000  0.6209610000000  0.4062300000000 1.0
C      1  0.6574860000000  0.3289000000000  0.4256790000000 1.0
C      1  0.4067780000000  0.2914880000000  0.4034310000000 1.0
C      1  0.2641430000000  0.5254260000000  0.4341350000000 1.0
C      1  0.4813530000000  0.6454900000000  0.2734210000000 1.0
C      1  0.3529650000000  0.5173080000000  0.2871040000000 1.0
C      1  0.3892800000000  0.2944700000000  0.2300320000000 1.0
C      1  0.6100580000000  0.3300800000000  0.2985170000000 1.0
C      1  0.7074590000000  0.6205460000000  0.2655840000000 1.0
C      1  0.5200210000000  0.6428060000000  0.7255000000000 1.0
C      1  0.6487950000000  0.5164250000000  0.7122630000000 1.0
C      1  0.5991320000000  0.3018020000000  0.7738040000000 1.0
C      1  0.3905520000000  0.3304960000000  0.7016140000000 1.0
C      1  0.2935470000000  0.6170720000000  0.7334590000000 1.0
C      1  0.6878210000000  0.3226080000000  0.3361000000000 1.0
C      1  0.7071000000000  0.6699430000000  0.3286690000000 1.0
C      1  0.4401380000000  0.7081280000000  0.3256860000000 1.0
C      1  0.2842660000000  0.5010110000000  0.3441790000000 1.0
C      1  0.3976810000000  0.2929910000000  0.3108170000000 1.0
C      1  0.3122680000000  0.3207300000000  0.6655420000000 1.0
C      1  0.2935080000000  0.6678690000000  0.6713940000000 1.0
C      1  0.5603600000000  0.7067170000000  0.6742350000000 1.0
C      1  0.7167320000000  0.4997010000000  0.6545730000000 1.0
C      1  0.5970090000000  0.2953870000000  0.6929390000000 1.0
END
