TITL C-1525613-7943-6156 -0.00197677611129672 3375 -9252.51422578465 0 0 60 (C2) n - 1
REM
REM in /home/nfs/bkarasulu/CARBON/AIRSS/Generating-Clusters/ReaxFF-fromJPCA2015/Units_Real/Try2-Higher-symm/Only-C60
REM
REM
REM
REM
REM
REM ./C.cell (863b2abdce7293c0672fb3ba77bf323a)
REM AIRSS Version 0.9.1 bugfix July 2018 build 013d7b7c2542+ Fri, 06 Jul 2018 19:26:36 +0100
REM compiler GCC version 9.2.1 20190827 (Red Hat 9.2.1-1)
REM options -cpp -mtune=generic -march=x86-64 -g -O0 -fpre-include=/usr/include/finclude/math-vector-fortran.h
REM seed 140635901 -1066772198 1399690027 -1131050224 716968235 -1530193723 2092879777 -2020235108 -1844171305 -2041328235 -850481533 -1743026139 -998953908 670925549 -2014620702 -245697282 -2083715326 1013907960 170545805 -322351451 457503656 -1541972515 -458431447 -995988745 1997390773 1287665979 -621798882 -2106919113 -1414240169 638577463 -208476950 951691779 -530477899
REM
CELL 1.54180   15.00000   15.00000   15.00000   90.00000   90.00000   90.00000
LATT -1
SFAC C  
C      1  0.4167070000000  0.4692710000000  0.2490460000000 1.0
C      1  0.3022260000000  0.4877090000000  0.3626300000000 1.0
C      1  0.2274450000000  0.4724380000000  0.5026860000000 1.0
C      1  0.3233630000000  0.4766700000000  0.6359220000000 1.0
C      1  0.4250430000000  0.4677670000000  0.7662140000000 1.0
C      1  0.5832900000000  0.4692550000000  0.7509540000000 1.0
C      1  0.6977660000000  0.4877000000000  0.6373660000000 1.0
C      1  0.7725550000000  0.4724330000000  0.4973140000000 1.0
C      1  0.6766460000000  0.4766750000000  0.3640710000000 1.0
C      1  0.5749570000000  0.4677750000000  0.2337880000000 1.0
C      1  0.7367560000000  0.5221230000000  0.4224570000000 1.0
C      1  0.6247140000000  0.5220800000000  0.2963160000000 1.0
C      1  0.4931200000000  0.5126700000000  0.2209280000000 1.0
C      1  0.3605790000000  0.5286910000000  0.2988380000000 1.0
C      1  0.2485250000000  0.5281860000000  0.4267960000000 1.0
C      1  0.2632500000000  0.5221260000000  0.5775460000000 1.0
C      1  0.3752910000000  0.5220720000000  0.7036830000000 1.0
C      1  0.5068790000000  0.5126550000000  0.7790770000000 1.0
C      1  0.6394220000000  0.5286770000000  0.7011670000000 1.0
C      1  0.7514760000000  0.5281760000000  0.5732070000000 1.0
C      1  0.3372400000000  0.6742060000000  0.5510220000000 1.0
C      1  0.4137850000000  0.6704280000000  0.6162060000000 1.0
C      1  0.5039190000000  0.6793340000000  0.6053850000000 1.0
C      1  0.5947750000000  0.6745030000000  0.6151540000000 1.0
C      1  0.6676720000000  0.6779220000000  0.5455210000000 1.0
C      1  0.6627690000000  0.6742060000000  0.4489880000000 1.0
C      1  0.5862260000000  0.6704300000000  0.3838060000000 1.0
C      1  0.4960930000000  0.6793390000000  0.3946270000000 1.0
C      1  0.4052360000000  0.6745110000000  0.3848590000000 1.0
C      1  0.3323390000000  0.6779290000000  0.4544930000000 1.0
C      1  0.6751380000000  0.3934430000000  0.6177060000000 1.0
C      1  0.7646860000000  0.3774400000000  0.4997430000000 1.0
C      1  0.6560310000000  0.3844080000000  0.3808840000000 1.0
C      1  0.5740110000000  0.3736590000000  0.2434170000000 1.0
C      1  0.4309100000000  0.3800520000000  0.2845670000000 1.0
C      1  0.3248390000000  0.3934490000000  0.3822740000000 1.0
C      1  0.2353060000000  0.3774510000000  0.5002570000000 1.0
C      1  0.3439750000000  0.3844070000000  0.6191030000000 1.0
C      1  0.4259770000000  0.3736460000000  0.7565800000000 1.0
C      1  0.5690780000000  0.3800440000000  0.7154230000000 1.0
C      1  0.7436530000000  0.6163420000000  0.5422940000000 1.0
C      1  0.7356290000000  0.6119520000000  0.4485260000000 1.0
C      1  0.5793240000000  0.6075200000000  0.3058750000000 1.0
C      1  0.4936920000000  0.5983300000000  0.2608420000000 1.0
C      1  0.4088560000000  0.6132020000000  0.3058080000000 1.0
C      1  0.2563580000000  0.6163530000000  0.4577170000000 1.0
C      1  0.2643820000000  0.6119570000000  0.5514830000000 1.0
C      1  0.4206860000000  0.6075130000000  0.6941330000000 1.0
C      1  0.5063140000000  0.5983190000000  0.7391680000000 1.0
C      1  0.5911520000000  0.6131920000000  0.6942060000000 1.0
C      1  0.5072440000000  0.3265750000000  0.2873220000000 1.0
C      1  0.3898630000000  0.3496370000000  0.3508340000000 1.0
C      1  0.2985050000000  0.3338070000000  0.4492690000000 1.0
C      1  0.3015300000000  0.3358180000000  0.5486800000000 1.0
C      1  0.3994660000000  0.3338580000000  0.6781090000000 1.0
C      1  0.4927430000000  0.3265620000000  0.7126760000000 1.0
C      1  0.6101130000000  0.3496270000000  0.6491510000000 1.0
C      1  0.7014820000000  0.3338010000000  0.5507070000000 1.0
C      1  0.6984710000000  0.3358150000000  0.4513010000000 1.0
C      1  0.6005250000000  0.3338650000000  0.3218780000000 1.0
END
