TITL C-1525613-7943-2193 0.0669258296456072 3375 -8276.8429307539 0 0 60 (C5) n - 1
REM
REM in /home/nfs/bkarasulu/CARBON/AIRSS/Generating-Clusters/ReaxFF-fromJPCA2015/Units_Real/Try2-Higher-symm/Only-C60
REM
REM
REM
REM
REM
REM ./C.cell (863b2abdce7293c0672fb3ba77bf323a)
REM AIRSS Version 0.9.1 bugfix July 2018 build 013d7b7c2542+ Fri, 06 Jul 2018 19:26:36 +0100
REM compiler GCC version 9.2.1 20190827 (Red Hat 9.2.1-1)
REM options -cpp -mtune=generic -march=x86-64 -g -O0 -fpre-include=/usr/include/finclude/math-vector-fortran.h
REM seed -1299050210 642444641 -174153630 267094878 -1655609466 -1989596989 -1211407512 1180706281 -486927351 1922461948 -1517396860 1657312167 -1884499108 1105766828 1988452839 1680640601 -744476020 1432484570 -892863186 1116225645 -134478564 -1652132298 -1343678520 86337396 160446701 -729863099 780844128 -270543318 1963138854 1389323815 1696360040 -934861902 2079888388
REM
CELL 1.54180   15.00000   15.00000   15.00000   90.00000   90.00000   90.00000
LATT -1
SFAC C  
C      1  0.7655380000000  0.6553790000000  0.5570070000000 1.0
C      1  0.5276350000000  0.6553650000000  0.7701170000000 1.0
C      1  0.2516800000000  0.6553280000000  0.6098280000000 1.0
C      1  0.3188240000000  0.6552890000000  0.2977630000000 1.0
C      1  0.6363910000000  0.6554330000000  0.2651430000000 1.0
C      1  0.7655570000000  0.3445890000000  0.5570060000000 1.0
C      1  0.5276410000000  0.3445960000000  0.7701420000000 1.0
C      1  0.2516580000000  0.3446100000000  0.6098670000000 1.0
C      1  0.3186810000000  0.3447070000000  0.2978630000000 1.0
C      1  0.6361860000000  0.3447810000000  0.2651250000000 1.0
C      1  0.6296790000000  0.5518510000000  0.6237860000000 1.0
C      1  0.4223990000000  0.5518330000000  0.6615110000000 1.0
C      1  0.3224370000000  0.5516210000000  0.4760750000000 1.0
C      1  0.4679780000000  0.5514320000000  0.3237780000000 1.0
C      1  0.6575460000000  0.5518280000000  0.4150590000000 1.0
C      1  0.6297200000000  0.4482460000000  0.6238570000000 1.0
C      1  0.4223200000000  0.4482830000000  0.6615310000000 1.0
C      1  0.3225520000000  0.4481790000000  0.4761470000000 1.0
C      1  0.4677970000000  0.4480320000000  0.3240940000000 1.0
C      1  0.6576810000000  0.4483590000000  0.4150280000000 1.0
C      1  0.5504340000000  0.5485960000000  0.2661360000000 1.0
C      1  0.7377790000000  0.5483730000000  0.4756210000000 1.0
C      1  0.5966690000000  0.5484290000000  0.7187350000000 1.0
C      1  0.3219180000000  0.5484170000000  0.6594420000000 1.0
C      1  0.2932820000000  0.5485090000000  0.3798510000000 1.0
C      1  0.5502510000000  0.4517370000000  0.2665390000000 1.0
C      1  0.7379380000000  0.4515130000000  0.4756720000000 1.0
C      1  0.5967060000000  0.4515430000000  0.7188040000000 1.0
C      1  0.3218460000000  0.4515510000000  0.6595310000000 1.0
C      1  0.2933570000000  0.4516240000000  0.3799990000000 1.0
C      1  0.5572850000000  0.7026820000000  0.5584790000000 1.0
C      1  0.4621150000000  0.7027180000000  0.5725170000000 1.0
C      1  0.4192840000000  0.7026850000000  0.4864500000000 1.0
C      1  0.4879960000000  0.7025980000000  0.4191330000000 1.0
C      1  0.5732830000000  0.7026500000000  0.4636300000000 1.0
C      1  0.5572890000000  0.2972600000000  0.5584780000000 1.0
C      1  0.4621270000000  0.2972710000000  0.5725130000000 1.0
C      1  0.4193020000000  0.2972850000000  0.4864210000000 1.0
C      1  0.4879790000000  0.2973140000000  0.4191570000000 1.0
C      1  0.5732470000000  0.2973280000000  0.4636340000000 1.0
C      1  0.4869880000000  0.6012430000000  0.4122840000000 1.0
C      1  0.5792230000000  0.6013400000000  0.4605070000000 1.0
C      1  0.5619800000000  0.6013930000000  0.5631130000000 1.0
C      1  0.4590150000000  0.6013570000000  0.5782920000000 1.0
C      1  0.4127170000000  0.6012850000000  0.4851290000000 1.0
C      1  0.4869190000000  0.3987640000000  0.4124060000000 1.0
C      1  0.5791620000000  0.3987010000000  0.4604480000000 1.0
C      1  0.5619390000000  0.3985920000000  0.5630950000000 1.0
C      1  0.4589780000000  0.3986470000000  0.5782340000000 1.0
C      1  0.4127850000000  0.3987480000000  0.4851000000000 1.0
C      1  0.6344540000000  0.4165650000000  0.3092560000000 1.0
C      1  0.7230620000000  0.4164470000000  0.5690060000000 1.0
C      1  0.5032980000000  0.4164780000000  0.7333980000000 1.0
C      1  0.2789860000000  0.4164530000000  0.5752330000000 1.0
C      1  0.3601490000000  0.4165580000000  0.3130950000000 1.0
C      1  0.6345960000000  0.5835490000000  0.3092310000000 1.0
C      1  0.7230800000000  0.5835530000000  0.5689600000000 1.0
C      1  0.5033340000000  0.5835240000000  0.7333910000000 1.0
C      1  0.2790510000000  0.5835240000000  0.5752370000000 1.0
C      1  0.3602940000000  0.5834520000000  0.3131140000000 1.0
END
