TITL C-1525613-7943-1582 0.251239048112165 3375 -7665.2713555833 0 0 60 (C10) n - 1
REM
REM in /home/nfs/bkarasulu/CARBON/AIRSS/Generating-Clusters/ReaxFF-fromJPCA2015/Units_Real/Try2-Higher-symm/Only-C60
REM
REM
REM
REM
REM
REM ./C.cell (863b2abdce7293c0672fb3ba77bf323a)
REM AIRSS Version 0.9.1 bugfix July 2018 build 013d7b7c2542+ Fri, 06 Jul 2018 19:26:36 +0100
REM compiler GCC version 9.2.1 20190827 (Red Hat 9.2.1-1)
REM options -cpp -mtune=generic -march=x86-64 -g -O0 -fpre-include=/usr/include/finclude/math-vector-fortran.h
REM seed 888371671 1540225930 351859373 -419318781 -809793896 1507024953 -1328716689 -2092623593 -1813787289 -898683798 1547137527 -480303196 741926365 -1539079944 1793991403 -406401116 -805177517 1240275384 -298381061 -1125565499 -155075208 -283092083 -1067172630 -37850336 69373979 1794468030 1850536946 2062453460 -1802984799 -1667596725 -1222396043 514284783 -1122886869
REM
CELL 1.54180   15.00000   15.00000   15.00000   90.00000   90.00000   90.00000
LATT -1
SFAC C  
C      1  0.2810080000000  0.3488500000000  0.4642880000000 1.0
C      1  0.2815410000000  0.3985170000000  0.3818290000000 1.0
C      1  0.2806010000000  0.4872060000000  0.3451910000000 1.0
C      1  0.2815270000000  0.5809160000000  0.3668360000000 1.0
C      1  0.2811220000000  0.6433870000000  0.4401380000000 1.0
C      1  0.2810280000000  0.6516900000000  0.5358530000000 1.0
C      1  0.2810600000000  0.6014460000000  0.6177930000000 1.0
C      1  0.2813450000000  0.5126940000000  0.6552890000000 1.0
C      1  0.2807840000000  0.4193830000000  0.6328760000000 1.0
C      1  0.2815310000000  0.3562890000000  0.5601830000000 1.0
C      1  0.6252970000000  0.2955390000000  0.4381240000000 1.0
C      1  0.6246090000000  0.3725170000000  0.3286990000000 1.0
C      1  0.6253330000000  0.4956170000000  0.2864340000000 1.0
C      1  0.6245960000000  0.6234200000000  0.3257810000000 1.0
C      1  0.6252530000000  0.7017020000000  0.4298430000000 1.0
C      1  0.6245840000000  0.7038250000000  0.5636380000000 1.0
C      1  0.6251930000000  0.6291530000000  0.6701370000000 1.0
C      1  0.6245430000000  0.5026980000000  0.7134490000000 1.0
C      1  0.6252770000000  0.3780590000000  0.6753240000000 1.0
C      1  0.6245900000000  0.2977420000000  0.5683440000000 1.0
C      1  0.6990470000000  0.4865250000000  0.3441610000000 1.0
C      1  0.6975790000000  0.5804510000000  0.3659000000000 1.0
C      1  0.6989600000000  0.6440790000000  0.4390130000000 1.0
C      1  0.6976140000000  0.6524070000000  0.5350580000000 1.0
C      1  0.6990420000000  0.6025170000000  0.6181410000000 1.0
C      1  0.6975700000000  0.5139150000000  0.6558710000000 1.0
C      1  0.6989490000000  0.4193320000000  0.6340660000000 1.0
C      1  0.6975850000000  0.3560200000000  0.5611820000000 1.0
C      1  0.6989630000000  0.3476280000000  0.4646210000000 1.0
C      1  0.6975800000000  0.3973140000000  0.3820470000000 1.0
C      1  0.5418590000000  0.3481500000000  0.3368120000000 1.0
C      1  0.5403370000000  0.4784440000000  0.2789480000000 1.0
C      1  0.5418550000000  0.6083220000000  0.3052280000000 1.0
C      1  0.5403070000000  0.7035030000000  0.4112070000000 1.0
C      1  0.5417830000000  0.7187750000000  0.5428130000000 1.0
C      1  0.5405010000000  0.6474580000000  0.6658490000000 1.0
C      1  0.5418800000000  0.5265620000000  0.7212290000000 1.0
C      1  0.5402740000000  0.3874890000000  0.6915170000000 1.0
C      1  0.5418250000000  0.2978510000000  0.5939540000000 1.0
C      1  0.5403190000000  0.2830470000000  0.4522160000000 1.0
C      1  0.3841990000000  0.4060470000000  0.3755670000000 1.0
C      1  0.3828500000000  0.4972040000000  0.3445350000000 1.0
C      1  0.3840460000000  0.5895380000000  0.3723760000000 1.0
C      1  0.3832630000000  0.6469830000000  0.4491160000000 1.0
C      1  0.3838190000000  0.6490400000000  0.5456470000000 1.0
C      1  0.3830510000000  0.5936180000000  0.6239970000000 1.0
C      1  0.3837140000000  0.5027380000000  0.6557370000000 1.0
C      1  0.3830230000000  0.4107330000000  0.6274080000000 1.0
C      1  0.3839660000000  0.3525200000000  0.5505600000000 1.0
C      1  0.3831620000000  0.3512120000000  0.4545590000000 1.0
C      1  0.4693160000000  0.5031550000000  0.2755950000000 1.0
C      1  0.4727250000000  0.6323730000000  0.3232630000000 1.0
C      1  0.4692080000000  0.7143410000000  0.4336660000000 1.0
C      1  0.4726950000000  0.7087590000000  0.5713410000000 1.0
C      1  0.4697010000000  0.6293350000000  0.6835890000000 1.0
C      1  0.4727660000000  0.4967610000000  0.7209820000000 1.0
C      1  0.4692140000000  0.3655300000000  0.6796990000000 1.0
C      1  0.4726810000000  0.2891440000000  0.5651440000000 1.0
C      1  0.4692250000000  0.2875550000000  0.4277030000000 1.0
C      1  0.4727240000000  0.3729760000000  0.3196320000000 1.0
END
