TITL C-1525613-7943-4695 -0.458210404937015 3375 -8760.16002639025 0 0 60 (Ci) n - 1
REM
REM in /home/nfs/bkarasulu/CARBON/AIRSS/Generating-Clusters/ReaxFF-fromJPCA2015/Units_Real/Try2-Higher-symm/Only-C60
REM
REM
REM
REM
REM
REM ./C.cell (863b2abdce7293c0672fb3ba77bf323a)
REM AIRSS Version 0.9.1 bugfix July 2018 build 013d7b7c2542+ Fri, 06 Jul 2018 19:26:36 +0100
REM compiler GCC version 9.2.1 20190827 (Red Hat 9.2.1-1)
REM options -cpp -mtune=generic -march=x86-64 -g -O0 -fpre-include=/usr/include/finclude/math-vector-fortran.h
REM seed -333455930 815363596 1075464577 131658715 1416785910 1479924970 -810865875 2117011422 607540837 -1696091567 -478133997 1302712078 1367411452 -1939927418 -1217751566 -1803529391 653927910 -1314275803 1921442277 498824610 955117942 1343000792 -1111092722 -2066623362 1152362952 993334487 1492684924 -56716559 1667887589 -1924962107 -1308878585 -1178955049 -244490122
REM
CELL 1.54180   15.00000   15.00000   15.00000   90.00000   90.00000   90.00000
LATT -1
SFAC C  
C      1  0.3401810000000  0.6418520000000  0.4221550000000 1.0
C      1  0.4167670000000  0.3576360000000  0.3446310000000 1.0
C      1  0.5264930000000  0.6403640000000  0.3227410000000 1.0
C      1  0.6245120000000  0.3607390000000  0.3712780000000 1.0
C      1  0.6750340000000  0.6427540000000  0.4699920000000 1.0
C      1  0.6600050000000  0.3580430000000  0.5779870000000 1.0
C      1  0.5832150000000  0.6423200000000  0.6553770000000 1.0
C      1  0.4734980000000  0.3596070000000  0.6772240000000 1.0
C      1  0.3754330000000  0.6393260000000  0.6288230000000 1.0
C      1  0.3249800000000  0.3573030000000  0.5300190000000 1.0
C      1  0.2748140000000  0.4456170000000  0.5062270000000 1.0
C      1  0.3150620000000  0.5547280000000  0.3726060000000 1.0
C      1  0.4248820000000  0.4458190000000  0.2882800000000 1.0
C      1  0.5641610000000  0.5545760000000  0.2833360000000 1.0
C      1  0.6789840000000  0.4463280000000  0.3626170000000 1.0
C      1  0.7251700000000  0.5543850000000  0.4937440000000 1.0
C      1  0.6850060000000  0.4452720000000  0.6274220000000 1.0
C      1  0.5751130000000  0.5541790000000  0.7116830000000 1.0
C      1  0.4358160000000  0.4454520000000  0.7166780000000 1.0
C      1  0.3210080000000  0.5536710000000  0.6373850000000 1.0
C      1  0.5351130000000  0.6949750000000  0.5759590000000 1.0
C      1  0.4823080000000  0.3066290000000  0.5834360000000 1.0
C      1  0.4382560000000  0.6948510000000  0.5539630000000 1.0
C      1  0.4144270000000  0.3059760000000  0.5094100000000 1.0
C      1  0.4255510000000  0.6947600000000  0.4556270000000 1.0
C      1  0.4646530000000  0.3047260000000  0.4240340000000 1.0
C      1  0.5176940000000  0.6933790000000  0.4165570000000 1.0
C      1  0.5615690000000  0.3053400000000  0.4459490000000 1.0
C      1  0.5855750000000  0.6938930000000  0.4906330000000 1.0
C      1  0.5745090000000  0.3054310000000  0.5442800000000 1.0
C      1  0.6217320000000  0.4688400000000  0.6968810000000 1.0
C      1  0.4828830000000  0.5317250000000  0.7319690000000 1.0
C      1  0.3500340000000  0.4671900000000  0.6756860000000 1.0
C      1  0.2746280000000  0.5318070000000  0.5540180000000 1.0
C      1  0.2854870000000  0.4690060000000  0.4120920000000 1.0
C      1  0.3782420000000  0.5311230000000  0.3030820000000 1.0
C      1  0.5170890000000  0.4682890000000  0.2680340000000 1.0
C      1  0.6499620000000  0.5327970000000  0.3242880000000 1.0
C      1  0.7253470000000  0.4681680000000  0.4460240000000 1.0
C      1  0.7145520000000  0.5309910000000  0.5878870000000 1.0
C      1  0.5188730000000  0.4335080000000  0.4181200000000 1.0
C      1  0.5577080000000  0.5666320000000  0.4464010000000 1.0
C      1  0.5812750000000  0.4309360000000  0.4913660000000 1.0
C      1  0.5694990000000  0.5638930000000  0.5429610000000 1.0
C      1  0.5340860000000  0.4302130000000  0.5732050000000 1.0
C      1  0.4813610000000  0.5666020000000  0.5819570000000 1.0
C      1  0.4423350000000  0.4333790000000  0.5535500000000 1.0
C      1  0.4184920000000  0.5690820000000  0.5085520000000 1.0
C      1  0.4307270000000  0.4360230000000  0.4569920000000 1.0
C      1  0.4659320000000  0.5698510000000  0.4266680000000 1.0
C      1  0.4382010000000  0.6051260000000  0.3346170000000 1.0
C      1  0.5489460000000  0.3923880000000  0.3228570000000 1.0
C      1  0.6399480000000  0.6074840000000  0.3884620000000 1.0
C      1  0.6823930000000  0.3917030000000  0.4916670000000 1.0
C      1  0.6522520000000  0.6075500000000  0.5992450000000 1.0
C      1  0.5618170000000  0.3948180000000  0.6653740000000 1.0
C      1  0.4510500000000  0.6076810000000  0.6772460000000 1.0
C      1  0.3600780000000  0.3924800000000  0.6115520000000 1.0
C      1  0.3174320000000  0.6083110000000  0.5083750000000 1.0
C      1  0.3478480000000  0.3924740000000  0.4008170000000 1.0
END
