TITL C-1525613-7943-6190 0.00421868266369877 3375 -8727.33401851268 0 0 60 (C2) n - 1
REM
REM in /home/nfs/bkarasulu/CARBON/AIRSS/Generating-Clusters/ReaxFF-fromJPCA2015/Units_Real/Try2-Higher-symm/Only-C60
REM
REM
REM
REM
REM
REM ./C.cell (863b2abdce7293c0672fb3ba77bf323a)
REM AIRSS Version 0.9.1 bugfix July 2018 build 013d7b7c2542+ Fri, 06 Jul 2018 19:26:36 +0100
REM compiler GCC version 9.2.1 20190827 (Red Hat 9.2.1-1)
REM options -cpp -mtune=generic -march=x86-64 -g -O0 -fpre-include=/usr/include/finclude/math-vector-fortran.h
REM seed 125472747 1028767952 -1414381891 1499308897 -171495741 1060098743 421156207 1201580775 856436800 497392320 -1600177615 1826128717 -106146344 62240960 1308298917 -878022646 -2123623209 -814949477 550292818 -2033575498 2050046988 1884601761 -1032107653 -182098936 1212631719 349857438 950164157 -962974713 -1095799588 -1478309566 108244607 -1311368172 -1502089170
REM
CELL 1.54180   15.00000   15.00000   15.00000   90.00000   90.00000   90.00000
LATT -1
SFAC C  
C      1  0.5689390000000  0.7023780000000  0.4769210000000 1.0
C      1  0.5286880000000  0.7470890000000  0.5596840000000 1.0
C      1  0.4299790000000  0.7574300000000  0.5504430000000 1.0
C      1  0.4286120000000  0.7021430000000  0.4640920000000 1.0
C      1  0.5066900000000  0.7335200000000  0.4055760000000 1.0
C      1  0.4310640000000  0.2976190000000  0.4769270000000 1.0
C      1  0.4713210000000  0.2529130000000  0.5596770000000 1.0
C      1  0.5700100000000  0.2425740000000  0.5504400000000 1.0
C      1  0.5713870000000  0.2978550000000  0.4640980000000 1.0
C      1  0.4933100000000  0.2664800000000  0.4055750000000 1.0
C      1  0.3181620000000  0.5909610000000  0.4486090000000 1.0
C      1  0.4934600000000  0.5829330000000  0.3183110000000 1.0
C      1  0.6808250000000  0.5916130000000  0.4377690000000 1.0
C      1  0.6144150000000  0.5896280000000  0.6498850000000 1.0
C      1  0.3994360000000  0.5921290000000  0.6550460000000 1.0
C      1  0.6818380000000  0.4090390000000  0.4486090000000 1.0
C      1  0.5065400000000  0.4170670000000  0.3183110000000 1.0
C      1  0.3191750000000  0.4083870000000  0.4377690000000 1.0
C      1  0.3855850000000  0.4103720000000  0.6498850000000 1.0
C      1  0.6005640000000  0.4078710000000  0.6550460000000 1.0
C      1  0.7325650000000  0.5743130000000  0.5830050000000 1.0
C      1  0.4961000000000  0.5766830000000  0.7500620000000 1.0
C      1  0.2640910000000  0.5795550000000  0.5723550000000 1.0
C      1  0.3596650000000  0.5758850000000  0.2970610000000 1.0
C      1  0.6486010000000  0.5778040000000  0.3065980000000 1.0
C      1  0.2674350000000  0.4256870000000  0.5830050000000 1.0
C      1  0.5039000000000  0.4233170000000  0.7500620000000 1.0
C      1  0.7359090000000  0.4204450000000  0.5723550000000 1.0
C      1  0.6403350000000  0.4241150000000  0.2970610000000 1.0
C      1  0.3513990000000  0.4221960000000  0.3065980000000 1.0
C      1  0.5707260000000  0.5633860000000  0.2592690000000 1.0
C      1  0.7543220000000  0.5614160000000  0.4944280000000 1.0
C      1  0.5862300000000  0.5603870000000  0.7405990000000 1.0
C      1  0.3034050000000  0.5648810000000  0.6539930000000 1.0
C      1  0.2919970000000  0.5631510000000  0.3588400000000 1.0
C      1  0.4292740000000  0.4366140000000  0.2592690000000 1.0
C      1  0.2456780000000  0.4385840000000  0.4944280000000 1.0
C      1  0.4137700000000  0.4396130000000  0.7405990000000 1.0
C      1  0.6965950000000  0.4351190000000  0.6539930000000 1.0
C      1  0.7080030000000  0.4368490000000  0.3588400000000 1.0
C      1  0.5434010000000  0.4131970000000  0.5736350000000 1.0
C      1  0.4476580000000  0.4159080000000  0.5712980000000 1.0
C      1  0.4180370000000  0.4002420000000  0.4743190000000 1.0
C      1  0.5015510000000  0.4487350000000  0.4147930000000 1.0
C      1  0.5802860000000  0.4002100000000  0.4780790000000 1.0
C      1  0.4565990000000  0.5868030000000  0.5736350000000 1.0
C      1  0.5523420000000  0.5840920000000  0.5712980000000 1.0
C      1  0.5819630000000  0.5997580000000  0.4743190000000 1.0
C      1  0.4984490000000  0.5512650000000  0.4147930000000 1.0
C      1  0.4197140000000  0.5997890000000  0.4780790000000 1.0
C      1  0.5678950000000  0.4566980000000  0.2510800000000 1.0
C      1  0.7586630000000  0.4532360000000  0.4897520000000 1.0
C      1  0.5898040000000  0.4534490000000  0.7431720000000 1.0
C      1  0.2989730000000  0.4580420000000  0.6619920000000 1.0
C      1  0.2841370000000  0.4547590000000  0.3593330000000 1.0
C      1  0.4321050000000  0.5433020000000  0.2510800000000 1.0
C      1  0.2413370000000  0.5467640000000  0.4897520000000 1.0
C      1  0.4101960000000  0.5465520000000  0.7431720000000 1.0
C      1  0.7010270000000  0.5419580000000  0.6619920000000 1.0
C      1  0.7158630000000  0.5452410000000  0.3593330000000 1.0
END
