TITL C-1525613-7943-254 0.0367959500389209 3375 -9513.86830761821 0 0 60 (D5d) n - 1
REM
REM in /home/nfs/bkarasulu/CARBON/AIRSS/Generating-Clusters/ReaxFF-fromJPCA2015/Units_Real/Try2-Higher-symm/Only-C60
REM
REM
REM
REM
REM
REM ./C.cell (863b2abdce7293c0672fb3ba77bf323a)
REM AIRSS Version 0.9.1 bugfix July 2018 build 013d7b7c2542+ Fri, 06 Jul 2018 19:26:36 +0100
REM compiler GCC version 9.2.1 20190827 (Red Hat 9.2.1-1)
REM options -cpp -mtune=generic -march=x86-64 -g -O0 -fpre-include=/usr/include/finclude/math-vector-fortran.h
REM seed 1045057725 1199957245 -197026205 1520379568 -759113691 819553886 980098110 1575832053 -275333309 -152450559 955215988 -1406170810 334340209 116784401 -1082991467 -567103095 52422558 2014787121 700414470 1039518517 498989047 292452185 1664706892 1946802157 714212341 -1126880664 -1714966568 -1789731371 898659472 -2088518439 627789801 -925742056 1105395170
REM
CELL 1.54180   15.00000   15.00000   15.00000   90.00000   90.00000   90.00000
LATT -1
SFAC C  
C      1  0.6499390000000  0.3116520000000  0.5497300000000 1.0
C      1  0.4991880000000  0.3104510000000  0.6570740000000 1.0
C      1  0.3502150000000  0.3132390000000  0.5466060000000 1.0
C      1  0.4070600000000  0.3093740000000  0.3729820000000 1.0
C      1  0.5928950000000  0.3114700000000  0.3738220000000 1.0
C      1  0.6509260000000  0.3097650000000  0.4508660000000 1.0
C      1  0.4990040000000  0.3110550000000  0.3434490000000 1.0
C      1  0.3500100000000  0.3133010000000  0.4530330000000 1.0
C      1  0.4076180000000  0.3097380000000  0.6264940000000 1.0
C      1  0.5931030000000  0.3121420000000  0.6266210000000 1.0
C      1  0.7043570000000  0.6213270000000  0.5911580000000 1.0
C      1  0.4762970000000  0.6213600000000  0.7229910000000 1.0
C      1  0.2810500000000  0.6211790000000  0.5464510000000 1.0
C      1  0.3883020000000  0.6210370000000  0.3062600000000 1.0
C      1  0.6500160000000  0.6214500000000  0.3334800000000 1.0
C      1  0.7041120000000  0.6211810000000  0.4089060000000 1.0
C      1  0.4763670000000  0.6213830000000  0.2769310000000 1.0
C      1  0.2811190000000  0.6212100000000  0.4535710000000 1.0
C      1  0.3881880000000  0.6210860000000  0.6938530000000 1.0
C      1  0.6498750000000  0.6212050000000  0.6663390000000 1.0
C      1  0.5229990000000  0.3786670000000  0.7229490000000 1.0
C      1  0.2962720000000  0.3782320000000  0.5897720000000 1.0
C      1  0.3487900000000  0.3775140000000  0.3321330000000 1.0
C      1  0.6111870000000  0.3791010000000  0.3072260000000 1.0
C      1  0.7191100000000  0.3786970000000  0.5462890000000 1.0
C      1  0.5230300000000  0.3791430000000  0.2784840000000 1.0
C      1  0.2959840000000  0.3782050000000  0.4100160000000 1.0
C      1  0.3492330000000  0.3776580000000  0.6674100000000 1.0
C      1  0.6110150000000  0.3788210000000  0.6932760000000 1.0
C      1  0.7207670000000  0.3780000000000  0.4532500000000 1.0
C      1  0.4746540000000  0.4591060000000  0.2672410000000 1.0
C      1  0.7142320000000  0.4591250000000  0.4037450000000 1.0
C      1  0.6569110000000  0.4589380000000  0.6730420000000 1.0
C      1  0.3837690000000  0.4596690000000  0.7040520000000 1.0
C      1  0.2713560000000  0.4586970000000  0.4520570000000 1.0
C      1  0.4746680000000  0.4589220000000  0.7331730000000 1.0
C      1  0.7133440000000  0.4587350000000  0.5953940000000 1.0
C      1  0.6571580000000  0.4591730000000  0.3266070000000 1.0
C      1  0.3835820000000  0.4596910000000  0.2959250000000 1.0
C      1  0.2714430000000  0.4586590000000  0.5479200000000 1.0
C      1  0.5005070000000  0.6893110000000  0.6582170000000 1.0
C      1  0.3498090000000  0.6896420000000  0.5496030000000 1.0
C      1  0.4066410000000  0.6892160000000  0.3727090000000 1.0
C      1  0.5923510000000  0.6895640000000  0.3717080000000 1.0
C      1  0.6503010000000  0.6895450000000  0.5483350000000 1.0
C      1  0.5005340000000  0.6893560000000  0.3418310000000 1.0
C      1  0.3498720000000  0.6896340000000  0.4505000000000 1.0
C      1  0.4065200000000  0.6894100000000  0.6274490000000 1.0
C      1  0.5922380000000  0.6895680000000  0.6285060000000 1.0
C      1  0.6501030000000  0.6892070000000  0.4519520000000 1.0
C      1  0.5250800000000  0.5403110000000  0.7330850000000 1.0
C      1  0.2870020000000  0.5405020000000  0.5961540000000 1.0
C      1  0.3434970000000  0.5408790000000  0.3263590000000 1.0
C      1  0.6166670000000  0.5405640000000  0.2966280000000 1.0
C      1  0.7288660000000  0.5405940000000  0.5475480000000 1.0
C      1  0.5251360000000  0.5403650000000  0.2667430000000 1.0
C      1  0.2870630000000  0.5405980000000  0.4038300000000 1.0
C      1  0.3434510000000  0.5408210000000  0.6736870000000 1.0
C      1  0.6164360000000  0.5406680000000  0.7029370000000 1.0
C      1  0.7287820000000  0.5408870000000  0.4516410000000 1.0
END
