TITL C-1525613-7943-2155 -0.110330780912991 3375 -9417.44247954315 0 0 60 (D5) n - 1
REM
REM in /home/nfs/bkarasulu/CARBON/AIRSS/Generating-Clusters/ReaxFF-fromJPCA2015/Units_Real/Try2-Higher-symm/Only-C60
REM
REM
REM
REM
REM
REM ./C.cell (863b2abdce7293c0672fb3ba77bf323a)
REM AIRSS Version 0.9.1 bugfix July 2018 build 013d7b7c2542+ Fri, 06 Jul 2018 19:26:36 +0100
REM compiler GCC version 9.2.1 20190827 (Red Hat 9.2.1-1)
REM options -cpp -mtune=generic -march=x86-64 -g -O0 -fpre-include=/usr/include/finclude/math-vector-fortran.h
REM seed -1265112034 906047576 1110137913 -1738692525 1514029692 5748584 1291096045 -1433393178 1487860798 1541596516 -1359161713 603179724 -1386121123 -12385527 1738424659 -1161175108 650469156 2007353487 -1334072737 2069059961 212392824 -1651464926 1146741163 -614780153 -1387666131 -423679724 -1613566416 2039387982 1558873282 1730134247 171806589 875651633 -1147362579
REM
CELL 1.54180   15.00000   15.00000   15.00000   90.00000   90.00000   90.00000
LATT -1
SFAC C  
C      1  0.5689880000000  0.6833120000000  0.4564700000000 1.0
C      1  0.5628550000000  0.6835250000000  0.5522320000000 1.0
C      1  0.4698700000000  0.6837890000000  0.5759750000000 1.0
C      1  0.4185660000000  0.6835470000000  0.4948860000000 1.0
C      1  0.4798270000000  0.6833560000000  0.4210270000000 1.0
C      1  0.4310120000000  0.3166880000000  0.4564700000000 1.0
C      1  0.4371450000000  0.3164750000000  0.5522320000000 1.0
C      1  0.5301300000000  0.3162110000000  0.5759750000000 1.0
C      1  0.5814340000000  0.3164530000000  0.4948860000000 1.0
C      1  0.5201730000000  0.3166440000000  0.4210270000000 1.0
C      1  0.5468480000000  0.4137600000000  0.7260080000000 1.0
C      1  0.2992020000000  0.4136970000000  0.6145370000000 1.0
C      1  0.3290970000000  0.4137530000000  0.3445480000000 1.0
C      1  0.5949850000000  0.4137850000000  0.2894340000000 1.0
C      1  0.7296910000000  0.4137360000000  0.5252610000000 1.0
C      1  0.4531520000000  0.5862400000000  0.7260080000000 1.0
C      1  0.7007980000000  0.5863030000000  0.6145370000000 1.0
C      1  0.6709030000000  0.5862470000000  0.3445480000000 1.0
C      1  0.4050150000000  0.5862150000000  0.2894340000000 1.0
C      1  0.2703090000000  0.5862640000000  0.5252610000000 1.0
C      1  0.2890990000000  0.4950500000000  0.3794110000000 1.0
C      1  0.5495050000000  0.4950770000000  0.2620860000000 1.0
C      1  0.7415530000000  0.4950290000000  0.4735260000000 1.0
C      1  0.5997340000000  0.4950320000000  0.7213330000000 1.0
C      1  0.3201050000000  0.4950290000000  0.6632420000000 1.0
C      1  0.7109010000000  0.5049500000000  0.3794110000000 1.0
C      1  0.4504950000000  0.5049230000000  0.2620860000000 1.0
C      1  0.2584470000000  0.5049710000000  0.4735260000000 1.0
C      1  0.4002660000000  0.5049680000000  0.7213330000000 1.0
C      1  0.6798950000000  0.5049710000000  0.6632420000000 1.0
C      1  0.7229750000000  0.6344490000000  0.4640260000000 1.0
C      1  0.6032140000000  0.6344590000000  0.7009260000000 1.0
C      1  0.3407560000000  0.6344770000000  0.6600030000000 1.0
C      1  0.2986330000000  0.6344660000000  0.3980610000000 1.0
C      1  0.5347070000000  0.6345010000000  0.2769900000000 1.0
C      1  0.2770250000000  0.3655510000000  0.4640260000000 1.0
C      1  0.3967860000000  0.3655410000000  0.7009260000000 1.0
C      1  0.6592440000000  0.3655230000000  0.6600030000000 1.0
C      1  0.7013670000000  0.3655340000000  0.3980610000000 1.0
C      1  0.4652930000000  0.3654990000000  0.2769900000000 1.0
C      1  0.6069550000000  0.5769350000000  0.2674190000000 1.0
C      1  0.7543080000000  0.5768730000000  0.5298150000000 1.0
C      1  0.5501970000000  0.5768760000000  0.7509160000000 1.0
C      1  0.2767070000000  0.5769040000000  0.6252410000000 1.0
C      1  0.3118860000000  0.5768950000000  0.3264040000000 1.0
C      1  0.3930450000000  0.4230650000000  0.2674190000000 1.0
C      1  0.2456920000000  0.4231270000000  0.5298150000000 1.0
C      1  0.4498030000000  0.4231240000000  0.7509160000000 1.0
C      1  0.7232930000000  0.4230960000000  0.6252410000000 1.0
C      1  0.6881140000000  0.4231050000000  0.3264040000000 1.0
C      1  0.4592080000000  0.6631590000000  0.3231680000000 1.0
C      1  0.6556610000000  0.6631260000000  0.4065760000000 1.0
C      1  0.6371070000000  0.6632030000000  0.6191900000000 1.0
C      1  0.4289210000000  0.6633010000000  0.6671510000000 1.0
C      1  0.3191810000000  0.6631600000000  0.4841380000000 1.0
C      1  0.5407920000000  0.3368410000000  0.3231680000000 1.0
C      1  0.3443390000000  0.3368740000000  0.4065760000000 1.0
C      1  0.3628930000000  0.3367970000000  0.6191900000000 1.0
C      1  0.5710790000000  0.3366990000000  0.6671510000000 1.0
C      1  0.6808190000000  0.3368400000000  0.4841380000000 1.0
END
