TITL C-1525613-7943-3395 -0.00347748730937226 3375 -9586.23523538582 0 0 60 (D5h) n - 1
REM
REM in /home/nfs/bkarasulu/CARBON/AIRSS/Generating-Clusters/ReaxFF-fromJPCA2015/Units_Real/Try2-Higher-symm/Only-C60
REM
REM
REM
REM
REM
REM ./C.cell (863b2abdce7293c0672fb3ba77bf323a)
REM AIRSS Version 0.9.1 bugfix July 2018 build 013d7b7c2542+ Fri, 06 Jul 2018 19:26:36 +0100
REM compiler GCC version 9.2.1 20190827 (Red Hat 9.2.1-1)
REM options -cpp -mtune=generic -march=x86-64 -g -O0 -fpre-include=/usr/include/finclude/math-vector-fortran.h
REM seed -1916320941 400779356 1842541681 -234882078 417803078 1013464016 93223209 -516043309 188860608 390626134 -281394431 -1396735340 519688554 -1177128502 1902422397 -1965110980 -142634881 1335346032 -1101345081 -727624329 -1425473343 1507487594 -170194258 1707610820 1234110424 -490460412 1578576776 -1541394417 1915020191 439526383 -437236634 837985933 -1092877367
REM
CELL 1.54180   15.00000   15.00000   15.00000   90.00000   90.00000   90.00000
LATT -1
SFAC C  
C      1  0.5358300000000  0.4013890000000  0.3203810000000 1.0
C      1  0.6827910000000  0.4009110000000  0.4805250000000 1.0
C      1  0.5762600000000  0.4016100000000  0.6655270000000 1.0
C      1  0.3616750000000  0.3993490000000  0.6263610000000 1.0
C      1  0.3418630000000  0.4020170000000  0.4094030000000 1.0
C      1  0.5379020000000  0.5991170000000  0.3202270000000 1.0
C      1  0.6815360000000  0.5985550000000  0.4782680000000 1.0
C      1  0.5744800000000  0.5989710000000  0.6671420000000 1.0
C      1  0.3657470000000  0.5987940000000  0.6230920000000 1.0
C      1  0.3410150000000  0.5980800000000  0.4112620000000 1.0
C      1  0.5059900000000  0.5483040000000  0.7054980000000 1.0
C      1  0.3047060000000  0.5499070000000  0.5701090000000 1.0
C      1  0.3710110000000  0.5472900000000  0.3359430000000 1.0
C      1  0.6168940000000  0.5485790000000  0.3288480000000 1.0
C      1  0.7008150000000  0.5473530000000  0.5568080000000 1.0
C      1  0.5080020000000  0.4530320000000  0.7079540000000 1.0
C      1  0.3006710000000  0.4520650000000  0.5716930000000 1.0
C      1  0.3737560000000  0.4517230000000  0.3366820000000 1.0
C      1  0.6163200000000  0.4527240000000  0.3264920000000 1.0
C      1  0.6989890000000  0.4514850000000  0.5582720000000 1.0
C      1  0.4597090000000  0.5479750000000  0.2936490000000 1.0
C      1  0.6812800000000  0.5495600000000  0.3978930000000 1.0
C      1  0.6534540000000  0.5480560000000  0.6429790000000 1.0
C      1  0.4129810000000  0.5497440000000  0.6883940000000 1.0
C      1  0.2960370000000  0.5483530000000  0.4759540000000 1.0
C      1  0.4588980000000  0.4503540000000  0.2958580000000 1.0
C      1  0.6837290000000  0.4520760000000  0.3980960000000 1.0
C      1  0.6528340000000  0.4505480000000  0.6406740000000 1.0
C      1  0.4110620000000  0.4518910000000  0.6917350000000 1.0
C      1  0.2929170000000  0.4531920000000  0.4737590000000 1.0
C      1  0.6169540000000  0.7296260000000  0.5664780000000 1.0
C      1  0.4727590000000  0.7304410000000  0.6321590000000 1.0
C      1  0.3662610000000  0.7299800000000  0.5151980000000 1.0
C      1  0.4443000000000  0.7295900000000  0.3775220000000 1.0
C      1  0.5995920000000  0.7301700000000  0.4091730000000 1.0
C      1  0.6171390000000  0.2698230000000  0.5666250000000 1.0
C      1  0.4730930000000  0.2693900000000  0.6321800000000 1.0
C      1  0.3657830000000  0.2694240000000  0.5146690000000 1.0
C      1  0.4445010000000  0.2703140000000  0.3774210000000 1.0
C      1  0.5997630000000  0.2703900000000  0.4090650000000 1.0
C      1  0.5296760000000  0.6867490000000  0.3563980000000 1.0
C      1  0.6453320000000  0.6861610000000  0.4835690000000 1.0
C      1  0.5601580000000  0.6868480000000  0.6335710000000 1.0
C      1  0.3919980000000  0.6864900000000  0.5989050000000 1.0
C      1  0.3728600000000  0.6861360000000  0.4281950000000 1.0
C      1  0.5295640000000  0.3139050000000  0.3565930000000 1.0
C      1  0.6459600000000  0.3132320000000  0.4838760000000 1.0
C      1  0.5604130000000  0.3138040000000  0.6330470000000 1.0
C      1  0.3906640000000  0.3114470000000  0.5997480000000 1.0
C      1  0.3729660000000  0.3139530000000  0.4277380000000 1.0
C      1  0.4834820000000  0.1877760000000  0.5811810000000 1.0
C      1  0.4175320000000  0.1878200000000  0.5088580000000 1.0
C      1  0.4659560000000  0.1882790000000  0.4239300000000 1.0
C      1  0.5617340000000  0.1884910000000  0.4435960000000 1.0
C      1  0.5725100000000  0.1880140000000  0.5407870000000 1.0
C      1  0.4832880000000  0.8120270000000  0.5814260000000 1.0
C      1  0.4173660000000  0.8118160000000  0.5092680000000 1.0
C      1  0.4655740000000  0.8115150000000  0.4242590000000 1.0
C      1  0.5613370000000  0.8118330000000  0.4439840000000 1.0
C      1  0.5723340000000  0.8115550000000  0.5411030000000 1.0
END
