TITL C-1525613-7943-1937 -0.197708952403121 3375 -8788.70246269505 0 0 60 (C2) n - 1
REM
REM in /home/nfs/bkarasulu/CARBON/AIRSS/Generating-Clusters/ReaxFF-fromJPCA2015/Units_Real/Try2-Higher-symm/Only-C60
REM
REM
REM
REM
REM
REM ./C.cell (863b2abdce7293c0672fb3ba77bf323a)
REM AIRSS Version 0.9.1 bugfix July 2018 build 013d7b7c2542+ Fri, 06 Jul 2018 19:26:36 +0100
REM compiler GCC version 9.2.1 20190827 (Red Hat 9.2.1-1)
REM options -cpp -mtune=generic -march=x86-64 -g -O0 -fpre-include=/usr/include/finclude/math-vector-fortran.h
REM seed 756387880 1880714777 -1953475934 -338842412 1015597127 -1873872522 -920649386 -284583761 -1639742855 -452076790 1410822109 -738191107 666505310 -28192956 182592869 700291939 468808506 -1904148756 -299435671 2055804684 -444889595 1272918030 -592610537 -1682982283 873397373 517867928 253025245 297814686 1690658492 1495311273 1857515833 1612483779 784426252
REM
CELL 1.54180   15.00000   15.00000   15.00000   90.00000   90.00000   90.00000
LATT -1
SFAC C  
C      1  0.4678130000000  0.7370170000000  0.6185250000000 1.0
C      1  0.4658210000000  0.4676550000000  0.7617080000000 1.0
C      1  0.4689800000000  0.2385040000000  0.5462440000000 1.0
C      1  0.4665360000000  0.3756240000000  0.2688620000000 1.0
C      1  0.4652620000000  0.6835360000000  0.3093830000000 1.0
C      1  0.5321870000000  0.2629830000000  0.6185250000000 1.0
C      1  0.5341790000000  0.5323450000000  0.7617080000000 1.0
C      1  0.5310200000000  0.7614960000000  0.5462440000000 1.0
C      1  0.5334640000000  0.6243760000000  0.2688620000000 1.0
C      1  0.5347380000000  0.3164640000000  0.3093830000000 1.0
C      1  0.5315390000000  0.7728120000000  0.4502360000000 1.0
C      1  0.5357520000000  0.6219570000000  0.7392630000000 1.0
C      1  0.5290690000000  0.3166470000000  0.6985270000000 1.0
C      1  0.5341130000000  0.2512770000000  0.3805390000000 1.0
C      1  0.5328080000000  0.5371610000000  0.2278480000000 1.0
C      1  0.4684610000000  0.2271880000000  0.4502360000000 1.0
C      1  0.4642480000000  0.3780430000000  0.7392630000000 1.0
C      1  0.4709310000000  0.6833530000000  0.6985270000000 1.0
C      1  0.4658870000000  0.7487230000000  0.3805390000000 1.0
C      1  0.4671920000000  0.4628390000000  0.2278480000000 1.0
C      1  0.5720390000000  0.4229340000000  0.4659490000000 1.0
C      1  0.5731880000000  0.5068160000000  0.4162620000000 1.0
C      1  0.5719230000000  0.5807310000000  0.4800810000000 1.0
C      1  0.5710910000000  0.5426570000000  0.5699250000000 1.0
C      1  0.5714870000000  0.4458300000000  0.5602180000000 1.0
C      1  0.4279610000000  0.5770660000000  0.4659490000000 1.0
C      1  0.4268120000000  0.4931840000000  0.4162620000000 1.0
C      1  0.4280770000000  0.4192690000000  0.4800810000000 1.0
C      1  0.4289090000000  0.4573430000000  0.5699250000000 1.0
C      1  0.4285130000000  0.5541700000000  0.5602180000000 1.0
C      1  0.6134720000000  0.5663320000000  0.2775000000000 1.0
C      1  0.6108040000000  0.7328190000000  0.4944480000000 1.0
C      1  0.6117970000000  0.5679060000000  0.7194280000000 1.0
C      1  0.6106350000000  0.3184660000000  0.6427240000000 1.0
C      1  0.6142510000000  0.3087180000000  0.3681960000000 1.0
C      1  0.3865280000000  0.4336680000000  0.2775000000000 1.0
C      1  0.3891960000000  0.2671810000000  0.4944480000000 1.0
C      1  0.3882030000000  0.4320940000000  0.7194280000000 1.0
C      1  0.3893650000000  0.6815340000000  0.6427240000000 1.0
C      1  0.3857490000000  0.6912820000000  0.3681960000000 1.0
C      1  0.6483480000000  0.5179860000000  0.3537860000000 1.0
C      1  0.6454220000000  0.6447790000000  0.4732420000000 1.0
C      1  0.6444950000000  0.5675080000000  0.6291110000000 1.0
C      1  0.6456120000000  0.4008730000000  0.6055570000000 1.0
C      1  0.6475650000000  0.3675980000000  0.4372610000000 1.0
C      1  0.3516520000000  0.4820140000000  0.3537860000000 1.0
C      1  0.3545780000000  0.3552210000000  0.4732420000000 1.0
C      1  0.3555050000000  0.4324920000000  0.6291110000000 1.0
C      1  0.3543880000000  0.5991270000000  0.6055570000000 1.0
C      1  0.3524350000000  0.6324020000000  0.4372610000000 1.0
C      1  0.2766870000000  0.4848730000000  0.4191550000000 1.0
C      1  0.2762020000000  0.5732010000000  0.4618100000000 1.0
C      1  0.2761440000000  0.5594780000000  0.5586190000000 1.0
C      1  0.2776200000000  0.4629710000000  0.5761010000000 1.0
C      1  0.2781920000000  0.4169550000000  0.4894940000000 1.0
C      1  0.7233130000000  0.5151270000000  0.4191550000000 1.0
C      1  0.7237980000000  0.4267990000000  0.4618100000000 1.0
C      1  0.7238560000000  0.4405220000000  0.5586190000000 1.0
C      1  0.7223800000000  0.5370290000000  0.5761010000000 1.0
C      1  0.7218080000000  0.5830450000000  0.4894940000000 1.0
END
