TITL C-1525613-7943-4314 -0.337724900535469 3375 -8654.81025893178 0 0 60 (C2) n - 1
REM
REM in /home/nfs/bkarasulu/CARBON/AIRSS/Generating-Clusters/ReaxFF-fromJPCA2015/Units_Real/Try2-Higher-symm/Only-C60
REM
REM
REM
REM
REM
REM ./C.cell (863b2abdce7293c0672fb3ba77bf323a)
REM AIRSS Version 0.9.1 bugfix July 2018 build 013d7b7c2542+ Fri, 06 Jul 2018 19:26:36 +0100
REM compiler GCC version 9.2.1 20190827 (Red Hat 9.2.1-1)
REM options -cpp -mtune=generic -march=x86-64 -g -O0 -fpre-include=/usr/include/finclude/math-vector-fortran.h
REM seed -2103369534 -1385237464 623570936 761801847 -2143454516 -1841645814 1884683409 276252839 113095907 1641300107 716773490 775258290 -257313514 -1548371319 -326075678 1208054245 -263331146 1248717719 -971776624 -1367907762 1667466472 216098012 177249697 -226341346 -1952807377 453179403 1191928696 -523938157 1366173605 2061432163 499614786 -605500677 -875223146
REM
CELL 1.54180   15.00000   15.00000   15.00000   90.00000   90.00000   90.00000
LATT -1
SFAC C  
C      1  0.4512120000000  0.4328970000000  0.4460400000000 1.0
C      1  0.5500830000000  0.4335340000000  0.4464370000000 1.0
C      1  0.5801120000000  0.5271040000000  0.4483480000000 1.0
C      1  0.4995640000000  0.5825980000000  0.4475970000000 1.0
C      1  0.4197530000000  0.5261930000000  0.4483550000000 1.0
C      1  0.5487880000000  0.4328970000000  0.5539600000000 1.0
C      1  0.4499170000000  0.4335340000000  0.5535630000000 1.0
C      1  0.4198880000000  0.5271040000000  0.5516520000000 1.0
C      1  0.5004360000000  0.5825980000000  0.5524030000000 1.0
C      1  0.5802470000000  0.5261930000000  0.5516450000000 1.0
C      1  0.5782480000000  0.6234360000000  0.3258690000000 1.0
C      1  0.4070590000000  0.6120960000000  0.3262600000000 1.0
C      1  0.3644300000000  0.4457680000000  0.3256640000000 1.0
C      1  0.5093540000000  0.3540970000000  0.3252320000000 1.0
C      1  0.6412140000000  0.4637290000000  0.3255490000000 1.0
C      1  0.4217520000000  0.6234360000000  0.6741310000000 1.0
C      1  0.5929410000000  0.6120960000000  0.6737400000000 1.0
C      1  0.6355700000000  0.4457680000000  0.6743360000000 1.0
C      1  0.4906460000000  0.3540970000000  0.6747680000000 1.0
C      1  0.3587860000000  0.4637290000000  0.6744510000000 1.0
C      1  0.4309650000000  0.3886150000000  0.3204630000000 1.0
C      1  0.5843480000000  0.3996980000000  0.3210100000000 1.0
C      1  0.6210400000000  0.5490980000000  0.3219960000000 1.0
C      1  0.4908060000000  0.6303510000000  0.3220730000000 1.0
C      1  0.3734920000000  0.5311010000000  0.3219890000000 1.0
C      1  0.5690350000000  0.3886150000000  0.6795370000000 1.0
C      1  0.4156520000000  0.3996980000000  0.6789900000000 1.0
C      1  0.3789600000000  0.5490980000000  0.6780040000000 1.0
C      1  0.5091940000000  0.6303510000000  0.6779270000000 1.0
C      1  0.6265080000000  0.5311010000000  0.6780110000000 1.0
C      1  0.2777350000000  0.5191510000000  0.4513370000000 1.0
C      1  0.4128010000000  0.2942280000000  0.4511520000000 1.0
C      1  0.6688110000000  0.3529390000000  0.4511280000000 1.0
C      1  0.6916010000000  0.6151630000000  0.4511470000000 1.0
C      1  0.4496440000000  0.7186640000000  0.4512890000000 1.0
C      1  0.7222650000000  0.5191510000000  0.5486630000000 1.0
C      1  0.5871990000000  0.2942280000000  0.5488480000000 1.0
C      1  0.3311890000000  0.3529390000000  0.5488720000000 1.0
C      1  0.3083990000000  0.6151630000000  0.5488530000000 1.0
C      1  0.5503560000000  0.7186640000000  0.5487110000000 1.0
C      1  0.3814050000000  0.6629400000000  0.4021240000000 1.0
C      1  0.3085660000000  0.4371370000000  0.4019330000000 1.0
C      1  0.5002680000000  0.2986240000000  0.4015350000000 1.0
C      1  0.6913880000000  0.4377370000000  0.4016350000000 1.0
C      1  0.6182650000000  0.6632750000000  0.4020260000000 1.0
C      1  0.6185950000000  0.6629400000000  0.5978760000000 1.0
C      1  0.6914340000000  0.4371370000000  0.5980670000000 1.0
C      1  0.4997320000000  0.2986240000000  0.5984650000000 1.0
C      1  0.3086120000000  0.4377370000000  0.5983650000000 1.0
C      1  0.3817350000000  0.6632750000000  0.5979740000000 1.0
C      1  0.5514190000000  0.7190630000000  0.4524420000000 1.0
C      1  0.3083720000000  0.6161000000000  0.4524670000000 1.0
C      1  0.3298200000000  0.3530860000000  0.4524530000000 1.0
C      1  0.5866930000000  0.2931000000000  0.4523520000000 1.0
C      1  0.7231800000000  0.5184800000000  0.4523630000000 1.0
C      1  0.4485810000000  0.7190630000000  0.5475580000000 1.0
C      1  0.6916280000000  0.6161000000000  0.5475330000000 1.0
C      1  0.6701800000000  0.3530860000000  0.5475470000000 1.0
C      1  0.4133070000000  0.2931000000000  0.5476480000000 1.0
C      1  0.2768200000000  0.5184800000000  0.5476370000000 1.0
END
