TITL C-1525613-7943-7606 0.0363860468272622 3375 -8667.93992385212 0 0 60 (Cs) n - 1
REM
REM in /home/nfs/bkarasulu/CARBON/AIRSS/Generating-Clusters/ReaxFF-fromJPCA2015/Units_Real/Try2-Higher-symm/Only-C60
REM
REM
REM
REM
REM
REM ./C.cell (863b2abdce7293c0672fb3ba77bf323a)
REM AIRSS Version 0.9.1 bugfix July 2018 build 013d7b7c2542+ Fri, 06 Jul 2018 19:26:36 +0100
REM compiler GCC version 9.2.1 20190827 (Red Hat 9.2.1-1)
REM options -cpp -mtune=generic -march=x86-64 -g -O0 -fpre-include=/usr/include/finclude/math-vector-fortran.h
REM seed -641048543 1809076439 -63649434 -648907274 1069961809 69044997 424246178 1186565390 719880232 254723462 1841670311 832784214 1900050794 309271884 616102582 -921283448 466616610 1796752892 -1455790444 2107294845 -373711267 -1493391261 -46469235 -1583204167 449558043 1285444779 1873309450 800052108 1352140524 -703765002 2077147478 2038090505 490668590
REM
CELL 1.54180   15.00000   15.00000   15.00000   90.00000   90.00000   90.00000
LATT -1
SFAC C  
C      1  0.5494090000000  0.3149850000000  0.7455000000000 1.0
C      1  0.7736030000000  0.3113580000000  0.5345370000000 1.0
C      1  0.6158000000000  0.3195300000000  0.2629200000000 1.0
C      1  0.3048990000000  0.3174220000000  0.3216760000000 1.0
C      1  0.2622510000000  0.2724930000000  0.6200300000000 1.0
C      1  0.4505970000000  0.3149830000000  0.7455070000000 1.0
C      1  0.2263860000000  0.3113650000000  0.5345170000000 1.0
C      1  0.3842210000000  0.3194880000000  0.2629320000000 1.0
C      1  0.6951210000000  0.3174440000000  0.3216950000000 1.0
C      1  0.7377230000000  0.2724630000000  0.6200260000000 1.0
C      1  0.5868970000000  0.4617890000000  0.6661760000000 1.0
C      1  0.6771410000000  0.4672410000000  0.5055980000000 1.0
C      1  0.5512560000000  0.4625090000000  0.3496940000000 1.0
C      1  0.3639990000000  0.4654130000000  0.4065840000000 1.0
C      1  0.3681390000000  0.5007090000000  0.5890460000000 1.0
C      1  0.4131030000000  0.4617980000000  0.6661740000000 1.0
C      1  0.3228280000000  0.4672180000000  0.5056100000000 1.0
C      1  0.4487840000000  0.4625230000000  0.3496900000000 1.0
C      1  0.6360220000000  0.4654420000000  0.4066270000000 1.0
C      1  0.6318770000000  0.5006990000000  0.5890490000000 1.0
C      1  0.5655170000000  0.3630440000000  0.3420300000000 1.0
C      1  0.3555100000000  0.3662620000000  0.3999190000000 1.0
C      1  0.3504840000000  0.3225670000000  0.6031930000000 1.0
C      1  0.5971710000000  0.3667120000000  0.6736780000000 1.0
C      1  0.6835100000000  0.3593640000000  0.5187580000000 1.0
C      1  0.4344970000000  0.3630200000000  0.3420160000000 1.0
C      1  0.6445560000000  0.3662710000000  0.3998710000000 1.0
C      1  0.6495180000000  0.3225560000000  0.6031700000000 1.0
C      1  0.4028230000000  0.3667240000000  0.6736990000000 1.0
C      1  0.3164950000000  0.3593660000000  0.5187720000000 1.0
C      1  0.5484650000000  0.6310040000000  0.2721630000000 1.0
C      1  0.2960240000000  0.6321990000000  0.3831540000000 1.0
C      1  0.3230810000000  0.6368690000000  0.6559740000000 1.0
C      1  0.5924770000000  0.6231960000000  0.7053340000000 1.0
C      1  0.7350120000000  0.6285500000000  0.4756270000000 1.0
C      1  0.4515340000000  0.6309960000000  0.2721740000000 1.0
C      1  0.7039530000000  0.6321650000000  0.3831620000000 1.0
C      1  0.6769090000000  0.6368630000000  0.6559590000000 1.0
C      1  0.4075200000000  0.6231980000000  0.7053360000000 1.0
C      1  0.2649830000000  0.6285710000000  0.4756300000000 1.0
C      1  0.5486340000000  0.6917220000000  0.6487680000000 1.0
C      1  0.6594890000000  0.6901460000000  0.5017690000000 1.0
C      1  0.5498000000000  0.6917130000000  0.3500530000000 1.0
C      1  0.3698680000000  0.6931360000000  0.4071120000000 1.0
C      1  0.3681980000000  0.7006980000000  0.5946140000000 1.0
C      1  0.4513590000000  0.6917250000000  0.6487700000000 1.0
C      1  0.3405030000000  0.6901640000000  0.5017730000000 1.0
C      1  0.4501970000000  0.6917100000000  0.3500490000000 1.0
C      1  0.6301280000000  0.6931280000000  0.4071070000000 1.0
C      1  0.6317990000000  0.7007040000000  0.5946130000000 1.0
C      1  0.2540370000000  0.5429770000000  0.5222080000000 1.0
C      1  0.4518780000000  0.5359810000000  0.7189650000000 1.0
C      1  0.7097500000000  0.5560680000000  0.6106330000000 1.0
C      1  0.6840090000000  0.5381710000000  0.3372940000000 1.0
C      1  0.4026690000000  0.5361940000000  0.2769780000000 1.0
C      1  0.7459560000000  0.5429620000000  0.5221900000000 1.0
C      1  0.5481210000000  0.5359810000000  0.7189580000000 1.0
C      1  0.2902380000000  0.5560630000000  0.6106520000000 1.0
C      1  0.3159740000000  0.5381860000000  0.3372970000000 1.0
C      1  0.5973030000000  0.5362000000000  0.2769930000000 1.0
END
