TITL C-1525613-7943-2241 0.113411600295351 3375 -8697.8489942069 0 0 60 (C1) n - 1
REM
REM in /home/nfs/bkarasulu/CARBON/AIRSS/Generating-Clusters/ReaxFF-fromJPCA2015/Units_Real/Try2-Higher-symm/Only-C60
REM
REM
REM
REM
REM
REM ./C.cell (863b2abdce7293c0672fb3ba77bf323a)
REM AIRSS Version 0.9.1 bugfix July 2018 build 013d7b7c2542+ Fri, 06 Jul 2018 19:26:36 +0100
REM compiler GCC version 9.2.1 20190827 (Red Hat 9.2.1-1)
REM options -cpp -mtune=generic -march=x86-64 -g -O0 -fpre-include=/usr/include/finclude/math-vector-fortran.h
REM seed -655750917 -204763371 2146829898 2023946217 1663876978 -559794010 876755126 -1767642291 -1428470988 -351125640 1896444738 -94872726 -814257264 647696154 359323163 -1482300134 -1524414756 -969224746 1127341932 -925003536 -282467960 788570165 740800201 1313038776 -524267203 963215721 -1672976448 1276260056 1735792388 1164941039 -1515554665 1069928837 1625910941
REM
CELL 1.54180   15.00000   15.00000   15.00000   90.00000   90.00000   90.00000
LATT -1
SFAC C  
C      1  0.2952480000000  0.5977270000000  0.5022070000000 1.0
C      1  0.4372140000000  0.5950950000000  0.6944950000000 1.0
C      1  0.6673910000000  0.5963320000000  0.6200100000000 1.0
C      1  0.6651650000000  0.5973360000000  0.3799930000000 1.0
C      1  0.4372940000000  0.5942950000000  0.3064070000000 1.0
C      1  0.2948110000000  0.4032500000000  0.4996590000000 1.0
C      1  0.4382580000000  0.4032080000000  0.3056360000000 1.0
C      1  0.6675050000000  0.4042070000000  0.3803360000000 1.0
C      1  0.6647540000000  0.4031390000000  0.6192640000000 1.0
C      1  0.4371370000000  0.4045020000000  0.6941730000000 1.0
C      1  0.4488550000000  0.3131400000000  0.6493370000000 1.0
C      1  0.6282750000000  0.3095150000000  0.5979360000000 1.0
C      1  0.6323330000000  0.3129470000000  0.4094560000000 1.0
C      1  0.4536110000000  0.3129700000000  0.3515790000000 1.0
C      1  0.3380480000000  0.3098480000000  0.4966510000000 1.0
C      1  0.4493210000000  0.6860380000000  0.3508770000000 1.0
C      1  0.6282570000000  0.6905730000000  0.4021710000000 1.0
C      1  0.6320370000000  0.6873750000000  0.5907620000000 1.0
C      1  0.4528970000000  0.6859540000000  0.6493340000000 1.0
C      1  0.3384370000000  0.6905610000000  0.5035580000000 1.0
C      1  0.5237720000000  0.4539380000000  0.4162940000000 1.0
C      1  0.4306590000000  0.4470390000000  0.4472770000000 1.0
C      1  0.4299650000000  0.4531370000000  0.5458650000000 1.0
C      1  0.5234790000000  0.4456980000000  0.5758300000000 1.0
C      1  0.5812540000000  0.4487190000000  0.4955430000000 1.0
C      1  0.5220470000000  0.5463020000000  0.5830380000000 1.0
C      1  0.4320130000000  0.5541870000000  0.5455710000000 1.0
C      1  0.4328950000000  0.5494110000000  0.4479270000000 1.0
C      1  0.5284340000000  0.5546100000000  0.4245880000000 1.0
C      1  0.5823050000000  0.5488680000000  0.5067720000000 1.0
C      1  0.5184640000000  0.5478210000000  0.7221420000000 1.0
C      1  0.7184040000000  0.5485940000000  0.5518240000000 1.0
C      1  0.6164110000000  0.5488680000000  0.3101220000000 1.0
C      1  0.3562210000000  0.5470350000000  0.3333860000000 1.0
C      1  0.2929140000000  0.5494270000000  0.5871800000000 1.0
C      1  0.5186530000000  0.4516300000000  0.2772700000000 1.0
C      1  0.7191630000000  0.4527210000000  0.4476530000000 1.0
C      1  0.6167840000000  0.4514140000000  0.6893570000000 1.0
C      1  0.3557620000000  0.4521170000000  0.6689570000000 1.0
C      1  0.2914360000000  0.4514060000000  0.4150570000000 1.0
C      1  0.7162440000000  0.4519820000000  0.5515830000000 1.0
C      1  0.6166420000000  0.4523840000000  0.3119510000000 1.0
C      1  0.3552170000000  0.4494080000000  0.3315620000000 1.0
C      1  0.2955000000000  0.4527600000000  0.5844440000000 1.0
C      1  0.5182820000000  0.4512650000000  0.7219130000000 1.0
C      1  0.7168940000000  0.5494000000000  0.4478440000000 1.0
C      1  0.6166870000000  0.5478980000000  0.6882470000000 1.0
C      1  0.3547810000000  0.5485480000000  0.6705160000000 1.0
C      1  0.2959370000000  0.5477610000000  0.4177410000000 1.0
C      1  0.5184130000000  0.5483110000000  0.2771250000000 1.0
C      1  0.3855180000000  0.2807770000000  0.4146470000000 1.0
C      1  0.3909920000000  0.3048770000000  0.5737610000000 1.0
C      1  0.5416790000000  0.2833440000000  0.6378750000000 1.0
C      1  0.6338740000000  0.3037770000000  0.5037780000000 1.0
C      1  0.5468390000000  0.2873140000000  0.3671920000000 1.0
C      1  0.3857580000000  0.7191660000000  0.5860090000000 1.0
C      1  0.3912680000000  0.6955040000000  0.4260620000000 1.0
C      1  0.5417200000000  0.7173250000000  0.3623640000000 1.0
C      1  0.6336390000000  0.6966190000000  0.4963130000000 1.0
C      1  0.5462350000000  0.7106240000000  0.6335750000000 1.0
END
