TITL C-1525613-7943-6682 0.237853201293476 3375 -7750.43446119237 0 0 60 (C5) n - 1
REM
REM in /home/nfs/bkarasulu/CARBON/AIRSS/Generating-Clusters/ReaxFF-fromJPCA2015/Units_Real/Try2-Higher-symm/Only-C60
REM
REM
REM
REM
REM
REM ./C.cell (863b2abdce7293c0672fb3ba77bf323a)
REM AIRSS Version 0.9.1 bugfix July 2018 build 013d7b7c2542+ Fri, 06 Jul 2018 19:26:36 +0100
REM compiler GCC version 9.2.1 20190827 (Red Hat 9.2.1-1)
REM options -cpp -mtune=generic -march=x86-64 -g -O0 -fpre-include=/usr/include/finclude/math-vector-fortran.h
REM seed -1328280397 646179994 31465512 -296645745 -692328818 -94154206 1542217889 -1944666123 1127520199 -549732297 665613 340400099 -1796725185 1400162817 1863560063 -845289598 -912816326 460197165 953384629 -983830952 1336799356 1020148235 19700412 -1783461693 -1836936280 1176967674 -417845162 548192586 87715632 -18449528 -1888254370 -147708071 -558893991
REM
CELL 1.54180   15.00000   15.00000   15.00000   90.00000   90.00000   90.00000
LATT -1
SFAC C  
C      1  0.4985500000000  0.2939560000000  0.6741150000000 1.0
C      1  0.3037710000000  0.4377240000000  0.6746760000000 1.0
C      1  0.3801000000000  0.6667040000000  0.6751480000000 1.0
C      1  0.6214330000000  0.6655540000000  0.6750910000000 1.0
C      1  0.6955410000000  0.4351660000000  0.6743810000000 1.0
C      1  0.4985500000000  0.2939250000000  0.3258820000000 1.0
C      1  0.3037290000000  0.4376740000000  0.3254790000000 1.0
C      1  0.3801140000000  0.6667020000000  0.3248160000000 1.0
C      1  0.6214250000000  0.6655490000000  0.3249190000000 1.0
C      1  0.6954870000000  0.4351610000000  0.3255210000000 1.0
C      1  0.2859220000000  0.5981420000000  0.5483690000000 1.0
C      1  0.5269310000000  0.7339920000000  0.5484470000000 1.0
C      1  0.7310730000000  0.5467930000000  0.5483370000000 1.0
C      1  0.6159140000000  0.2947590000000  0.5483450000000 1.0
C      1  0.3404660000000  0.3268140000000  0.5481740000000 1.0
C      1  0.2859290000000  0.5981230000000  0.4516690000000 1.0
C      1  0.5269240000000  0.7340240000000  0.4515360000000 1.0
C      1  0.7310000000000  0.5467970000000  0.4516920000000 1.0
C      1  0.6158580000000  0.2947770000000  0.4516700000000 1.0
C      1  0.3403900000000  0.3267510000000  0.4517420000000 1.0
C      1  0.5874980000000  0.3867190000000  0.5846420000000 1.0
C      1  0.4187900000000  0.3819990000000  0.5844140000000 1.0
C      1  0.3628330000000  0.5403330000000  0.5846020000000 1.0
C      1  0.4960640000000  0.6429870000000  0.5846820000000 1.0
C      1  0.6349240000000  0.5481180000000  0.5846560000000 1.0
C      1  0.5875610000000  0.3867560000000  0.4153690000000 1.0
C      1  0.4191470000000  0.3819770000000  0.4155110000000 1.0
C      1  0.3628090000000  0.5404890000000  0.4153300000000 1.0
C      1  0.4960640000000  0.6429700000000  0.4153410000000 1.0
C      1  0.6350720000000  0.5479690000000  0.4154330000000 1.0
C      1  0.5843400000000  0.6166860000000  0.5455050000000 1.0
C      1  0.6370970000000  0.4561010000000  0.5453750000000 1.0
C      1  0.5004210000000  0.3557910000000  0.5454580000000 1.0
C      1  0.3629860000000  0.4553500000000  0.5452950000000 1.0
C      1  0.4152340000000  0.6164280000000  0.5455210000000 1.0
C      1  0.5843270000000  0.6166980000000  0.4544920000000 1.0
C      1  0.6370690000000  0.4561250000000  0.4545420000000 1.0
C      1  0.5003850000000  0.3557780000000  0.4545320000000 1.0
C      1  0.3629480000000  0.4553280000000  0.4547470000000 1.0
C      1  0.4152450000000  0.6164160000000  0.4545200000000 1.0
C      1  0.4168740000000  0.5082390000000  0.3249760000000 1.0
C      1  0.4822470000000  0.5814770000000  0.3247330000000 1.0
C      1  0.5720100000000  0.5420050000000  0.3248870000000 1.0
C      1  0.5622890000000  0.4443550000000  0.3252470000000 1.0
C      1  0.4663450000000  0.4234680000000  0.3253140000000 1.0
C      1  0.4168870000000  0.5082320000000  0.6750270000000 1.0
C      1  0.4822540000000  0.5814890000000  0.6752610000000 1.0
C      1  0.5720510000000  0.5420280000000  0.6750370000000 1.0
C      1  0.5622750000000  0.4443140000000  0.6747410000000 1.0
C      1  0.4664390000000  0.4235120000000  0.6748190000000 1.0
C      1  0.2859720000000  0.3939140000000  0.5969020000000 1.0
C      1  0.3328770000000  0.6703260000000  0.5976680000000 1.0
C      1  0.6101070000000  0.7118220000000  0.5978200000000 1.0
C      1  0.7359390000000  0.4609000000000  0.5974910000000 1.0
C      1  0.5353230000000  0.2634090000000  0.5970140000000 1.0
C      1  0.2859340000000  0.3939400000000  0.4030000000000 1.0
C      1  0.3328550000000  0.6703200000000  0.4023160000000 1.0
C      1  0.6101190000000  0.7118130000000  0.4021920000000 1.0
C      1  0.7359360000000  0.4608970000000  0.4025970000000 1.0
C      1  0.5353510000000  0.2634340000000  0.4029820000000 1.0
END
