TITL C-1525613-7943-7703 0.0078584095202226 3375 -8768.02263513872 0 0 60 (C5) n - 1
REM
REM in /home/nfs/bkarasulu/CARBON/AIRSS/Generating-Clusters/ReaxFF-fromJPCA2015/Units_Real/Try2-Higher-symm/Only-C60
REM
REM
REM
REM
REM
REM ./C.cell (863b2abdce7293c0672fb3ba77bf323a)
REM AIRSS Version 0.9.1 bugfix July 2018 build 013d7b7c2542+ Fri, 06 Jul 2018 19:26:36 +0100
REM compiler GCC version 9.2.1 20190827 (Red Hat 9.2.1-1)
REM options -cpp -mtune=generic -march=x86-64 -g -O0 -fpre-include=/usr/include/finclude/math-vector-fortran.h
REM seed -1812133311 -871008181 -1195300140 -481347532 458079973 -1815819738 -363367780 -1749006146 -1680820555 -925662342 844976298 -972943829 -1449157894 -316283240 -991774540 1842081385 -1191986712 -1828285708 1443082965 698040194 1567614760 717464682 -1088974547 1437421950 92518159 -1221086775 -1456129118 706693012 -73525776 2112022679 563301777 -1780170127 -2017038542
REM
CELL 1.54180   15.00000   15.00000   15.00000   90.00000   90.00000   90.00000
LATT -1
SFAC C  
C      1  0.6947260000000  0.4071880000000  0.3713490000000 1.0
C      1  0.6947490000000  0.5936450000000  0.3720090000000 1.0
C      1  0.6947250000000  0.6506290000000  0.5495310000000 1.0
C      1  0.6947030000000  0.4994160000000  0.6586030000000 1.0
C      1  0.6946960000000  0.3489450000000  0.5484800000000 1.0
C      1  0.6947270000000  0.4071850000000  0.6286540000000 1.0
C      1  0.6947460000000  0.5936530000000  0.6279910000000 1.0
C      1  0.6947170000000  0.6506260000000  0.4504600000000 1.0
C      1  0.6946970000000  0.4994160000000  0.3414040000000 1.0
C      1  0.6946950000000  0.3489500000000  0.4515130000000 1.0
C      1  0.5480080000000  0.7223340000000  0.3969020000000 1.0
C      1  0.5480360000000  0.6667650000000  0.6796200000000 1.0
C      1  0.5479850000000  0.3807320000000  0.7141040000000 1.0
C      1  0.5479230000000  0.2595650000000  0.4527160000000 1.0
C      1  0.5479580000000  0.4706750000000  0.2566900000000 1.0
C      1  0.5480150000000  0.7223370000000  0.6031000000000 1.0
C      1  0.5480410000000  0.6667680000000  0.3203760000000 1.0
C      1  0.5479840000000  0.3807340000000  0.2858950000000 1.0
C      1  0.5479280000000  0.2595610000000  0.5472810000000 1.0
C      1  0.5479650000000  0.4706730000000  0.7433150000000 1.0
C      1  0.4564280000000  0.5253220000000  0.2515570000000 1.0
C      1  0.4564780000000  0.7439610000000  0.4473290000000 1.0
C      1  0.4565090000000  0.6254650000000  0.7157520000000 1.0
C      1  0.4564350000000  0.3335970000000  0.6860230000000 1.0
C      1  0.4563750000000  0.2716790000000  0.3991950000000 1.0
C      1  0.4564360000000  0.5253250000000  0.7484420000000 1.0
C      1  0.4564880000000  0.7439590000000  0.5526670000000 1.0
C      1  0.4565150000000  0.6254620000000  0.2842450000000 1.0
C      1  0.4564370000000  0.3335950000000  0.3139850000000 1.0
C      1  0.4563820000000  0.2716730000000  0.6008060000000 1.0
C      1  0.2853990000000  0.5001110000000  0.3439030000000 1.0
C      1  0.2857020000000  0.6484320000000  0.4518350000000 1.0
C      1  0.2860950000000  0.5916770000000  0.6262680000000 1.0
C      1  0.2860250000000  0.4082890000000  0.6261800000000 1.0
C      1  0.2856170000000  0.3517000000000  0.4517030000000 1.0
C      1  0.2854750000000  0.5001090000000  0.6560990000000 1.0
C      1  0.2857930000000  0.6484280000000  0.5481640000000 1.0
C      1  0.2861910000000  0.5916700000000  0.3737430000000 1.0
C      1  0.2861050000000  0.4082960000000  0.3738320000000 1.0
C      1  0.2856770000000  0.3517020000000  0.5483010000000 1.0
C      1  0.6291570000000  0.6167300000000  0.6990600000000 1.0
C      1  0.6291010000000  0.3467530000000  0.6725350000000 1.0
C      1  0.6290610000000  0.2885680000000  0.4075770000000 1.0
C      1  0.6290950000000  0.5225550000000  0.2703630000000 1.0
C      1  0.6291280000000  0.7253510000000  0.4504910000000 1.0
C      1  0.6291570000000  0.6167290000000  0.3009410000000 1.0
C      1  0.6290990000000  0.3467500000000  0.3274590000000 1.0
C      1  0.6290650000000  0.2885620000000  0.5924250000000 1.0
C      1  0.6291010000000  0.5225540000000  0.7296360000000 1.0
C      1  0.6291330000000  0.7253510000000  0.5495060000000 1.0
C      1  0.3860830000000  0.4045890000000  0.3677820000000 1.0
C      1  0.3861780000000  0.5961400000000  0.3683490000000 1.0
C      1  0.3859630000000  0.6550050000000  0.5508440000000 1.0
C      1  0.3857050000000  0.4995070000000  0.6633960000000 1.0
C      1  0.3858440000000  0.3446740000000  0.5499550000000 1.0
C      1  0.3860470000000  0.4045740000000  0.6322360000000 1.0
C      1  0.3861300000000  0.5961640000000  0.6316710000000 1.0
C      1  0.3859060000000  0.6550370000000  0.4491280000000 1.0
C      1  0.3856530000000  0.4995040000000  0.3365760000000 1.0
C      1  0.3858060000000  0.3446520000000  0.4500460000000 1.0
END
