TITL C-1525613-7943-6075 0.0242122605484167 3375 -8978.79935968354 0 0 60 (Ci) n - 1
REM
REM in /home/nfs/bkarasulu/CARBON/AIRSS/Generating-Clusters/ReaxFF-fromJPCA2015/Units_Real/Try2-Higher-symm/Only-C60
REM
REM
REM
REM
REM
REM ./C.cell (863b2abdce7293c0672fb3ba77bf323a)
REM AIRSS Version 0.9.1 bugfix July 2018 build 013d7b7c2542+ Fri, 06 Jul 2018 19:26:36 +0100
REM compiler GCC version 9.2.1 20190827 (Red Hat 9.2.1-1)
REM options -cpp -mtune=generic -march=x86-64 -g -O0 -fpre-include=/usr/include/finclude/math-vector-fortran.h
REM seed 1008273329 380535697 304331917 352981582 154009106 404148546 -2014079558 435410874 -1214453231 -670954144 -1601998252 1816728083 338432700 -814819817 -234951613 1522128612 94548035 585090938 778404457 1353128928 1844023916 407891848 1613090648 1155163992 -170897642 1041184511 -1393301033 923651420 1495936364 -2060168872 -65614654 1535032715 1985032133
REM
CELL 1.54180   15.00000   15.00000   15.00000   90.00000   90.00000   90.00000
LATT -1
SFAC C  
C      1  0.3560800000000  0.6090210000000  0.3432750000000 1.0
C      1  0.6440030000000  0.5082060000000  0.2823180000000 1.0
C      1  0.3630060000000  0.3957200000000  0.3341150000000 1.0
C      1  0.6783540000000  0.2769480000000  0.5026530000000 1.0
C      1  0.3213270000000  0.3102300000000  0.6411370000000 1.0
C      1  0.6441080000000  0.3911550000000  0.6565590000000 1.0
C      1  0.3561860000000  0.4916670000000  0.7178550000000 1.0
C      1  0.6370760000000  0.6043250000000  0.6657670000000 1.0
C      1  0.3217560000000  0.7234410000000  0.4970250000000 1.0
C      1  0.6789680000000  0.6895210000000  0.3592510000000 1.0
C      1  0.3726520000000  0.2581850000000  0.5800050000000 1.0
C      1  0.6224280000000  0.3297040000000  0.7266330000000 1.0
C      1  0.3911930000000  0.4843420000000  0.8083790000000 1.0
C      1  0.6133350000000  0.6552390000000  0.7457060000000 1.0
C      1  0.3750400000000  0.7396350000000  0.5747270000000 1.0
C      1  0.6275080000000  0.7416520000000  0.4202170000000 1.0
C      1  0.3779540000000  0.6704290000000  0.2732190000000 1.0
C      1  0.6091010000000  0.5156270000000  0.1917680000000 1.0
C      1  0.3867740000000  0.3447700000000  0.2542100000000 1.0
C      1  0.6249320000000  0.2603410000000  0.4251500000000 1.0
C      1  0.6136080000000  0.6500100000000  0.5823490000000 1.0
C      1  0.3804990000000  0.6562130000000  0.4370010000000 1.0
C      1  0.6244160000000  0.5991330000000  0.3410770000000 1.0
C      1  0.3859070000000  0.5088940000000  0.3348900000000 1.0
C      1  0.6196100000000  0.4278030000000  0.3335040000000 1.0
C      1  0.3862860000000  0.3500000000000  0.4175740000000 1.0
C      1  0.6195090000000  0.3438720000000  0.5629190000000 1.0
C      1  0.3756900000000  0.4007740000000  0.6590270000000 1.0
C      1  0.6140640000000  0.4912510000000  0.6649760000000 1.0
C      1  0.3804190000000  0.5720760000000  0.6665860000000 1.0
C      1  0.3878150000000  0.4245030000000  0.4802590000000 1.0
C      1  0.6023950000000  0.4261360000000  0.5121580000000 1.0
C      1  0.3857190000000  0.4459140000000  0.5714270000000 1.0
C      1  0.5992390000000  0.4972350000000  0.5683130000000 1.0
C      1  0.3845520000000  0.5392190000000  0.5751380000000 1.0
C      1  0.6114050000000  0.5754410000000  0.5197290000000 1.0
C      1  0.3969710000000  0.5738360000000  0.4878590000000 1.0
C      1  0.6138250000000  0.5540180000000  0.4285920000000 1.0
C      1  0.3999980000000  0.5027520000000  0.4316880000000 1.0
C      1  0.6149760000000  0.4607250000000  0.4249040000000 1.0
C      1  0.5397380000000  0.2926090000000  0.3809250000000 1.0
C      1  0.4620040000000  0.2669480000000  0.5314490000000 1.0
C      1  0.5269140000000  0.3120060000000  0.6829160000000 1.0
C      1  0.4816780000000  0.4466590000000  0.7721980000000 1.0
C      1  0.5211490000000  0.6070390000000  0.7452870000000 1.0
C      1  0.4601700000000  0.7073070000000  0.6190240000000 1.0
C      1  0.5380490000000  0.7330750000000  0.4685920000000 1.0
C      1  0.4733870000000  0.6880710000000  0.3170360000000 1.0
C      1  0.5185840000000  0.5533140000000  0.2278820000000 1.0
C      1  0.4789540000000  0.3929960000000  0.2546980000000 1.0
C      1  0.5527860000000  0.3604720000000  0.3119230000000 1.0
C      1  0.4599040000000  0.2884680000000  0.4353990000000 1.0
C      1  0.5328960000000  0.2934110000000  0.5885030000000 1.0
C      1  0.4596570000000  0.3739460000000  0.7115050000000 1.0
C      1  0.5435710000000  0.5122680000000  0.7349760000000 1.0
C      1  0.4472730000000  0.6394080000000  0.6880160000000 1.0
C      1  0.5400560000000  0.7116550000000  0.5646520000000 1.0
C      1  0.4672610000000  0.7064680000000  0.4114890000000 1.0
C      1  0.5406480000000  0.6261410000000  0.2884160000000 1.0
C      1  0.4566420000000  0.4877770000000  0.2651770000000 1.0
END
