TITL C-1525613-7943-4037 -0.0534426402995274 3375 -8820.83260984374 0 0 60 (Cs) n - 1
REM
REM in /home/nfs/bkarasulu/CARBON/AIRSS/Generating-Clusters/ReaxFF-fromJPCA2015/Units_Real/Try2-Higher-symm/Only-C60
REM
REM
REM
REM
REM
REM ./C.cell (863b2abdce7293c0672fb3ba77bf323a)
REM AIRSS Version 0.9.1 bugfix July 2018 build 013d7b7c2542+ Fri, 06 Jul 2018 19:26:36 +0100
REM compiler GCC version 9.2.1 20190827 (Red Hat 9.2.1-1)
REM options -cpp -mtune=generic -march=x86-64 -g -O0 -fpre-include=/usr/include/finclude/math-vector-fortran.h
REM seed 618373112 851281862 505171019 -1775775898 990770427 146181944 928121433 -565085629 413364736 -1749131783 542952076 618952677 1633490774 -1597657177 -2131854090 -1955932982 1959765622 1754980086 657470012 -4448317 1635595490 562274923 1374543837 -427474796 -1701858035 1371626028 162710508 -1240359878 41852819 124294589 2048662766 693980586 1270924644
REM
CELL 1.54180   15.00000   15.00000   15.00000   90.00000   90.00000   90.00000
LATT -1
SFAC C  
C      1  0.6183900000000  0.4896690000000  0.7195530000000 1.0
C      1  0.5274280000000  0.3874540000000  0.7170530000000 1.0
C      1  0.4013150000000  0.4384930000000  0.7124180000000 1.0
C      1  0.4114530000000  0.5751170000000  0.7120460000000 1.0
C      1  0.5454160000000  0.6052290000000  0.7149340000000 1.0
C      1  0.6183820000000  0.4896810000000  0.2804830000000 1.0
C      1  0.5274450000000  0.3874430000000  0.2829130000000 1.0
C      1  0.4013490000000  0.4384720000000  0.2875650000000 1.0
C      1  0.4114220000000  0.5750900000000  0.2880460000000 1.0
C      1  0.5454030000000  0.6052140000000  0.2850740000000 1.0
C      1  0.5131260000000  0.4229320000000  0.4501880000000 1.0
C      1  0.4306360000000  0.4740830000000  0.4508860000000 1.0
C      1  0.4533350000000  0.5719880000000  0.4492000000000 1.0
C      1  0.5529830000000  0.5726080000000  0.4484100000000 1.0
C      1  0.5854300000000  0.4831950000000  0.4227300000000 1.0
C      1  0.5131710000000  0.4230000000000  0.5496180000000 1.0
C      1  0.4305850000000  0.4740820000000  0.5488940000000 1.0
C      1  0.4532190000000  0.5720570000000  0.5506490000000 1.0
C      1  0.5529160000000  0.5726100000000  0.5516610000000 1.0
C      1  0.5853630000000  0.4832110000000  0.5773980000000 1.0
C      1  0.3483170000000  0.3416280000000  0.5490480000000 1.0
C      1  0.2997060000000  0.5901390000000  0.5484190000000 1.0
C      1  0.5261320000000  0.7219240000000  0.5491980000000 1.0
C      1  0.7167250000000  0.5477970000000  0.5485360000000 1.0
C      1  0.6016870000000  0.3024780000000  0.5496110000000 1.0
C      1  0.3482250000000  0.3415440000000  0.4511170000000 1.0
C      1  0.2997960000000  0.5901210000000  0.4516930000000 1.0
C      1  0.5261340000000  0.7218960000000  0.4507870000000 1.0
C      1  0.7168030000000  0.5478410000000  0.4514610000000 1.0
C      1  0.6016710000000  0.3025750000000  0.4504310000000 1.0
C      1  0.3440620000000  0.5108160000000  0.6904820000000 1.0
C      1  0.4646370000000  0.6526470000000  0.6950540000000 1.0
C      1  0.6355160000000  0.5811980000000  0.6962700000000 1.0
C      1  0.6201850000000  0.3953640000000  0.6984150000000 1.0
C      1  0.4415970000000  0.3545910000000  0.6913780000000 1.0
C      1  0.3440420000000  0.5107630000000  0.3095740000000 1.0
C      1  0.4645880000000  0.6526290000000  0.3049780000000 1.0
C      1  0.6355040000000  0.5811930000000  0.3037250000000 1.0
C      1  0.6202090000000  0.3953860000000  0.3015320000000 1.0
C      1  0.4415760000000  0.3545570000000  0.3085110000000 1.0
C      1  0.4263500000000  0.3123420000000  0.4020490000000 1.0
C      1  0.2940830000000  0.5090560000000  0.4016790000000 1.0
C      1  0.4510450000000  0.7001300000000  0.3959290000000 1.0
C      1  0.6751580000000  0.6122690000000  0.3955790000000 1.0
C      1  0.6523700000000  0.3645690000000  0.3949690000000 1.0
C      1  0.4263760000000  0.3121710000000  0.5979900000000 1.0
C      1  0.2940400000000  0.5089850000000  0.5983260000000 1.0
C      1  0.4510060000000  0.7001650000000  0.6040640000000 1.0
C      1  0.6751200000000  0.6122540000000  0.6044360000000 1.0
C      1  0.6523180000000  0.3645590000000  0.6050010000000 1.0
C      1  0.6161950000000  0.6722120000000  0.4468170000000 1.0
C      1  0.6783250000000  0.4489010000000  0.4430160000000 1.0
C      1  0.5024430000000  0.2768970000000  0.4509780000000 1.0
C      1  0.2890440000000  0.4254650000000  0.4511430000000 1.0
C      1  0.3773150000000  0.6590870000000  0.4466880000000 1.0
C      1  0.6161930000000  0.6721940000000  0.5531560000000 1.0
C      1  0.6782390000000  0.4488470000000  0.5570030000000 1.0
C      1  0.5025150000000  0.2767350000000  0.5490560000000 1.0
C      1  0.2886800000000  0.4253090000000  0.5489140000000 1.0
C      1  0.3773070000000  0.6591370000000  0.5532690000000 1.0
END
