TITL C-1525613-7943-728 0.0472872641092822 3375 -8801.87925865693 0 0 60 (Ci) n - 1
REM
REM in /home/nfs/bkarasulu/CARBON/AIRSS/Generating-Clusters/ReaxFF-fromJPCA2015/Units_Real/Try2-Higher-symm/Only-C60
REM
REM
REM
REM
REM
REM ./C.cell (863b2abdce7293c0672fb3ba77bf323a)
REM AIRSS Version 0.9.1 bugfix July 2018 build 013d7b7c2542+ Fri, 06 Jul 2018 19:26:36 +0100
REM compiler GCC version 9.2.1 20190827 (Red Hat 9.2.1-1)
REM options -cpp -mtune=generic -march=x86-64 -g -O0 -fpre-include=/usr/include/finclude/math-vector-fortran.h
REM seed 87816690 619244192 1011492500 1905336380 100122870 -1592051218 -1053585133 1173520619 -2093320827 -1755434335 192939774 -1445584498 1330709442 1587598520 -200129637 855027001 -880739852 -1074906762 -381132310 1714923318 -188327243 -679867866 -710635816 -2092469794 -1192542751 1380677210 -2126367662 516421984 653353776 -2000477459 87017120 1140189584 -541345105
REM
CELL 1.54180   15.00000   15.00000   15.00000   90.00000   90.00000   90.00000
LATT -1
SFAC C  
C      1  0.6671770000000  0.5001000000000  0.6578750000000 1.0
C      1  0.5400580000000  0.4980040000000  0.7266630000000 1.0
C      1  0.4001210000000  0.5045660000000  0.7076590000000 1.0
C      1  0.2994460000000  0.4968690000000  0.6093320000000 1.0
C      1  0.2694300000000  0.5029420000000  0.4687720000000 1.0
C      1  0.3328330000000  0.4998260000000  0.3421110000000 1.0
C      1  0.4599560000000  0.5018720000000  0.2733290000000 1.0
C      1  0.5998690000000  0.4953800000000  0.2923510000000 1.0
C      1  0.7005110000000  0.5030900000000  0.3906600000000 1.0
C      1  0.7305150000000  0.4971370000000  0.5312370000000 1.0
C      1  0.4669060000000  0.4558860000000  0.5658020000000 1.0
C      1  0.4257560000000  0.5867380000000  0.5153760000000 1.0
C      1  0.4336700000000  0.4265370000000  0.4799910000000 1.0
C      1  0.4447380000000  0.5686240000000  0.4264540000000 1.0
C      1  0.5113090000000  0.4537960000000  0.4259150000000 1.0
C      1  0.5335130000000  0.5440990000000  0.4340180000000 1.0
C      1  0.5729140000000  0.4130800000000  0.4850820000000 1.0
C      1  0.5663680000000  0.5735600000000  0.5200770000000 1.0
C      1  0.5553660000000  0.4315760000000  0.5728140000000 1.0
C      1  0.4890040000000  0.5463110000000  0.5746180000000 1.0
C      1  0.4741490000000  0.5927540000000  0.2827320000000 1.0
C      1  0.6044160000000  0.4048790000000  0.3122310000000 1.0
C      1  0.6896350000000  0.5944600000000  0.4079690000000 1.0
C      1  0.7183830000000  0.4032500000000  0.5357450000000 1.0
C      1  0.6511120000000  0.5929590000000  0.6575220000000 1.0
C      1  0.5258450000000  0.4071760000000  0.7170370000000 1.0
C      1  0.3955010000000  0.5951380000000  0.6878200000000 1.0
C      1  0.3104430000000  0.4054520000000  0.5920940000000 1.0
C      1  0.2815270000000  0.5965430000000  0.4641900000000 1.0
C      1  0.3488770000000  0.4070560000000  0.3424510000000 1.0
C      1  0.5831430000000  0.3104150000000  0.4791170000000 1.0
C      1  0.5762290000000  0.6762960000000  0.5348500000000 1.0
C      1  0.5402110000000  0.2981720000000  0.5742110000000 1.0
C      1  0.4910920000000  0.6912420000000  0.5901790000000 1.0
C      1  0.4463200000000  0.3060080000000  0.5711840000000 1.0
C      1  0.4171970000000  0.6903090000000  0.5210700000000 1.0
C      1  0.4239280000000  0.3235900000000  0.4651130000000 1.0
C      1  0.4598340000000  0.7022060000000  0.4257230000000 1.0
C      1  0.5090320000000  0.3091370000000  0.4098840000000 1.0
C      1  0.5537080000000  0.6939550000000  0.4290510000000 1.0
C      1  0.5619170000000  0.5878590000000  0.7042050000000 1.0
C      1  0.4278060000000  0.4123430000000  0.7048750000000 1.0
C      1  0.3166710000000  0.5902700000000  0.6206090000000 1.0
C      1  0.2847930000000  0.4113010000000  0.4919030000000 1.0
C      1  0.3218840000000  0.5880410000000  0.3714060000000 1.0
C      1  0.4381230000000  0.4121320000000  0.2958210000000 1.0
C      1  0.5722460000000  0.5876220000000  0.2951060000000 1.0
C      1  0.6831930000000  0.4095140000000  0.3796470000000 1.0
C      1  0.7151090000000  0.5886260000000  0.5081460000000 1.0
C      1  0.6780940000000  0.4118810000000  0.6286690000000 1.0
C      1  0.5833550000000  0.3597570000000  0.6421540000000 1.0
C      1  0.4827160000000  0.6423900000000  0.6705580000000 1.0
C      1  0.3885890000000  0.3575650000000  0.6290690000000 1.0
C      1  0.3144760000000  0.6489270000000  0.5414980000000 1.0
C      1  0.3333500000000  0.3559880000000  0.4252870000000 1.0
C      1  0.4164920000000  0.6403470000000  0.3575170000000 1.0
C      1  0.5173390000000  0.3572460000000  0.3291450000000 1.0
C      1  0.6116240000000  0.6422280000000  0.3708570000000 1.0
C      1  0.6855480000000  0.3509980000000  0.4585510000000 1.0
C      1  0.6666310000000  0.6439730000000  0.5746690000000 1.0
END
