TITL C-1525613-7943-5471 0.0727027972661175 3375 -8618.9629120501 0 0 60 (C1) n - 1
REM
REM in /home/nfs/bkarasulu/CARBON/AIRSS/Generating-Clusters/ReaxFF-fromJPCA2015/Units_Real/Try2-Higher-symm/Only-C60
REM
REM
REM
REM
REM
REM ./C.cell (863b2abdce7293c0672fb3ba77bf323a)
REM AIRSS Version 0.9.1 bugfix July 2018 build 013d7b7c2542+ Fri, 06 Jul 2018 19:26:36 +0100
REM compiler GCC version 9.2.1 20190827 (Red Hat 9.2.1-1)
REM options -cpp -mtune=generic -march=x86-64 -g -O0 -fpre-include=/usr/include/finclude/math-vector-fortran.h
REM seed 1768399843 -53431560 2040951872 -483171680 1876095126 -1018605228 -384263680 -94849322 -1478472591 1347966646 707241622 -1843665981 1740105016 1339382012 1334368628 -386041730 1698520249 -213862629 -493289155 2100913177 1286015008 1454405354 135826166 1878666871 -1464118894 1014757040 239514073 -2019848502 -1484243457 562005465 525965157 -1792990289 -728256091
REM
CELL 1.54180   15.00000   15.00000   15.00000   90.00000   90.00000   90.00000
LATT -1
SFAC C  
C      1  0.5603320000000  0.6134030000000  0.2604410000000 1.0
C      1  0.5461410000000  0.2909900000000  0.2880860000000 1.0
C      1  0.5398860000000  0.2194310000000  0.6175470000000 1.0
C      1  0.5399180000000  0.5510320000000  0.8098110000000 1.0
C      1  0.5434390000000  0.7635690000000  0.5199700000000 1.0
C      1  0.5438720000000  0.3753040000000  0.2417970000000 1.0
C      1  0.5499200000000  0.7043300000000  0.2956530000000 1.0
C      1  0.5386830000000  0.7792490000000  0.6215160000000 1.0
C      1  0.5399670000000  0.4504840000000  0.8103340000000 1.0
C      1  0.5470600000000  0.2328090000000  0.5185970000000 1.0
C      1  0.4814270000000  0.7131550000000  0.3719580000000 1.0
C      1  0.4761190000000  0.4513340000000  0.2480530000000 1.0
C      1  0.4708190000000  0.2395060000000  0.4607040000000 1.0
C      1  0.4972360000000  0.4115500000000  0.7292850000000 1.0
C      1  0.4962500000000  0.6954370000000  0.6506130000000 1.0
C      1  0.4873190000000  0.2947530000000  0.3759960000000 1.0
C      1  0.4810480000000  0.5473760000000  0.2526180000000 1.0
C      1  0.4681010000000  0.7632100000000  0.4590110000000 1.0
C      1  0.4967170000000  0.5899980000000  0.7290740000000 1.0
C      1  0.4980430000000  0.3055890000000  0.6482480000000 1.0
C      1  0.5604370000000  0.4562710000000  0.3761560000000 1.0
C      1  0.5811870000000  0.3309630000000  0.5083370000000 1.0
C      1  0.5577680000000  0.4491680000000  0.6517390000000 1.0
C      1  0.5680000000000  0.6303520000000  0.5949780000000 1.0
C      1  0.5630380000000  0.6369740000000  0.4248200000000 1.0
C      1  0.5607690000000  0.5507990000000  0.3814540000000 1.0
C      1  0.5511480000000  0.6683770000000  0.5129620000000 1.0
C      1  0.5585280000000  0.5533430000000  0.6504250000000 1.0
C      1  0.5625980000000  0.3716610000000  0.5952960000000 1.0
C      1  0.5576290000000  0.3703970000000  0.4227150000000 1.0
C      1  0.3416040000000  0.4505150000000  0.6496700000000 1.0
C      1  0.3439590000000  0.6263380000000  0.5899260000000 1.0
C      1  0.3346600000000  0.6253890000000  0.4055840000000 1.0
C      1  0.3361240000000  0.4542890000000  0.3502730000000 1.0
C      1  0.3316520000000  0.3406070000000  0.4977080000000 1.0
C      1  0.3415820000000  0.5499070000000  0.6495950000000 1.0
C      1  0.3449340000000  0.3741620000000  0.5901720000000 1.0
C      1  0.3348700000000  0.3741590000000  0.4070760000000 1.0
C      1  0.3391930000000  0.5447390000000  0.3504610000000 1.0
C      1  0.3321390000000  0.6582810000000  0.4965380000000 1.0
C      1  0.3971290000000  0.6680970000000  0.3431290000000 1.0
C      1  0.3982700000000  0.4133450000000  0.2904120000000 1.0
C      1  0.3947270000000  0.2655790000000  0.5156460000000 1.0
C      1  0.4066280000000  0.4510310000000  0.7248050000000 1.0
C      1  0.4052610000000  0.7011690000000  0.6074690000000 1.0
C      1  0.3996100000000  0.3337380000000  0.3458440000000 1.0
C      1  0.4017410000000  0.5864550000000  0.2905250000000 1.0
C      1  0.3936880000000  0.7345810000000  0.5145260000000 1.0
C      1  0.4063820000000  0.5495460000000  0.7247640000000 1.0
C      1  0.4069640000000  0.2995190000000  0.6081650000000 1.0
C      1  0.6702010000000  0.3797140000000  0.5941090000000 1.0
C      1  0.6607970000000  0.5494750000000  0.6530340000000 1.0
C      1  0.6925700000000  0.6187700000000  0.4993440000000 1.0
C      1  0.6522700000000  0.5523160000000  0.3452700000000 1.0
C      1  0.6632430000000  0.3751990000000  0.4134180000000 1.0
C      1  0.6752260000000  0.6207130000000  0.5897020000000 1.0
C      1  0.6609690000000  0.4543630000000  0.6528580000000 1.0
C      1  0.6873320000000  0.3552250000000  0.5042600000000 1.0
C      1  0.6557680000000  0.4541410000000  0.3567760000000 1.0
C      1  0.6671100000000  0.6278230000000  0.4107490000000 1.0
END
