TITL C-1525613-7943-6550 -5.93576747721483e-05 3375 -9189.77990726907 0 0 60 (C5) n - 1
REM
REM in /home/nfs/bkarasulu/CARBON/AIRSS/Generating-Clusters/ReaxFF-fromJPCA2015/Units_Real/Try2-Higher-symm/Only-C60
REM
REM
REM
REM
REM
REM ./C.cell (863b2abdce7293c0672fb3ba77bf323a)
REM AIRSS Version 0.9.1 bugfix July 2018 build 013d7b7c2542+ Fri, 06 Jul 2018 19:26:36 +0100
REM compiler GCC version 9.2.1 20190827 (Red Hat 9.2.1-1)
REM options -cpp -mtune=generic -march=x86-64 -g -O0 -fpre-include=/usr/include/finclude/math-vector-fortran.h
REM seed 249906107 -11494324 -1336864064 -2140063170 -2058973019 380884541 1931443094 -318792904 60314133 -588400147 206509195 1470538603 -1851845303 -1999838257 1695775541 -1019828493 778888706 -996477718 -535135341 -296723506 -259123459 1914623267 277297698 -2032884798 -762632522 1911916406 -388970087 1665033145 2141642271 203139669 -1876559067 -882538138 183587888
REM
CELL 1.54180   15.00000   15.00000   15.00000   90.00000   90.00000   90.00000
LATT -1
SFAC C  
C      1  0.4187040000000  0.2699800000000  0.5194320000000 1.0
C      1  0.4933590000000  0.2699800000000  0.5833220000000 1.0
C      1  0.5771920000000  0.2699800000000  0.5320640000000 1.0
C      1  0.5543480000000  0.2699800000000  0.4364940000000 1.0
C      1  0.4563970000000  0.2699800000000  0.4286870000000 1.0
C      1  0.4187040000000  0.7300200000000  0.5194320000000 1.0
C      1  0.4933590000000  0.7300200000000  0.5833220000000 1.0
C      1  0.5771920000000  0.7300200000000  0.5320640000000 1.0
C      1  0.5543480000000  0.7300200000000  0.4364940000000 1.0
C      1  0.4563970000000  0.7300200000000  0.4286870000000 1.0
C      1  0.4577390000000  0.5517910000000  0.5785570000000 1.0
C      1  0.5616530000000  0.5517910000000  0.5644680000000 1.0
C      1  0.5803650000000  0.5517910000000  0.4612860000000 1.0
C      1  0.4880150000000  0.5517910000000  0.4116050000000 1.0
C      1  0.4122280000000  0.5517910000000  0.4840830000000 1.0
C      1  0.4577390000000  0.4482090000000  0.5785570000000 1.0
C      1  0.5616530000000  0.4482090000000  0.5644680000000 1.0
C      1  0.5803650000000  0.4482090000000  0.4612860000000 1.0
C      1  0.4880150000000  0.4482090000000  0.4116050000000 1.0
C      1  0.4122280000000  0.4482090000000  0.4840830000000 1.0
C      1  0.4841820000000  0.3222180000000  0.6653720000000 1.0
C      1  0.6523900000000  0.3222180000000  0.5661460000000 1.0
C      1  0.6100000000000  0.3222180000000  0.3755080000000 1.0
C      1  0.4155930000000  0.3222180000000  0.3569140000000 1.0
C      1  0.3378340000000  0.3222180000000  0.5360590000000 1.0
C      1  0.4841820000000  0.6777820000000  0.6653720000000 1.0
C      1  0.6523900000000  0.6777820000000  0.5661460000000 1.0
C      1  0.6100000000000  0.6777820000000  0.3755080000000 1.0
C      1  0.4155930000000  0.6777820000000  0.3569140000000 1.0
C      1  0.3378340000000  0.6777820000000  0.5360590000000 1.0
C      1  0.7398190000000  0.4574660000000  0.5137450000000 1.0
C      1  0.5871800000000  0.4574660000000  0.2761660000000 1.0
C      1  0.3140620000000  0.4574660000000  0.3479180000000 1.0
C      1  0.2979040000000  0.4574660000000  0.6298420000000 1.0
C      1  0.5610360000000  0.4574660000000  0.7323290000000 1.0
C      1  0.7398190000000  0.5425340000000  0.5137450000000 1.0
C      1  0.5871800000000  0.5425340000000  0.2761660000000 1.0
C      1  0.3140620000000  0.5425340000000  0.3479180000000 1.0
C      1  0.2979040000000  0.5425340000000  0.6298420000000 1.0
C      1  0.5610360000000  0.5425340000000  0.7323290000000 1.0
C      1  0.3286760000000  0.3677200000000  0.3723600000000 1.0
C      1  0.3256650000000  0.3677200000000  0.6234950000000 1.0
C      1  0.5635790000000  0.3677200000000  0.7039650000000 1.0
C      1  0.7136290000000  0.3677200000000  0.5025620000000 1.0
C      1  0.5684510000000  0.3677200000000  0.2976180000000 1.0
C      1  0.3286760000000  0.6322800000000  0.3723600000000 1.0
C      1  0.3256650000000  0.6322800000000  0.6234950000000 1.0
C      1  0.5635790000000  0.6322800000000  0.7039650000000 1.0
C      1  0.7136290000000  0.6322800000000  0.5025620000000 1.0
C      1  0.5684510000000  0.6322800000000  0.2976180000000 1.0
C      1  0.6568400000000  0.6095980000000  0.4259010000000 1.0
C      1  0.4779940000000  0.6095980000000  0.3279390000000 1.0
C      1  0.3295600000000  0.6095980000000  0.4677590000000 1.0
C      1  0.4166680000000  0.6095980000000  0.6521360000000 1.0
C      1  0.6189390000000  0.6095980000000  0.6262660000000 1.0
C      1  0.6568400000000  0.3904020000000  0.4259010000000 1.0
C      1  0.4779940000000  0.3904020000000  0.3279390000000 1.0
C      1  0.3295600000000  0.3904020000000  0.4677590000000 1.0
C      1  0.4166680000000  0.3904020000000  0.6521360000000 1.0
C      1  0.6189390000000  0.3904020000000  0.6262660000000 1.0
END
