TITL C-1525613-7943-668 0.295528403305255 3375 -8579.00200401194 0 0 60 (C1) n - 1
REM
REM in /home/nfs/bkarasulu/CARBON/AIRSS/Generating-Clusters/ReaxFF-fromJPCA2015/Units_Real/Try2-Higher-symm/Only-C60
REM
REM
REM
REM
REM
REM ./C.cell (863b2abdce7293c0672fb3ba77bf323a)
REM AIRSS Version 0.9.1 bugfix July 2018 build 013d7b7c2542+ Fri, 06 Jul 2018 19:26:36 +0100
REM compiler GCC version 9.2.1 20190827 (Red Hat 9.2.1-1)
REM options -cpp -mtune=generic -march=x86-64 -g -O0 -fpre-include=/usr/include/finclude/math-vector-fortran.h
REM seed 1028622622 1026446714 1807407060 -241521321 -1152690535 -341306466 2082441809 681757494 -1387581336 -289361785 -1232623485 -257576317 -1856063184 356588983 112557078 1830494052 -1500114169 1309438252 -1528161211 -977585427 332410698 -695536925 588308509 -687041833 38285459 -1816767789 -496315257 -938325913 1493523546 2030715201 520311808 1024356446 -630138658
REM
CELL 1.54180   15.00000   15.00000   15.00000   90.00000   90.00000   90.00000
LATT -1
SFAC C  
C      1  0.2552580000000  0.5494830000000  0.5008710000000 1.0
C      1  0.4717630000000  0.7472430000000  0.5014370000000 1.0
C      1  0.7264410000000  0.6034470000000  0.5012380000000 1.0
C      1  0.6679900000000  0.3168960000000  0.5009020000000 1.0
C      1  0.3778690000000  0.2835730000000  0.5015480000000 1.0
C      1  0.2556770000000  0.4507190000000  0.4988760000000 1.0
C      1  0.4716440000000  0.2524320000000  0.4988480000000 1.0
C      1  0.7261160000000  0.3968970000000  0.4987600000000 1.0
C      1  0.6686870000000  0.6836360000000  0.4989840000000 1.0
C      1  0.3772420000000  0.7167310000000  0.4988620000000 1.0
C      1  0.2876820000000  0.4038740000000  0.4164180000000 1.0
C      1  0.3418900000000  0.6721750000000  0.4162170000000 1.0
C      1  0.6149760000000  0.7024730000000  0.4165440000000 1.0
C      1  0.7288390000000  0.4537790000000  0.4161540000000 1.0
C      1  0.5262870000000  0.2679410000000  0.4161010000000 1.0
C      1  0.2872400000000  0.5966610000000  0.5834900000000 1.0
C      1  0.3420560000000  0.3277810000000  0.5839710000000 1.0
C      1  0.6148080000000  0.2975940000000  0.5835430000000 1.0
C      1  0.7287590000000  0.5465120000000  0.5837500000000 1.0
C      1  0.5266900000000  0.7319680000000  0.5838950000000 1.0
C      1  0.6198480000000  0.2942240000000  0.4191450000000 1.0
C      1  0.3411800000000  0.3222760000000  0.4193400000000 1.0
C      1  0.2822400000000  0.5956420000000  0.4194370000000 1.0
C      1  0.5237820000000  0.7358950000000  0.4199340000000 1.0
C      1  0.7316160000000  0.5506690000000  0.4196010000000 1.0
C      1  0.6202040000000  0.7055590000000  0.5806120000000 1.0
C      1  0.3415010000000  0.6769000000000  0.5798730000000 1.0
C      1  0.2826100000000  0.4043160000000  0.5804460000000 1.0
C      1  0.5237040000000  0.2641210000000  0.5803750000000 1.0
C      1  0.7313990000000  0.4496830000000  0.5803360000000 1.0
C      1  0.4980110000000  0.6158870000000  0.4753620000000 1.0
C      1  0.6069780000000  0.5340130000000  0.4725440000000 1.0
C      1  0.5697210000000  0.4078550000000  0.4741180000000 1.0
C      1  0.4303930000000  0.4015940000000  0.4735990000000 1.0
C      1  0.3937180000000  0.5363560000000  0.4740120000000 1.0
C      1  0.4984960000000  0.3855060000000  0.5249260000000 1.0
C      1  0.6078000000000  0.4661100000000  0.5276620000000 1.0
C      1  0.5682890000000  0.5912060000000  0.5264150000000 1.0
C      1  0.4336340000000  0.5953650000000  0.5271090000000 1.0
C      1  0.3919310000000  0.4627820000000  0.5263470000000 1.0
C      1  0.5070960000000  0.6642240000000  0.6485890000000 1.0
C      1  0.6582720000000  0.5451590000000  0.6488620000000 1.0
C      1  0.5909500000000  0.3645480000000  0.6479580000000 1.0
C      1  0.3983620000000  0.3709440000000  0.6483960000000 1.0
C      1  0.3462780000000  0.5563750000000  0.6474820000000 1.0
C      1  0.5065080000000  0.3359590000000  0.3517720000000 1.0
C      1  0.6586310000000  0.4551990000000  0.3509520000000 1.0
C      1  0.5909390000000  0.6355570000000  0.3521890000000 1.0
C      1  0.3982330000000  0.6293650000000  0.3516240000000 1.0
C      1  0.3465170000000  0.4442190000000  0.3525810000000 1.0
C      1  0.3586350000000  0.4591840000000  0.6274300000000 1.0
C      1  0.4196650000000  0.6199110000000  0.6250820000000 1.0
C      1  0.5914280000000  0.6166390000000  0.6278330000000 1.0
C      1  0.6373900000000  0.4508870000000  0.6279280000000 1.0
C      1  0.4947900000000  0.3534550000000  0.6269810000000 1.0
C      1  0.3582610000000  0.5414870000000  0.3721440000000 1.0
C      1  0.4189410000000  0.3797040000000  0.3735090000000 1.0
C      1  0.5916820000000  0.3834920000000  0.3721400000000 1.0
C      1  0.6378790000000  0.5495360000000  0.3720130000000 1.0
C      1  0.4945720000000  0.6463810000000  0.3729350000000 1.0
END
