TITL C-1525613-7943-2257 -0.000668543080418197 3375 -9570.13330797647 0 0 60 (D10) n - 1
REM
REM in /home/nfs/bkarasulu/CARBON/AIRSS/Generating-Clusters/ReaxFF-fromJPCA2015/Units_Real/Try2-Higher-symm/Only-C60
REM
REM
REM
REM
REM
REM ./C.cell (863b2abdce7293c0672fb3ba77bf323a)
REM AIRSS Version 0.9.1 bugfix July 2018 build 013d7b7c2542+ Fri, 06 Jul 2018 19:26:36 +0100
REM compiler GCC version 9.2.1 20190827 (Red Hat 9.2.1-1)
REM options -cpp -mtune=generic -march=x86-64 -g -O0 -fpre-include=/usr/include/finclude/math-vector-fortran.h
REM seed 1337915572 339917949 1383092810 -1247229168 63326479 -1133867142 1793879974 -1694473269 -278972596 1132791476 -451202383 -943974742 1247543343 -659918976 53948928 -600166696 842100035 1109933354 -1759776831 -694051909 878272641 828893551 1595426002 1204146192 1380795898 2084200014 2012688756 -1831353427 1338695995 -238063601 -1470227736 -922277757 -1882840686
REM
CELL 1.54180   15.00000   15.00000   15.00000   90.00000   90.00000   90.00000
LATT -1
SFAC C  
C      1  0.3465910000000  0.4657400000000  0.6424230000000 1.0
C      1  0.3960270000000  0.3821120000000  0.6424230000000 1.0
C      1  0.4851770000000  0.3435130000000  0.6424230000000 1.0
C      1  0.5799890000000  0.3646870000000  0.6424230000000 1.0
C      1  0.6442480000000  0.4375450000000  0.6424230000000 1.0
C      1  0.6534090000000  0.5342600000000  0.6424230000000 1.0
C      1  0.6039730000000  0.6178880000000  0.6424230000000 1.0
C      1  0.5148230000000  0.6564870000000  0.6424230000000 1.0
C      1  0.4200110000000  0.6353130000000  0.6424230000000 1.0
C      1  0.3557520000000  0.5624550000000  0.6424230000000 1.0
C      1  0.7717240000000  0.4742620000000  0.5491200000000 1.0
C      1  0.7349560000000  0.6388900000000  0.5491200000000 1.0
C      1  0.6084450000000  0.7504690000000  0.5491200000000 1.0
C      1  0.4405120000000  0.7663770000000  0.5491200000000 1.0
C      1  0.2953020000000  0.6805360000000  0.5491200000000 1.0
C      1  0.2282760000000  0.5257380000000  0.5491200000000 1.0
C      1  0.2650440000000  0.3611100000000  0.5491200000000 1.0
C      1  0.3915550000000  0.2495310000000  0.5491200000000 1.0
C      1  0.5594880000000  0.2336230000000  0.5491200000000 1.0
C      1  0.7046980000000  0.3194640000000  0.5491200000000 1.0
C      1  0.3915550000000  0.2495310000000  0.4508800000000 1.0
C      1  0.5594880000000  0.2336220000000  0.4508800000000 1.0
C      1  0.7046980000000  0.3194640000000  0.4508800000000 1.0
C      1  0.7717240000000  0.4742620000000  0.4508800000000 1.0
C      1  0.7349550000000  0.6388900000000  0.4508800000000 1.0
C      1  0.6084450000000  0.7504690000000  0.4508800000000 1.0
C      1  0.4405120000000  0.7663780000000  0.4508800000000 1.0
C      1  0.2953020000000  0.6805360000000  0.4508800000000 1.0
C      1  0.2282760000000  0.5257380000000  0.4508800000000 1.0
C      1  0.2650450000000  0.3611100000000  0.4508800000000 1.0
C      1  0.6233720000000  0.2912950000000  0.5937480000000 1.0
C      1  0.7224850000000  0.4036720000000  0.5937480000000 1.0
C      1  0.7366150000000  0.5528410000000  0.5937490000000 1.0
C      1  0.6603650000000  0.6818280000000  0.5937490000000 1.0
C      1  0.5228620000000  0.7413630000000  0.5937490000000 1.0
C      1  0.3766280000000  0.7087050000000  0.5937480000000 1.0
C      1  0.2775150000000  0.5963280000000  0.5937480000000 1.0
C      1  0.2633850000000  0.4471590000000  0.5937490000000 1.0
C      1  0.3396350000000  0.3181720000000  0.5937490000000 1.0
C      1  0.4771380000000  0.2586370000000  0.5937490000000 1.0
C      1  0.7224850000000  0.4036720000000  0.4062510000000 1.0
C      1  0.7366150000000  0.5528410000000  0.4062510000000 1.0
C      1  0.6603650000000  0.6818280000000  0.4062510000000 1.0
C      1  0.5228620000000  0.7413640000000  0.4062510000000 1.0
C      1  0.3766270000000  0.7087050000000  0.4062510000000 1.0
C      1  0.2775150000000  0.5963280000000  0.4062510000000 1.0
C      1  0.2633850000000  0.4471590000000  0.4062510000000 1.0
C      1  0.3396350000000  0.3181720000000  0.4062510000000 1.0
C      1  0.4771380000000  0.2586360000000  0.4062510000000 1.0
C      1  0.6233730000000  0.2912950000000  0.4062510000000 1.0
C      1  0.6039720000000  0.6178880000000  0.3575770000000 1.0
C      1  0.5148230000000  0.6564870000000  0.3575770000000 1.0
C      1  0.4200110000000  0.6353130000000  0.3575770000000 1.0
C      1  0.3557520000000  0.5624540000000  0.3575780000000 1.0
C      1  0.3465910000000  0.4657400000000  0.3575780000000 1.0
C      1  0.3960280000000  0.3821120000000  0.3575770000000 1.0
C      1  0.4851770000000  0.3435130000000  0.3575770000000 1.0
C      1  0.5799890000000  0.3646870000000  0.3575770000000 1.0
C      1  0.6442480000000  0.4375460000000  0.3575780000000 1.0
C      1  0.6534090000000  0.5342600000000  0.3575780000000 1.0
END
