TITL C-1525613-7943-5303 0.0984519368820193 3375 -8865.7031286717 0 0 60 (C1) n - 1
REM
REM in /home/nfs/bkarasulu/CARBON/AIRSS/Generating-Clusters/ReaxFF-fromJPCA2015/Units_Real/Try2-Higher-symm/Only-C60
REM
REM
REM
REM
REM
REM ./C.cell (863b2abdce7293c0672fb3ba77bf323a)
REM AIRSS Version 0.9.1 bugfix July 2018 build 013d7b7c2542+ Fri, 06 Jul 2018 19:26:36 +0100
REM compiler GCC version 9.2.1 20190827 (Red Hat 9.2.1-1)
REM options -cpp -mtune=generic -march=x86-64 -g -O0 -fpre-include=/usr/include/finclude/math-vector-fortran.h
REM seed -1320017732 976046674 -97802967 -1331830153 533687394 -737640459 -1871766741 1556043695 -661904650 -1121766716 862304236 -786503045 1308295301 1930895955 1617979006 909705547 713696072 1230110129 -1709503630 334936334 1282710770 -1666592106 -2007425873 -1496632493 2011023450 -1191131877 1746409093 1101240937 -1318694588 1118095411 491295258 -1595229777 1749776813
REM
CELL 1.54180   15.00000   15.00000   15.00000   90.00000   90.00000   90.00000
LATT -1
SFAC C  
C      1  0.6038580000000  0.6774320000000  0.4008490000000 1.0
C      1  0.3993480000000  0.5918340000000  0.3303100000000 1.0
C      1  0.5868290000000  0.4656210000000  0.3018100000000 1.0
C      1  0.3972010000000  0.3567620000000  0.3544200000000 1.0
C      1  0.5930310000000  0.3125930000000  0.4638830000000 1.0
C      1  0.3968550000000  0.3249900000000  0.5977740000000 1.0
C      1  0.6009120000000  0.4085960000000  0.6704920000000 1.0
C      1  0.4140980000000  0.5360830000000  0.6991850000000 1.0
C      1  0.6034880000000  0.6427640000000  0.6477060000000 1.0
C      1  0.4070000000000  0.6885280000000  0.5356930000000 1.0
C      1  0.2785700000000  0.4281050000000  0.5540920000000 1.0
C      1  0.7105040000000  0.4890210000000  0.5795420000000 1.0
C      1  0.2856340000000  0.5231150000000  0.5752250000000 1.0
C      1  0.7151720000000  0.5799300000000  0.5443340000000 1.0
C      1  0.2910380000000  0.5736130000000  0.4944530000000 1.0
C      1  0.7215190000000  0.5717760000000  0.4487300000000 1.0
C      1  0.2914730000000  0.5103310000000  0.4229450000000 1.0
C      1  0.7143930000000  0.4767220000000  0.4269160000000 1.0
C      1  0.2859520000000  0.4192190000000  0.4580240000000 1.0
C      1  0.7094970000000  0.4258700000000  0.5073850000000 1.0
C      1  0.6545510000000  0.7253510000000  0.5199790000000 1.0
C      1  0.3106860000000  0.7244250000000  0.3996480000000 1.0
C      1  0.6849470000000  0.5642120000000  0.2974850000000 1.0
C      1  0.3215290000000  0.4622080000000  0.2595750000000 1.0
C      1  0.7178450000000  0.2658210000000  0.4222590000000 1.0
C      1  0.3223630000000  0.2526710000000  0.4627770000000 1.0
C      1  0.6879420000000  0.2741800000000  0.6004290000000 1.0
C      1  0.3169950000000  0.4363400000000  0.7047260000000 1.0
C      1  0.6859680000000  0.5327060000000  0.7455090000000 1.0
C      1  0.2820880000000  0.7353120000000  0.5771150000000 1.0
C      1  0.3990900000000  0.4572810000000  0.7620720000000 1.0
C      1  0.6323100000000  0.6166510000000  0.7397460000000 1.0
C      1  0.3703650000000  0.7392510000000  0.6184530000000 1.0
C      1  0.6253790000000  0.7741590000000  0.4452230000000 1.0
C      1  0.3699900000000  0.6897110000000  0.3319940000000 1.0
C      1  0.6035910000000  0.5442970000000  0.2390040000000 1.0
C      1  0.3721200000000  0.3765310000000  0.2585960000000 1.0
C      1  0.6293950000000  0.2624360000000  0.3808920000000 1.0
C      1  0.3723780000000  0.2413220000000  0.5474410000000 1.0
C      1  0.6284710000000  0.3103540000000  0.6672210000000 1.0
C      1  0.5276760000000  0.6017150000000  0.6057910000000 1.0
C      1  0.4896870000000  0.6419540000000  0.5233470000000 1.0
C      1  0.5258770000000  0.6284770000000  0.4312120000000 1.0
C      1  0.4808120000000  0.5638010000000  0.3711790000000 1.0
C      1  0.5114130000000  0.4759110000000  0.3573990000000 1.0
C      1  0.4720190000000  0.4008760000000  0.3950090000000 1.0
C      1  0.5109100000000  0.3603860000000  0.4770480000000 1.0
C      1  0.4753990000000  0.3742930000000  0.5685290000000 1.0
C      1  0.5203160000000  0.4384570000000  0.6283410000000 1.0
C      1  0.4888110000000  0.5261330000000  0.6426440000000 1.0
C      1  0.6789360000000  0.4728520000000  0.3349800000000 1.0
C      1  0.3209430000000  0.3401200000000  0.4142490000000 1.0
C      1  0.6850160000000  0.3261680000000  0.5092670000000 1.0
C      1  0.3182670000000  0.3765490000000  0.6259460000000 1.0
C      1  0.6785170000000  0.4678410000000  0.6701210000000 1.0
C      1  0.3219370000000  0.5274510000000  0.6666410000000 1.0
C      1  0.6777560000000  0.6611770000000  0.5845710000000 1.0
C      1  0.3148940000000  0.6733230000000  0.4910790000000 1.0
C      1  0.6826000000000  0.6247290000000  0.3765410000000 1.0
C      1  0.3238370000000  0.5296620000000  0.3321900000000 1.0
END
