TITL C-1525613-7943-7792 -7.1551510875915e-05 3375 -8688.07802100049 0 0 60 (S10) n - 1
REM
REM in /home/nfs/bkarasulu/CARBON/AIRSS/Generating-Clusters/ReaxFF-fromJPCA2015/Units_Real/Try2-Higher-symm/Only-C60
REM
REM
REM
REM
REM
REM ./C.cell (863b2abdce7293c0672fb3ba77bf323a)
REM AIRSS Version 0.9.1 bugfix July 2018 build 013d7b7c2542+ Fri, 06 Jul 2018 19:26:36 +0100
REM compiler GCC version 9.2.1 20190827 (Red Hat 9.2.1-1)
REM options -cpp -mtune=generic -march=x86-64 -g -O0 -fpre-include=/usr/include/finclude/math-vector-fortran.h
REM seed -1407419136 73125196 -1432099778 1453200617 -2087746662 -1078935313 -66767182 2058197265 1620173762 -993987830 1248276561 586117692 1103404823 -672789246 79231747 -692112698 -944831722 518090714 -1683731739 1311270894 -105012089 -1103772620 -757838858 -881232564 309840054 1371862640 -1210990704 -605532529 1137642436 -331565280 1519927327 -1168012948 726879356
REM
CELL 1.54180   15.00000   15.00000   15.00000   90.00000   90.00000   90.00000
LATT -1
SFAC C  
C      1  0.5030180000000  0.4708050000000  0.7318800000000 1.0
C      1  0.3661410000000  0.5291520000000  0.6893710000000 1.0
C      1  0.2804010000000  0.4708010000000  0.5745210000000 1.0
C      1  0.2785330000000  0.5291660000000  0.4312150000000 1.0
C      1  0.3612660000000  0.4708280000000  0.3141740000000 1.0
C      1  0.4969820000000  0.5291950000000  0.2681200000000 1.0
C      1  0.6338590000000  0.4708480000000  0.3106290000000 1.0
C      1  0.7195990000000  0.5291990000000  0.4254790000000 1.0
C      1  0.7214670000000  0.4708340000000  0.5687850000000 1.0
C      1  0.6387340000000  0.5291720000000  0.6858260000000 1.0
C      1  0.2684860000000  0.3673980000000  0.4046610000000 1.0
C      1  0.3687170000000  0.6326000000000  0.2868020000000 1.0
C      1  0.5191280000000  0.3674280000000  0.2503390000000 1.0
C      1  0.6621970000000  0.6326200000000  0.3092770000000 1.0
C      1  0.7433500000000  0.3674300000000  0.4410260000000 1.0
C      1  0.7315140000000  0.6326020000000  0.5953390000000 1.0
C      1  0.6312830000000  0.3674000000000  0.7131980000000 1.0
C      1  0.4808720000000  0.6325720000000  0.7496610000000 1.0
C      1  0.3378030000000  0.3673800000000  0.6907230000000 1.0
C      1  0.2566500000000  0.6325700000000  0.5589740000000 1.0
C      1  0.4275090000000  0.6298810000000  0.5518510000000 1.0
C      1  0.4109010000000  0.3701030000000  0.4993260000000 1.0
C      1  0.4282890000000  0.6298890000000  0.4470960000000 1.0
C      1  0.4731040000000  0.3701150000000  0.4150370000000 1.0
C      1  0.5281570000000  0.6298990000000  0.4154670000000 1.0
C      1  0.5724910000000  0.3701190000000  0.4481490000000 1.0
C      1  0.5890990000000  0.6298970000000  0.5006740000000 1.0
C      1  0.5717110000000  0.3701110000000  0.5529040000000 1.0
C      1  0.5268960000000  0.6298850000000  0.5849630000000 1.0
C      1  0.4718430000000  0.3701010000000  0.5845330000000 1.0
C      1  0.4715960000000  0.3242490000000  0.3236520000000 1.0
C      1  0.5806430000000  0.6757820000000  0.3406540000000 1.0
C      1  0.6589360000000  0.3242560000000  0.4184700000000 1.0
C      1  0.6764710000000  0.6757740000000  0.5274780000000 1.0
C      1  0.6266490000000  0.3242360000000  0.6259410000000 1.0
C      1  0.5284040000000  0.6757510000000  0.6763480000000 1.0
C      1  0.4193570000000  0.3242180000000  0.6593460000000 1.0
C      1  0.3410640000000  0.6757440000000  0.5815300000000 1.0
C      1  0.3235290000000  0.3242260000000  0.4725220000000 1.0
C      1  0.3733510000000  0.6757640000000  0.3740590000000 1.0
C      1  0.3024480000000  0.4593750000000  0.6688790000000 1.0
C      1  0.2409040000000  0.5405760000000  0.5205120000000 1.0
C      1  0.2783380000000  0.4593970000000  0.3642980000000 1.0
C      1  0.4004280000000  0.5406090000000  0.2599290000000 1.0
C      1  0.5605620000000  0.4594270000000  0.2472470000000 1.0
C      1  0.6975520000000  0.5406250000000  0.3311210000000 1.0
C      1  0.7590960000000  0.4594240000000  0.4794880000000 1.0
C      1  0.7216620000000  0.5406030000000  0.6357020000000 1.0
C      1  0.5995720000000  0.4593910000000  0.7400710000000 1.0
C      1  0.4394380000000  0.5405730000000  0.7527530000000 1.0
C      1  0.4137690000000  0.5278940000000  0.6014720000000 1.0
C      1  0.3706000000000  0.4720800000000  0.5314040000000 1.0
C      1  0.3768490000000  0.5279030000000  0.4493500000000 1.0
C      1  0.4301450000000  0.4720960000000  0.3866340000000 1.0
C      1  0.5101160000000  0.5279190000000  0.3672270000000 1.0
C      1  0.5862310000000  0.4721060000000  0.3985280000000 1.0
C      1  0.6294000000000  0.5279200000000  0.4685960000000 1.0
C      1  0.6231510000000  0.4720970000000  0.5506500000000 1.0
C      1  0.5698550000000  0.5279040000000  0.6133660000000 1.0
C      1  0.4898840000000  0.4720810000000  0.6327730000000 1.0
END
