TITL C-1412434-1681-22 9.85832065506038 125000 -431.123616610623 0 0 77 (C1) n - 1
REM
REM in /home/nfs/bkarasulu/CARBON/AIRSS/Generating-Clusters/TERSOFF/Higher-Symm/FIRE-HFTN
REM
REM
REM
REM
REM
REM ./C.cell (b20cbc046b6831c77cfcea5457e17084)
REM AIRSS Version 0.9.1 bugfix July 2018 build 013d7b7c2542+ Fri, 06 Jul 2018 19:26:36 +0100
REM compiler GCC version 9.2.1 20190827 (Red Hat 9.2.1-1)
REM options -cpp -mtune=generic -march=x86-64 -g -O0 -fpre-include=/usr/include/finclude/math-vector-fortran.h
REM seed 1962650683 426905055 1687724223 246258211 -1562600154 1857630217 1402825491 1299946614 -1949826333 -287346814 -958470848 1084249750 -290513313 1797546361 1632090192 -1940297553 -2024623447 825277375 2119119157 639530475 603016274 -1903563558 -912749429 -1206954278 678593584 -541023284 -1866793768 957452327 -240595925 1440396802 1335428801 1993096489 727363076
REM
CELL 1.54180   50.00000   50.00000   50.00000   90.00000   90.00000   90.00000
LATT -1
SFAC C  
C      1  0.4822830000000  0.4585890000000  0.4526600000000 1.0
C      1  0.4716050000000  0.5372840000000  0.4558590000000 1.0
C      1  0.5448020000000  0.5066970000000  0.4539610000000 1.0
C      1  0.5084910000000  0.4577770000000  0.5456940000000 1.0
C      1  0.4645140000000  0.5141350000000  0.5381950000000 1.0
C      1  0.5288010000000  0.5262000000000  0.5418630000000 1.0
C      1  0.4422870000000  0.4651430000000  0.5158750000000 1.0
C      1  0.5008000000000  0.5682330000000  0.5215410000000 1.0
C      1  0.5567160000000  0.4666880000000  0.5163760000000 1.0
C      1  0.5400750000000  0.5722600000000  0.4855580000000 1.0
C      1  0.5398270000000  0.4293310000000  0.4866250000000 1.0
C      1  0.4181160000000  0.4993330000000  0.4852980000000 1.0
C      1  0.5278620000000  0.4893610000000  0.4346180000000 1.0
C      1  0.4745900000000  0.4820880000000  0.4339110000000 1.0
C      1  0.4942110000000  0.5326680000000  0.4352600000000 1.0
C      1  0.5365270000000  0.4898440000000  0.5774630000000 1.0
C      1  0.4696300000000  0.4757950000000  0.5743550000000 1.0
C      1  0.4901330000000  0.5447690000000  0.5704480000000 1.0
C      1  0.5449940000000  0.5499180000000  0.5305460000000 1.0
C      1  0.5238800000000  0.4338980000000  0.5344000000000 1.0
C      1  0.4352810000000  0.5124940000000  0.5291750000000 1.0
C      1  0.5217020000000  0.5161070000000  0.4689560000000 1.0
C      1  0.5021320000000  0.4737470000000  0.4675180000000 1.0
C      1  0.4751520000000  0.5120040000000  0.4699450000000 1.0
C      1  0.5928500000000  0.5050510000000  0.5055170000000 1.0
C      1  0.4570990000000  0.4159800000000  0.5042000000000 1.0
C      1  0.4480630000000  0.5784890000000  0.5092520000000 1.0
C      1  0.4339980000000  0.5283180000000  0.4871700000000 1.0
C      1  0.5565910000000  0.5437230000000  0.4859500000000 1.0
C      1  0.5075550000000  0.4298010000000  0.4864320000000 1.0
C      1  0.5157490000000  0.4747630000000  0.5927210000000 1.0
C      1  0.4666790000000  0.5030080000000  0.5867700000000 1.0
C      1  0.5127270000000  0.5341340000000  0.5873520000000 1.0
C      1  0.4894440000000  0.5187920000000  0.5179650000000 1.0
C      1  0.5165800000000  0.5026160000000  0.5215060000000 1.0
C      1  0.4966090000000  0.4778780000000  0.5246360000000 1.0
C      1  0.4417320000000  0.5388400000000  0.4597020000000 1.0
C      1  0.5611220000000  0.5318970000000  0.4582440000000 1.0
C      1  0.4958010000000  0.4316590000000  0.4581820000000 1.0
C      1  0.4361270000000  0.5498640000000  0.5100700000000 1.0
C      1  0.5742230000000  0.5297890000000  0.5081300000000 1.0
C      1  0.4874990000000  0.4202920000000  0.5079350000000 1.0
C      1  0.5522850000000  0.4882520000000  0.4762050000000 1.0
C      1  0.4633900000000  0.4599950000000  0.4760810000000 1.0
C      1  0.4830090000000  0.5540710000000  0.4772550000000 1.0
C      1  0.5257050000000  0.5332320000000  0.4907570000000 1.0
C      1  0.5134520000000  0.4617600000000  0.4897650000000 1.0
C      1  0.4588980000000  0.5059550000000  0.4923340000000 1.0
C      1  0.4370770000000  0.4392110000000  0.5012960000000 1.0
C      1  0.4781230000000  0.5845070000000  0.5056820000000 1.0
C      1  0.5825500000000  0.4759970000000  0.5025420000000 1.0
C      1  0.5172470000000  0.5529650000000  0.4406170000000 1.0
C      1  0.5324960000000  0.4589330000000  0.4411450000000 1.0
C      1  0.4459760000000  0.4919020000000  0.4402330000000 1.0
C      1  0.5177470000000  0.5737360000000  0.4642360000000 1.0
C      1  0.5512460000000  0.4480300000000  0.4641680000000 1.0
C      1  0.4280750000000  0.4807990000000  0.4631150000000 1.0
C      1  0.5052120000000  0.5471960000000  0.5447510000000 1.0
C      1  0.5352930000000  0.4722520000000  0.5536520000000 1.0
C      1  0.4619480000000  0.4845220000000  0.5473580000000 1.0
C      1  0.4297780000000  0.6010390000000  0.5120220000000 1.0
C      1  0.6216730000000  0.5094600000000  0.5058900000000 1.0
C      1  0.4469410000000  0.3886760000000  0.5033930000000 1.0
C      1  0.5315520000000  0.5715230000000  0.5147990000000 1.0
C      1  0.5463960000000  0.4379340000000  0.5151940000000 1.0
C      1  0.4243000000000  0.4898250000000  0.5135940000000 1.0
C      1  0.5339150000000  0.4820950000000  0.5024300000000 1.0
C      1  0.4695490000000  0.4770530000000  0.5059650000000 1.0
C      1  0.4978680000000  0.5435350000000  0.5017950000000 1.0
C      1  0.4955920000000  0.4620610000000  0.5749950000000 1.0
C      1  0.4682620000000  0.5255240000000  0.5672950000000 1.0
C      1  0.5324150000000  0.5182660000000  0.5716130000000 1.0
C      1  0.4341970000000  0.4513640000000  0.4719580000000 1.0
C      1  0.4889250000000  0.5842000000000  0.4742360000000 1.0
C      1  0.5747770000000  0.4674130000000  0.4725950000000 1.0
C      1  0.4989010000000  0.5016870000000  0.4268450000000 1.0
C      1  0.4995960000000  0.5006250000000  0.4687630000000 1.0
END
