TITL C-1412438-7001-4 4.015438079516 125000 -1182.52187566595 0 0 198 (C1) n - 1
REM
REM in /home/nfs/bkarasulu/CARBON/AIRSS/Generating-Clusters/TERSOFF/Higher-Symm/FIRE-HFTN
REM
REM
REM
REM
REM
REM ./C.cell (b20cbc046b6831c77cfcea5457e17084)
REM AIRSS Version 0.9.1 bugfix July 2018 build 013d7b7c2542+ Fri, 06 Jul 2018 19:26:36 +0100
REM compiler GCC version 9.2.1 20190827 (Red Hat 9.2.1-1)
REM options -cpp -mtune=generic -march=x86-64 -g -O0 -fpre-include=/usr/include/finclude/math-vector-fortran.h
REM seed 1992492568 -297634975 576289154 -889383518 -1860326026 -1924329239 778543579 -1756596256 748762394 296176410 -309225015 1641066873 -1678050010 2138019537 265841189 915796827 -2116372979 613046139 136303992 -1310381351 -715734363 8915865 711604823 1768900300 1582330339 -469685113 -1705415964 -465898237 -2016262642 572117207 -380843177 -1196242981 -1970228755
REM
CELL 1.54180   50.00000   50.00000   50.00000   90.00000   90.00000   90.00000
LATT -1
SFAC C  
C      1  0.4739980000000  0.5835990000000  0.4691570000000 1.0
C      1  0.5259150000000  0.5835190000000  0.5307940000000 1.0
C      1  0.4727230000000  0.5842460000000  0.5286790000000 1.0
C      1  0.5271960000000  0.5841870000000  0.4712630000000 1.0
C      1  0.4212270000000  0.4950830000000  0.5209230000000 1.0
C      1  0.5786990000000  0.4948540000000  0.4791700000000 1.0
C      1  0.4222220000000  0.4962140000000  0.4748390000000 1.0
C      1  0.5777420000000  0.4960980000000  0.5251720000000 1.0
C      1  0.4572810000000  0.4993720000000  0.6072740000000 1.0
C      1  0.5426910000000  0.4993010000000  0.3927170000000 1.0
C      1  0.4531180000000  0.5012220000000  0.3978650000000 1.0
C      1  0.5468800000000  0.5010910000000  0.6021720000000 1.0
C      1  0.4673070000000  0.4949070000000  0.5083550000000 1.0
C      1  0.5326770000000  0.4944500000000  0.4918010000000 1.0
C      1  0.4677400000000  0.4920100000000  0.4802850000000 1.0
C      1  0.5323030000000  0.4916490000000  0.5198550000000 1.0
C      1  0.5758910000000  0.5783450000000  0.4739750000000 1.0
C      1  0.4240080000000  0.5785770000000  0.5259790000000 1.0
C      1  0.5747160000000  0.5767560000000  0.5296690000000 1.0
C      1  0.4251720000000  0.5769860000000  0.4702790000000 1.0
C      1  0.5161430000000  0.4463530000000  0.5338400000000 1.0
C      1  0.4839410000000  0.4464190000000  0.4662330000000 1.0
C      1  0.5124840000000  0.4485230000000  0.4698330000000 1.0
C      1  0.4876080000000  0.4487580000000  0.5301440000000 1.0
C      1  0.5131210000000  0.5102100000000  0.4792170000000 1.0
C      1  0.4870920000000  0.5103300000000  0.5210330000000 1.0
C      1  0.5093160000000  0.4995520000000  0.5339100000000 1.0
C      1  0.4907580000000  0.4998560000000  0.4662670000000 1.0
C      1  0.4220710000000  0.4773640000000  0.4304530000000 1.0
C      1  0.5779630000000  0.4772830000000  0.5695610000000 1.0
C      1  0.4251270000000  0.4811930000000  0.5707670000000 1.0
C      1  0.5748660000000  0.4811890000000  0.4292640000000 1.0
C      1  0.5566680000000  0.5039310000000  0.4183840000000 1.0
C      1  0.4432410000000  0.5039870000000  0.5816160000000 1.0
C      1  0.5570040000000  0.4997740000000  0.5743810000000 1.0
C      1  0.4429210000000  0.4998970000000  0.4256170000000 1.0
C      1  0.4675240000000  0.5883820000000  0.5851400000000 1.0
C      1  0.5323980000000  0.5883310000000  0.4148210000000 1.0
C      1  0.4706510000000  0.5844550000000  0.4126030000000 1.0
C      1  0.5292720000000  0.5843920000000  0.5873550000000 1.0
C      1  0.4815130000000  0.5687870000000  0.6028540000000 1.0
C      1  0.5183720000000  0.5687380000000  0.3971190000000 1.0
C      1  0.4884540000000  0.5659180000000  0.3965790000000 1.0
C      1  0.5114260000000  0.5658730000000  0.6033620000000 1.0
C      1  0.3889200000000  0.5370210000000  0.5917090000000 1.0
C      1  0.6109410000000  0.5371610000000  0.4081560000000 1.0
C      1  0.3787500000000  0.5279850000000  0.4134770000000 1.0
C      1  0.6211960000000  0.5279740000000  0.5864970000000 1.0
C      1  0.4469710000000  0.5296200000000  0.5204050000000 1.0
C      1  0.5526570000000  0.5292940000000  0.4795280000000 1.0
C      1  0.4549820000000  0.5307360000000  0.4903280000000 1.0
C      1  0.5446900000000  0.5304630000000  0.5096710000000 1.0
C      1  0.6022560000000  0.4743840000000  0.4801530000000 1.0
C      1  0.3978090000000  0.4744680000000  0.5198390000000 1.0
C      1  0.6017650000000  0.4755120000000  0.5168840000000 1.0
C      1  0.3982490000000  0.4755990000000  0.4831060000000 1.0
C      1  0.4534500000000  0.5276070000000  0.3841690000000 1.0
C      1  0.5464300000000  0.5274970000000  0.6158460000000 1.0
C      1  0.4717010000000  0.5211500000000  0.6204260000000 1.0
C      1  0.5281620000000  0.5210450000000  0.3796160000000 1.0
C      1  0.4487710000000  0.5846160000000  0.5127750000000 1.0
C      1  0.5511450000000  0.5844660000000  0.4871750000000 1.0
C      1  0.4493340000000  0.5841900000000  0.4841420000000 1.0
C      1  0.5505780000000  0.5840350000000  0.5158070000000 1.0
C      1  0.4339660000000  0.5526550000000  0.5827990000000 1.0
C      1  0.5658800000000  0.5525790000000  0.4171250000000 1.0
C      1  0.4392160000000  0.5464060000000  0.4189240000000 1.0
C      1  0.5606140000000  0.5463000000000  0.5810740000000 1.0
C      1  0.5268730000000  0.4286640000000  0.4861290000000 1.0
C      1  0.4730570000000  0.4289370000000  0.5139730000000 1.0
C      1  0.5316370000000  0.4303230000000  0.5150360000000 1.0
C      1  0.4684110000000  0.4304410000000  0.4850410000000 1.0
C      1  0.4917280000000  0.4924980000000  0.3480810000000 1.0
C      1  0.5084980000000  0.4925320000000  0.6520230000000 1.0
C      1  0.4831020000000  0.4828820000000  0.6620010000000 1.0
C      1  0.5169680000000  0.4826150000000  0.3379350000000 1.0
C      1  0.4207770000000  0.4115790000000  0.4746010000000 1.0
C      1  0.5793410000000  0.4113620000000  0.5253460000000 1.0
C      1  0.4221930000000  0.4129840000000  0.5272090000000 1.0
C      1  0.5780340000000  0.4126900000000  0.4727670000000 1.0
C      1  0.5608520000000  0.4509920000000  0.4721000000000 1.0
C      1  0.4393980000000  0.4512770000000  0.5279010000000 1.0
C      1  0.5641730000000  0.4497290000000  0.5331520000000 1.0
C      1  0.4359700000000  0.4499520000000  0.4668720000000 1.0
C      1  0.6011580000000  0.4840240000000  0.4454290000000 1.0
C      1  0.3988310000000  0.4839480000000  0.5546080000000 1.0
C      1  0.6039960000000  0.4785000000000  0.5527090000000 1.0
C      1  0.3960360000000  0.4785500000000  0.4472790000000 1.0
C      1  0.3747450000000  0.4941920000000  0.5672890000000 1.0
C      1  0.6251760000000  0.4944720000000  0.4327850000000 1.0
C      1  0.3701540000000  0.4820000000000  0.4345260000000 1.0
C      1  0.6298800000000  0.4820080000000  0.5654420000000 1.0
C      1  0.5163790000000  0.6085840000000  0.4287160000000 1.0
C      1  0.4835790000000  0.6086070000000  0.5712460000000 1.0
C      1  0.5163080000000  0.6073870000000  0.5739340000000 1.0
C      1  0.4836550000000  0.6074310000000  0.4260150000000 1.0
C      1  0.4177250000000  0.5257410000000  0.5255180000000 1.0
C      1  0.5819180000000  0.5254830000000  0.4744890000000 1.0
C      1  0.4268750000000  0.5256310000000  0.4805730000000 1.0
C      1  0.5728370000000  0.5254250000000  0.5193300000000 1.0
C      1  0.4103060000000  0.5521140000000  0.4826900000000 1.0
C      1  0.5894970000000  0.5518220000000  0.5172640000000 1.0
C      1  0.4083960000000  0.5540300000000  0.5141830000000 1.0
C      1  0.5914170000000  0.5537170000000  0.4857650000000 1.0
C      1  0.5146270000000  0.5145280000000  0.4281020000000 1.0
C      1  0.4853720000000  0.5150350000000  0.5719220000000 1.0
C      1  0.5163240000000  0.5120910000000  0.5755830000000 1.0
C      1  0.4835760000000  0.5125460000000  0.4244330000000 1.0
C      1  0.5880110000000  0.4419930000000  0.5156850000000 1.0
C      1  0.4121790000000  0.4421610000000  0.4843230000000 1.0
C      1  0.5869680000000  0.4420370000000  0.4845150000000 1.0
C      1  0.4133230000000  0.4422470000000  0.5154570000000 1.0
C      1  0.4477540000000  0.4811100000000  0.5253220000000 1.0
C      1  0.5522930000000  0.4807280000000  0.4748430000000 1.0
C      1  0.4456300000000  0.4790420000000  0.4653280000000 1.0
C      1  0.5544730000000  0.4787890000000  0.5347780000000 1.0
C      1  0.5561920000000  0.3962840000000  0.5136790000000 1.0
C      1  0.4438630000000  0.3963920000000  0.4862650000000 1.0
C      1  0.5554240000000  0.3969290000000  0.4846020000000 1.0
C      1  0.4446850000000  0.3971080000000  0.5153430000000 1.0
C      1  0.3613810000000  0.5061720000000  0.4212400000000 1.0
C      1  0.6386080000000  0.5061980000000  0.5787250000000 1.0
C      1  0.3706940000000  0.5217310000000  0.5752230000000 1.0
C      1  0.6290470000000  0.5220650000000  0.4249510000000 1.0
C      1  0.4693820000000  0.3886710000000  0.5302620000000 1.0
C      1  0.5307190000000  0.3885310000000  0.4696450000000 1.0
C      1  0.4679330000000  0.3878330000000  0.4706240000000 1.0
C      1  0.5321110000000  0.3877720000000  0.5293120000000 1.0
C      1  0.5545620000000  0.4391090000000  0.4461360000000 1.0
C      1  0.4456580000000  0.4392900000000  0.5538160000000 1.0
C      1  0.5593320000000  0.4341360000000  0.5574660000000 1.0
C      1  0.4408530000000  0.4343360000000  0.4425950000000 1.0
C      1  0.5167120000000  0.4052720000000  0.5475840000000 1.0
C      1  0.4833990000000  0.4053250000000  0.4523930000000 1.0
C      1  0.5141650000000  0.4064600000000  0.4528280000000 1.0
C      1  0.4859630000000  0.4065600000000  0.5470820000000 1.0
C      1  0.5302340000000  0.4652210000000  0.5523980000000 1.0
C      1  0.4699660000000  0.4655300000000  0.4477940000000 1.0
C      1  0.5268870000000  0.4708590000000  0.4575440000000 1.0
C      1  0.4733200000000  0.4711960000000  0.5424920000000 1.0
C      1  0.5224220000000  0.5439300000000  0.6207150000000 1.0
C      1  0.4773900000000  0.5440780000000  0.3791810000000 1.0
C      1  0.5345340000000  0.5493000000000  0.3823270000000 1.0
C      1  0.4653190000000  0.5493810000000  0.6176280000000 1.0
C      1  0.4226720000000  0.5895780000000  0.5536390000000 1.0
C      1  0.5772760000000  0.5894000000000  0.4463350000000 1.0
C      1  0.4256370000000  0.5858280000000  0.4419440000000 1.0
C      1  0.5742870000000  0.5856410000000  0.5579940000000 1.0
C      1  0.5168330000000  0.4835110000000  0.4333720000000 1.0
C      1  0.4836340000000  0.4839170000000  0.5665790000000 1.0
C      1  0.5148020000000  0.4804370000000  0.5718080000000 1.0
C      1  0.4855390000000  0.4808540000000  0.4284900000000 1.0
C      1  0.4698800000000  0.4757980000000  0.3571010000000 1.0
C      1  0.5301650000000  0.4756340000000  0.6429320000000 1.0
C      1  0.4638620000000  0.4678860000000  0.6464270000000 1.0
C      1  0.5363760000000  0.4678390000000  0.3535080000000 1.0
C      1  0.4391900000000  0.5798970000000  0.5764390000000 1.0
C      1  0.5607310000000  0.5798230000000  0.4235040000000 1.0
C      1  0.4434340000000  0.5741570000000  0.4215040000000 1.0
C      1  0.5564690000000  0.5740510000000  0.5784640000000 1.0
C      1  0.4467580000000  0.5266660000000  0.4388510000000 1.0
C      1  0.5530150000000  0.5265610000000  0.5611800000000 1.0
C      1  0.4465400000000  0.5308020000000  0.5693950000000 1.0
C      1  0.5532780000000  0.5307510000000  0.4305350000000 1.0
C      1  0.4352080000000  0.4543020000000  0.5767560000000 1.0
C      1  0.5649110000000  0.4542600000000  0.4232180000000 1.0
C      1  0.4315090000000  0.4511850000000  0.4200360000000 1.0
C      1  0.5685960000000  0.4510840000000  0.5800000000000 1.0
C      1  0.4851880000000  0.6076880000000  0.4574400000000 1.0
C      1  0.5147920000000  0.6076430000000  0.5425050000000 1.0
C      1  0.4837960000000  0.6087870000000  0.5399220000000 1.0
C      1  0.5161900000000  0.6087720000000  0.4600440000000 1.0
C      1  0.5248020000000  0.4320390000000  0.4087270000000 1.0
C      1  0.4753310000000  0.4320720000000  0.5912240000000 1.0
C      1  0.5261050000000  0.4316130000000  0.5927260000000 1.0
C      1  0.4740250000000  0.4317650000000  0.4073290000000 1.0
C      1  0.4670060000000  0.5342200000000  0.4622330000000 1.0
C      1  0.5327760000000  0.5341350000000  0.5377810000000 1.0
C      1  0.4630120000000  0.5362570000000  0.5435030000000 1.0
C      1  0.5367630000000  0.5361980000000  0.4563650000000 1.0
C      1  0.4532960000000  0.4502210000000  0.6003120000000 1.0
C      1  0.5468300000000  0.4501760000000  0.3996550000000 1.0
C      1  0.4525780000000  0.4510130000000  0.3980980000000 1.0
C      1  0.5475290000000  0.4508880000000  0.6019350000000 1.0
C      1  0.5285160000000  0.4267160000000  0.4377180000000 1.0
C      1  0.4716560000000  0.4268330000000  0.5622180000000 1.0
C      1  0.5326560000000  0.4230900000000  0.5648650000000 1.0
C      1  0.4675310000000  0.4233010000000  0.4352090000000 1.0
C      1  0.4856890000000  0.5577540000000  0.4604420000000 1.0
C      1  0.5141580000000  0.5577110000000  0.5395220000000 1.0
C      1  0.4831540000000  0.5585960000000  0.5394490000000 1.0
C      1  0.5166960000000  0.5585850000000  0.4604600000000 1.0
C      1  0.4588450000000  0.4760300000000  0.3839500000000 1.0
C      1  0.5412310000000  0.4758900000000  0.6160960000000 1.0
C      1  0.4582070000000  0.4723770000000  0.6183060000000 1.0
C      1  0.5419080000000  0.4723250000000  0.3816520000000 1.0
C      1  0.5002840000000  0.4288490000000  0.6049750000000 1.0
C      1  0.4998070000000  0.4289320000000  0.3950210000000 1.0
END
