TITL C-1413370-9911-27 -2.53696839225587e-05 125000 -855.497678388543 0 0 152 (C5) n - 1
REM
REM in /home/nfs/bkarasulu/CARBON/AIRSS/Generating-Clusters/TERSOFF/Higher-Symm/FIRE-HFTN
REM
REM
REM
REM
REM
REM ./C.cell (b20cbc046b6831c77cfcea5457e17084)
REM AIRSS Version 0.9.1 bugfix July 2018 build 013d7b7c2542+ Fri, 06 Jul 2018 19:26:36 +0100
REM compiler GCC version 9.2.1 20190827 (Red Hat 9.2.1-1)
REM options -cpp -mtune=generic -march=x86-64 -g -O0 -fpre-include=/usr/include/finclude/math-vector-fortran.h
REM seed 653107963 -1975751082 -366097958 672818290 -61058704 -2112125174 -1191911266 811164628 172522694 910537402 742149992 2019575878 -315173454 -251002061 -969877177 433306888 204690614 -1609461160 316274697 -896418748 1366209663 -424292259 115416164 -1217098125 587718734 -1217514680 841884928 92670596 596912751 573862333 -2045233329 1995720340 -193334529
REM
CELL 1.54180   50.00000   50.00000   50.00000   90.00000   90.00000   90.00000
LATT -1
SFAC C  
C      1  0.4586060000000  0.5458810000000  0.4252840000000 1.0
C      1  0.5311840000000  0.5534810000000  0.4252840000000 1.0
C      1  0.5608400000000  0.4868040000000  0.4252840000000 1.0
C      1  0.5065900000000  0.4379950000000  0.4252840000000 1.0
C      1  0.4434060000000  0.4745070000000  0.4252840000000 1.0
C      1  0.4586070000000  0.5458810000000  0.5738510000000 1.0
C      1  0.5311840000000  0.5534810000000  0.5738510000000 1.0
C      1  0.5608400000000  0.4868030000000  0.5738510000000 1.0
C      1  0.5065900000000  0.4379950000000  0.5738510000000 1.0
C      1  0.4434060000000  0.4745070000000  0.5738510000000 1.0
C      1  0.4992230000000  0.4642110000000  0.5609310000000 1.0
C      1  0.4660630000000  0.4896150000000  0.5609310000000 1.0
C      1  0.4799760000000  0.5290020000000  0.5609310000000 1.0
C      1  0.5217350000000  0.5279410000000  0.5609310000000 1.0
C      1  0.5336300000000  0.4878980000000  0.5609310000000 1.0
C      1  0.4992230000000  0.4642110000000  0.4382040000000 1.0
C      1  0.4660630000000  0.4896150000000  0.4382040000000 1.0
C      1  0.4799760000000  0.5290020000000  0.4382040000000 1.0
C      1  0.5217350000000  0.5279410000000  0.4382040000000 1.0
C      1  0.5336300000000  0.4878980000000  0.4382040000000 1.0
C      1  0.5033540000000  0.5612680000000  0.5314320000000 1.0
C      1  0.5596460000000  0.5156780000000  0.5314320000000 1.0
C      1  0.5336830000000  0.4480530000000  0.5314320000000 1.0
C      1  0.4613440000000  0.4518480000000  0.5314320000000 1.0
C      1  0.4426000000000  0.5218200000000  0.5314320000000 1.0
C      1  0.5033540000000  0.5612690000000  0.4677030000000 1.0
C      1  0.5596460000000  0.5156780000000  0.4677030000000 1.0
C      1  0.5336820000000  0.4480530000000  0.4677030000000 1.0
C      1  0.4613440000000  0.4518490000000  0.4677030000000 1.0
C      1  0.4426000000000  0.5218200000000  0.4677030000000 1.0
C      1  0.4451200000000  0.5049080000000  0.6027750000000 1.0
C      1  0.4880490000000  0.5536450000000  0.6027750000000 1.0
C      1  0.5476670000000  0.5278790000000  0.6027750000000 1.0
C      1  0.5415840000000  0.4632160000000  0.6027740000000 1.0
C      1  0.4782070000000  0.4490190000000  0.6027750000000 1.0
C      1  0.4451200000000  0.5049080000000  0.3963610000000 1.0
C      1  0.4880490000000  0.5536460000000  0.3963610000000 1.0
C      1  0.5476670000000  0.5278790000000  0.3963610000000 1.0
C      1  0.5415840000000  0.4632160000000  0.3963610000000 1.0
C      1  0.4782070000000  0.4490200000000  0.3963610000000 1.0
C      1  0.4742740000000  0.5022010000000  0.6018650000000 1.0
C      1  0.4944830000000  0.5250820000000  0.6018650000000 1.0
C      1  0.5224900000000  0.5129320000000  0.6018650000000 1.0
C      1  0.5195890000000  0.4825420000000  0.6018650000000 1.0
C      1  0.4897900000000  0.4759100000000  0.6018650000000 1.0
C      1  0.4742740000000  0.5022010000000  0.3972700000000 1.0
C      1  0.4944830000000  0.5250820000000  0.3972700000000 1.0
C      1  0.5224900000000  0.5129330000000  0.3972700000000 1.0
C      1  0.5195890000000  0.4825420000000  0.3972700000000 1.0
C      1  0.4897900000000  0.4759100000000  0.3972700000000 1.0
C      1  0.6014600000000  0.5260200000000  0.4845950000000 1.0
C      1  0.5564400000000  0.4114820000000  0.4845950000000 1.0
C      1  0.4335950000000  0.4189040000000  0.4845950000000 1.0
C      1  0.4026930000000  0.5380300000000  0.4845950000000 1.0
C      1  0.5064390000000  0.6042320000000  0.4845950000000 1.0
C      1  0.6014600000000  0.5260200000000  0.5145410000000 1.0
C      1  0.5564400000000  0.4114820000000  0.5145400000000 1.0
C      1  0.4335950000000  0.4189040000000  0.5145410000000 1.0
C      1  0.4026930000000  0.5380300000000  0.5145410000000 1.0
C      1  0.5064390000000  0.6042320000000  0.5145410000000 1.0
C      1  0.4610760000000  0.4372890000000  0.5819940000000 1.0
C      1  0.4286700000000  0.5175760000000  0.5819940000000 1.0
C      1  0.4950130000000  0.5732050000000  0.5819940000000 1.0
C      1  0.5684210000000  0.5272990000000  0.5819930000000 1.0
C      1  0.5474470000000  0.4432990000000  0.5819930000000 1.0
C      1  0.4610760000000  0.4372890000000  0.4171420000000 1.0
C      1  0.4286700000000  0.5175760000000  0.4171420000000 1.0
C      1  0.4950130000000  0.5732050000000  0.4171420000000 1.0
C      1  0.5684210000000  0.5272990000000  0.4171420000000 1.0
C      1  0.5474460000000  0.4432990000000  0.4171420000000 1.0
C      1  0.4984920000000  0.4147010000000  0.5158590000000 1.0
C      1  0.4187500000000  0.4750110000000  0.5158590000000 1.0
C      1  0.4514660000000  0.5694870000000  0.5158590000000 1.0
C      1  0.5514280000000  0.5675660000000  0.5158590000000 1.0
C      1  0.5804910000000  0.4719030000000  0.5158590000000 1.0
C      1  0.4984920000000  0.4147010000000  0.4832760000000 1.0
C      1  0.4187500000000  0.4750110000000  0.4832770000000 1.0
C      1  0.4514660000000  0.5694870000000  0.4832770000000 1.0
C      1  0.5514280000000  0.5675660000000  0.4832770000000 1.0
C      1  0.5804910000000  0.4719030000000  0.4832760000000 1.0
C      1  0.4633040000000  0.4809540000000  0.4661190000000 1.0
C      1  0.4708870000000  0.5289490000000  0.4661190000000 1.0
C      1  0.5188760000000  0.5365690000000  0.4661190000000 1.0
C      1  0.5409520000000  0.4932840000000  0.4661190000000 1.0
C      1  0.5066070000000  0.4589120000000  0.4661190000000 1.0
C      1  0.4633040000000  0.4809540000000  0.5330160000000 1.0
C      1  0.4708870000000  0.5289490000000  0.5330160000000 1.0
C      1  0.5188760000000  0.5365690000000  0.5330160000000 1.0
C      1  0.5409520000000  0.4932840000000  0.5330160000000 1.0
C      1  0.5066070000000  0.4589110000000  0.5330160000000 1.0
C      1  0.4806600000000  0.6103450000000  0.5288070000000 1.0
C      1  0.5993080000000  0.5524270000000  0.5288070000000 1.0
C      1  0.5808890000000  0.4216880000000  0.5288070000000 1.0
C      1  0.4508570000000  0.3988060000000  0.5288070000000 1.0
C      1  0.3889130000000  0.5154020000000  0.5288070000000 1.0
C      1  0.4806600000000  0.6103450000000  0.4703280000000 1.0
C      1  0.5993080000000  0.5524270000000  0.4703280000000 1.0
C      1  0.5808890000000  0.4216880000000  0.4703280000000 1.0
C      1  0.4508570000000  0.3988060000000  0.4703280000000 1.0
C      1  0.3889130000000  0.5154020000000  0.4703280000000 1.0
C      1  0.5646240000000  0.5352700000000  0.4451260000000 1.0
C      1  0.5538530000000  0.4493730000000  0.4451260000000 1.0
C      1  0.4688320000000  0.4330730000000  0.4451260000000 1.0
C      1  0.4270570000000  0.5088960000000  0.4451260000000 1.0
C      1  0.4862600000000  0.5720570000000  0.4451260000000 1.0
C      1  0.5646240000000  0.5352700000000  0.5540090000000 1.0
C      1  0.5538530000000  0.4493730000000  0.5540090000000 1.0
C      1  0.4688320000000  0.4330730000000  0.5540090000000 1.0
C      1  0.4270570000000  0.5088960000000  0.5540090000000 1.0
C      1  0.4862600000000  0.5720570000000  0.5540090000000 1.0
C      1  0.4039490000000  0.4907010000000  0.4568130000000 1.0
C      1  0.4618150000000  0.5884110000000  0.4568130000000 1.0
C      1  0.5726240000000  0.5635720000000  0.4568130000000 1.0
C      1  0.5832420000000  0.4505100000000  0.4568130000000 1.0
C      1  0.4789950000000  0.4054740000000  0.4568130000000 1.0
C      1  0.4039490000000  0.4907010000000  0.5423220000000 1.0
C      1  0.4618150000000  0.5884110000000  0.5423220000000 1.0
C      1  0.5726240000000  0.5635720000000  0.5423220000000 1.0
C      1  0.5832420000000  0.4505100000000  0.5423220000000 1.0
C      1  0.4789960000000  0.4054740000000  0.5423220000000 1.0
C      1  0.5434620000000  0.5749380000000  0.4427450000000 1.0
C      1  0.5850400000000  0.4817580000000  0.4427450000000 1.0
C      1  0.5092690000000  0.4134200000000  0.4427450000000 1.0
C      1  0.4208620000000  0.4643640000000  0.4427450000000 1.0
C      1  0.4419930000000  0.5641880000000  0.4427450000000 1.0
C      1  0.5434620000000  0.5749380000000  0.5563900000000 1.0
C      1  0.5850410000000  0.4817580000000  0.5563900000000 1.0
C      1  0.5092700000000  0.4134190000000  0.5563900000000 1.0
C      1  0.4208620000000  0.4643640000000  0.5563900000000 1.0
C      1  0.4419940000000  0.5641880000000  0.5563900000000 1.0
C      1  0.4793970000000  0.5517620000000  0.5151190000000 1.0
C      1  0.5432020000000  0.5355250000000  0.5151190000000 1.0
C      1  0.5474770000000  0.4698250000000  0.5151190000000 1.0
C      1  0.4863130000000  0.4454570000000  0.5151190000000 1.0
C      1  0.4442370000000  0.4960970000000  0.5151190000000 1.0
C      1  0.4793970000000  0.5517620000000  0.4840160000000 1.0
C      1  0.5432020000000  0.5355250000000  0.4840160000000 1.0
C      1  0.5474770000000  0.4698250000000  0.4840160000000 1.0
C      1  0.4863130000000  0.4454570000000  0.4840160000000 1.0
C      1  0.4442370000000  0.4960970000000  0.4840160000000 1.0
C      1  0.4308230000000  0.4468300000000  0.5280980000000 1.0
C      1  0.4283950000000  0.5492960000000  0.5280980000000 1.0
C      1  0.5250960000000  0.5832690000000  0.5280980000000 1.0
C      1  0.5872890000000  0.5017980000000  0.5280980000000 1.0
C      1  0.5290240000000  0.4174740000000  0.5280980000000 1.0
C      1  0.4308230000000  0.4468300000000  0.4710370000000 1.0
C      1  0.4283950000000  0.5492960000000  0.4710370000000 1.0
C      1  0.5250960000000  0.5832690000000  0.4710370000000 1.0
C      1  0.5872890000000  0.5017980000000  0.4710370000000 1.0
C      1  0.5290240000000  0.4174740000000  0.4710370000000 1.0
C      1  0.5001250000000  0.4997340000000  0.4302370000000 1.0
C      1  0.5001250000000  0.4997330000000  0.5688980000000 1.0
END
