TITL C-1413367-9598-27 -0.000187183328027286 125000 -215.030655692721 0 0 37 (C2v) n - 1
REM
REM in /home/nfs/bkarasulu/CARBON/AIRSS/Generating-Clusters/TERSOFF/Higher-Symm/FIRE-HFTN
REM
REM
REM
REM
REM
REM ./C.cell (b20cbc046b6831c77cfcea5457e17084)
REM AIRSS Version 0.9.1 bugfix July 2018 build 013d7b7c2542+ Fri, 06 Jul 2018 19:26:36 +0100
REM compiler GCC version 9.2.1 20190827 (Red Hat 9.2.1-1)
REM options -cpp -mtune=generic -march=x86-64 -g -O0 -fpre-include=/usr/include/finclude/math-vector-fortran.h
REM seed -1877518740 -1920059853 363126896 -1723322695 -1510958502 132778007 -1227427757 546847660 -1744236126 -468584237 2128632728 272087077 1053508113 -1712817578 -1632604507 -2065329328 1079278754 -1775846998 1661937390 -436649813 -1795617169 1782743871 126577794 2059635822 311938093 804974794 1671229792 162566852 1939322019 -619529623 1730663261 -616968079 -1808444557
REM
CELL 1.54180   50.00000   50.00000   50.00000   90.00000   90.00000   90.00000
LATT -1
SFAC C  
C      1  0.5466350000000  0.5055320000000  0.4740140000000 1.0
C      1  0.4534380000000  0.5055310000000  0.5282170000000 1.0
C      1  0.5466350000000  0.5055310000000  0.5282170000000 1.0
C      1  0.4534380000000  0.5055310000000  0.4740140000000 1.0
C      1  0.4848740000000  0.5462000000000  0.5314620000000 1.0
C      1  0.5151980000000  0.5462010000000  0.4707700000000 1.0
C      1  0.4848740000000  0.5462000000000  0.4707700000000 1.0
C      1  0.5151980000000  0.5462010000000  0.5314620000000 1.0
C      1  0.5287400000000  0.5663230000000  0.5479980000000 1.0
C      1  0.4713320000000  0.5663220000000  0.4542340000000 1.0
C      1  0.5287400000000  0.5663230000000  0.4542340000000 1.0
C      1  0.4713320000000  0.5663220000000  0.5479980000000 1.0
C      1  0.5212360000000  0.4642370000000  0.5221140000000 1.0
C      1  0.4788370000000  0.4642370000000  0.4801180000000 1.0
C      1  0.5212360000000  0.4642370000000  0.4801180000000 1.0
C      1  0.4788370000000  0.4642370000000  0.5221140000000 1.0
C      1  0.5144030000000  0.5856740000000  0.4383320000000 1.0
C      1  0.4856690000000  0.5856740000000  0.5639000000000 1.0
C      1  0.5144030000000  0.5856740000000  0.5639000000000 1.0
C      1  0.4856690000000  0.5856740000000  0.4383320000000 1.0
C      1  0.4710320000000  0.4148260000000  0.4866290000000 1.0
C      1  0.5290410000000  0.4148260000000  0.5156030000000 1.0
C      1  0.4710320000000  0.4148260000000  0.5156030000000 1.0
C      1  0.5290410000000  0.4148260000000  0.4866290000000 1.0
C      1  0.4526430000000  0.4781180000000  0.4853970000000 1.0
C      1  0.5474300000000  0.4781180000000  0.5168340000000 1.0
C      1  0.4526430000000  0.4781180000000  0.5168340000000 1.0
C      1  0.5474300000000  0.4781190000000  0.4853970000000 1.0
C      1  0.5155810000000  0.4357780000000  0.5309560000000 1.0
C      1  0.4844920000000  0.4357780000000  0.4712760000000 1.0
C      1  0.5155810000000  0.4357780000000  0.4712760000000 1.0
C      1  0.4844920000000  0.4357780000000  0.5309560000000 1.0
C      1  0.5309620000000  0.5270720000000  0.4864900000000 1.0
C      1  0.4691110000000  0.5270720000000  0.5157420000000 1.0
C      1  0.5309620000000  0.5270720000000  0.5157420000000 1.0
C      1  0.4691110000000  0.5270720000000  0.4864900000000 1.0
C      1  0.5000360000000  0.4747080000000  0.5011160000000 1.0
END
