TITL C-1412433-647-11 3.96039198198304e-07 125000 -770.189310579389 0 0 157 (C5) n - 1
REM
REM in /home/nfs/bkarasulu/CARBON/AIRSS/Generating-Clusters/TERSOFF/Higher-Symm/FIRE-HFTN
REM
REM
REM
REM
REM
REM ./C.cell (b20cbc046b6831c77cfcea5457e17084)
REM AIRSS Version 0.9.1 bugfix July 2018 build 013d7b7c2542+ Fri, 06 Jul 2018 19:26:36 +0100
REM compiler GCC version 9.2.1 20190827 (Red Hat 9.2.1-1)
REM options -cpp -mtune=generic -march=x86-64 -g -O0 -fpre-include=/usr/include/finclude/math-vector-fortran.h
REM seed -1750687359 -671479541 -757791454 -967474904 1551441559 1910625726 212611972 1231918 -459129072 -1191667579 1407234610 385809170 -2037295306 1170596412 1066679523 1260147992 1769957293 1994388388 -475476421 1088564661 -1522564302 1078596589 51058742 1248770297 1597663607 -2026647165 833345830 987728717 -1271118656 885665869 -1052598719 -767959716 -1598752108
REM
CELL 1.54180   50.00000   50.00000   50.00000   90.00000   90.00000   90.00000
LATT -1
SFAC C  
C      1  0.5240450000000  0.4620070000000  0.5471050000000 1.0
C      1  0.5240450000000  0.4435220000000  0.4782280000000 1.0
C      1  0.5240450000000  0.5033160000000  0.4393640000000 1.0
C      1  0.5240450000000  0.5587550000000  0.4842210000000 1.0
C      1  0.5240450000000  0.5332250000000  0.5508090000000 1.0
C      1  0.4758530000000  0.4620070000000  0.5471050000000 1.0
C      1  0.4758530000000  0.4435220000000  0.4782280000000 1.0
C      1  0.4758530000000  0.5033160000000  0.4393640000000 1.0
C      1  0.4758530000000  0.5587550000000  0.4842210000000 1.0
C      1  0.4758530000000  0.5332250000000  0.5508090000000 1.0
C      1  0.4438520000000  0.5743490000000  0.4785880000000 1.0
C      1  0.4438520000000  0.5434010000000  0.5638990000000 1.0
C      1  0.4438520000000  0.4527020000000  0.5608280000000 1.0
C      1  0.4438520000000  0.4275960000000  0.4736190000000 1.0
C      1  0.4438520000000  0.5027770000000  0.4227920000000 1.0
C      1  0.5560460000000  0.5743490000000  0.4785880000000 1.0
C      1  0.5560460000000  0.5434010000000  0.5638990000000 1.0
C      1  0.5560460000000  0.4527020000000  0.5608280000000 1.0
C      1  0.5560460000000  0.4275960000000  0.4736190000000 1.0
C      1  0.5560460000000  0.5027770000000  0.4227920000000 1.0
C      1  0.4824540000000  0.5702310000000  0.5812060000000 1.0
C      1  0.4824540000000  0.4445330000000  0.5916920000000 1.0
C      1  0.4824540000000  0.3957170000000  0.4753880000000 1.0
C      1  0.4824540000000  0.4912440000000  0.3930210000000 1.0
C      1  0.4824540000000  0.5991000000000  0.4584200000000 1.0
C      1  0.5174440000000  0.5702310000000  0.5812060000000 1.0
C      1  0.5174440000000  0.4445330000000  0.5916920000000 1.0
C      1  0.5174440000000  0.3957170000000  0.4753880000000 1.0
C      1  0.5174440000000  0.4912440000000  0.3930210000000 1.0
C      1  0.5174440000000  0.5991000000000  0.4584200000000 1.0
C      1  0.4100720000000  0.5290680000000  0.4917880000000 1.0
C      1  0.4100720000000  0.5168550000000  0.5249130000000 1.0
C      1  0.4100720000000  0.4815770000000  0.5235340000000 1.0
C      1  0.4100720000000  0.4719870000000  0.4895560000000 1.0
C      1  0.4100720000000  0.5013380000000  0.4699360000000 1.0
C      1  0.5898260000000  0.5290680000000  0.4917880000000 1.0
C      1  0.5898260000000  0.5168550000000  0.5249130000000 1.0
C      1  0.5898260000000  0.4815770000000  0.5235340000000 1.0
C      1  0.5898260000000  0.4719870000000  0.4895560000000 1.0
C      1  0.5898260000000  0.5013380000000  0.4699360000000 1.0
C      1  0.5650160000000  0.5742310000000  0.5310170000000 1.0
C      1  0.5650160000000  0.4935020000000  0.5799880000000 1.0
C      1  0.5650160000000  0.4219810000000  0.5183430000000 1.0
C      1  0.5650160000000  0.4585080000000  0.4312730000000 1.0
C      1  0.5650160000000  0.5526030000000  0.4391060000000 1.0
C      1  0.4348820000000  0.5742310000000  0.5310170000000 1.0
C      1  0.4348820000000  0.4935020000000  0.5799880000000 1.0
C      1  0.4348820000000  0.4219810000000  0.5183430000000 1.0
C      1  0.4348820000000  0.4585080000000  0.4312730000000 1.0
C      1  0.4348820000000  0.5526030000000  0.4391060000000 1.0
C      1  0.4754010000000  0.4495670000000  0.4266180000000 1.0
C      1  0.4754010000000  0.5542680000000  0.4291640000000 1.0
C      1  0.4754010000000  0.5842000000000  0.5295280000000 1.0
C      1  0.4754010000000  0.4979990000000  0.5890090000000 1.0
C      1  0.4754010000000  0.4147910000000  0.5254080000000 1.0
C      1  0.5244970000000  0.4495670000000  0.4266180000000 1.0
C      1  0.5244970000000  0.5542680000000  0.4291640000000 1.0
C      1  0.5244970000000  0.5842000000000  0.5295280000000 1.0
C      1  0.5244970000000  0.4979990000000  0.5890090000000 1.0
C      1  0.5244970000000  0.4147910000000  0.5254080000000 1.0
C      1  0.5493180000000  0.4214760000000  0.5507480000000 1.0
C      1  0.5493180000000  0.4275320000000  0.4408070000000 1.0
C      1  0.5493180000000  0.5339650000000  0.4125930000000 1.0
C      1  0.5493180000000  0.5936870000000  0.5050970000000 1.0
C      1  0.5493180000000  0.5241650000000  0.5904820000000 1.0
C      1  0.4505800000000  0.4214760000000  0.5507480000000 1.0
C      1  0.4505800000000  0.4275320000000  0.4408070000000 1.0
C      1  0.4505800000000  0.5339650000000  0.4125930000000 1.0
C      1  0.4505800000000  0.5936870000000  0.5050970000000 1.0
C      1  0.4505800000000  0.5241650000000  0.5904820000000 1.0
C      1  0.5481910000000  0.4959130000000  0.5524600000000 1.0
C      1  0.5481910000000  0.4489060000000  0.5121290000000 1.0
C      1  0.5481910000000  0.4727380000000  0.4549600000000 1.0
C      1  0.5481910000000  0.5344730000000  0.4599590000000 1.0
C      1  0.5481910000000  0.5487960000000  0.5202180000000 1.0
C      1  0.4517070000000  0.4959130000000  0.5524600000000 1.0
C      1  0.4517070000000  0.4489060000000  0.5121290000000 1.0
C      1  0.4517070000000  0.4727380000000  0.4549600000000 1.0
C      1  0.4517070000000  0.5344730000000  0.4599590000000 1.0
C      1  0.4517070000000  0.5487960000000  0.5202180000000 1.0
C      1  0.5168820000000  0.4764600000000  0.5170540000000 1.0
C      1  0.5168820000000  0.4765680000000  0.4826880000000 1.0
C      1  0.5168820000000  0.5092860000000  0.4721710000000 1.0
C      1  0.5168820000000  0.5293990000000  0.5000370000000 1.0
C      1  0.5168820000000  0.5091110000000  0.5277770000000 1.0
C      1  0.4830160000000  0.4764600000000  0.5170540000000 1.0
C      1  0.4830160000000  0.4765680000000  0.4826880000000 1.0
C      1  0.4830160000000  0.5092860000000  0.4721710000000 1.0
C      1  0.4830160000000  0.5293990000000  0.5000370000000 1.0
C      1  0.4830160000000  0.5091110000000  0.5277770000000 1.0
C      1  0.5575640000000  0.5347620000000  0.4920810000000 1.0
C      1  0.5575640000000  0.5183350000000  0.5304190000000 1.0
C      1  0.5575640000000  0.4767980000000  0.5266430000000 1.0
C      1  0.5575640000000  0.4675530000000  0.4859720000000 1.0
C      1  0.5575640000000  0.5033770000000  0.4646120000000 1.0
C      1  0.4423340000000  0.5347620000000  0.4920810000000 1.0
C      1  0.4423340000000  0.5183350000000  0.5304190000000 1.0
C      1  0.4423340000000  0.4767980000000  0.5266430000000 1.0
C      1  0.4423340000000  0.4675530000000  0.4859720000000 1.0
C      1  0.4423340000000  0.5033770000000  0.4646120000000 1.0
C      1  0.4591700000000  0.4681170000000  0.5898940000000 1.0
C      1  0.4591700000000  0.4047160000000  0.4972620000000 1.0
C      1  0.4591700000000  0.4732220000000  0.4083380000000 1.0
C      1  0.4591700000000  0.5789630000000  0.4460130000000 1.0
C      1  0.4591700000000  0.5758080000000  0.5582200000000 1.0
C      1  0.5407280000000  0.4681170000000  0.5898940000000 1.0
C      1  0.5407280000000  0.4047160000000  0.4972620000000 1.0
C      1  0.5407280000000  0.4732220000000  0.4083380000000 1.0
C      1  0.5407280000000  0.5789630000000  0.4460130000000 1.0
C      1  0.5407280000000  0.5758080000000  0.5582200000000 1.0
C      1  0.5874990000000  0.5599500000000  0.4772040000000 1.0
C      1  0.5874990000000  0.5402680000000  0.5497770000000 1.0
C      1  0.5874990000000  0.4651650000000  0.5534850000000 1.0
C      1  0.5874990000000  0.4384310000000  0.4832030000000 1.0
C      1  0.5874990000000  0.4970110000000  0.4360590000000 1.0
C      1  0.4123990000000  0.5599500000000  0.4772040000000 1.0
C      1  0.4123990000000  0.5402680000000  0.5497770000000 1.0
C      1  0.4123990000000  0.4651650000000  0.5534850000000 1.0
C      1  0.4123990000000  0.4384310000000  0.4832030000000 1.0
C      1  0.4123990000000  0.4970110000000  0.4360590000000 1.0
C      1  0.5929190000000  0.5577710000000  0.4476850000000 1.0
C      1  0.5929190000000  0.5676680000000  0.5385830000000 1.0
C      1  0.5929190000000  0.4842790000000  0.5760840000000 1.0
C      1  0.5929190000000  0.4228430000000  0.5083650000000 1.0
C      1  0.5929190000000  0.4682640000000  0.4290100000000 1.0
C      1  0.4069790000000  0.5577710000000  0.4476850000000 1.0
C      1  0.4069790000000  0.5676680000000  0.5385830000000 1.0
C      1  0.4069790000000  0.4842790000000  0.5760840000000 1.0
C      1  0.4069790000000  0.4228430000000  0.5083650000000 1.0
C      1  0.4069790000000  0.4682640000000  0.4290100000000 1.0
C      1  0.4780080000000  0.6003560000000  0.4894510000000 1.0
C      1  0.4780080000000  0.5411070000000  0.5919900000000 1.0
C      1  0.4780080000000  0.4252770000000  0.5673260000000 1.0
C      1  0.4780080000000  0.4129400000000  0.4495450000000 1.0
C      1  0.4780080000000  0.5211450000000  0.4014150000000 1.0
C      1  0.5218900000000  0.6003560000000  0.4894510000000 1.0
C      1  0.5218900000000  0.5411070000000  0.5919900000000 1.0
C      1  0.5218900000000  0.4252770000000  0.5673260000000 1.0
C      1  0.5218900000000  0.4129400000000  0.4495450000000 1.0
C      1  0.5218900000000  0.5211450000000  0.4014150000000 1.0
C      1  0.4836950000000  0.5534140000000  0.5255750000000 1.0
C      1  0.4836950000000  0.4922450000000  0.5585080000000 1.0
C      1  0.4836950000000  0.4420210000000  0.5105100000000 1.0
C      1  0.4836950000000  0.4721500000000  0.4479110000000 1.0
C      1  0.4836950000000  0.5409950000000  0.4572220000000 1.0
C      1  0.5162030000000  0.5534140000000  0.5255750000000 1.0
C      1  0.5162030000000  0.4922450000000  0.5585080000000 1.0
C      1  0.5162030000000  0.4420210000000  0.5105100000000 1.0
C      1  0.5162030000000  0.4721500000000  0.4479110000000 1.0
C      1  0.5162030000000  0.5409950000000  0.4572220000000 1.0
C      1  0.4999490000000  0.5206930000000  0.4242480000000 1.0
C      1  0.4999490000000  0.4390640000000  0.5491200000000 1.0
C      1  0.4999490000000  0.5785010000000  0.4960760000000 1.0
C      1  0.4999490000000  0.4345160000000  0.4570310000000 1.0
C      1  0.4999490000000  0.5280520000000  0.5732510000000 1.0
C      1  0.5493690000000  0.5001650000000  0.4999450000000 1.0
C      1  0.4505290000000  0.5001650000000  0.4999450000000 1.0
END
