TITL C-1412437-7001-13 0.629334129546568 125000 -421.31429831048 0 0 74 (C1) n - 1
REM
REM in /home/nfs/bkarasulu/CARBON/AIRSS/Generating-Clusters/TERSOFF/Higher-Symm/FIRE-HFTN
REM
REM
REM
REM
REM
REM ./C.cell (b20cbc046b6831c77cfcea5457e17084)
REM AIRSS Version 0.9.1 bugfix July 2018 build 013d7b7c2542+ Fri, 06 Jul 2018 19:26:36 +0100
REM compiler GCC version 9.2.1 20190827 (Red Hat 9.2.1-1)
REM options -cpp -mtune=generic -march=x86-64 -g -O0 -fpre-include=/usr/include/finclude/math-vector-fortran.h
REM seed -1384669765 472165184 -577537248 482701393 -1886188217 -274954858 103039153 -955074596 1718244049 -869256642 1360806428 -1234475059 -1443285583 -1468732225 -35174142 929139663 -2029032037 -453433113 -464815309 1075208811 -979978296 1446740533 570912481 212823448 -2039388038 -1920862091 65222439 294985372 2045038942 -1543590867 -821832060 2081405862 -546843038
REM
CELL 1.54180   50.00000   50.00000   50.00000   90.00000   90.00000   90.00000
LATT -1
SFAC C  
C      1  0.4552930000000  0.4826790000000  0.4553130000000 1.0
C      1  0.4346260000000  0.5454640000000  0.4694440000000 1.0
C      1  0.5201280000000  0.4914240000000  0.5437680000000 1.0
C      1  0.5476380000000  0.5329830000000  0.5425200000000 1.0
C      1  0.5451210000000  0.4089030000000  0.5004870000000 1.0
C      1  0.4988450000000  0.5471490000000  0.5563290000000 1.0
C      1  0.5457400000000  0.4363370000000  0.4875110000000 1.0
C      1  0.4527240000000  0.4518390000000  0.4617150000000 1.0
C      1  0.5202260000000  0.5700090000000  0.5135170000000 1.0
C      1  0.4348160000000  0.4615180000000  0.5128000000000 1.0
C      1  0.5051920000000  0.4577560000000  0.4583310000000 1.0
C      1  0.4488900000000  0.4437510000000  0.4926900000000 1.0
C      1  0.5522150000000  0.4993260000000  0.4501650000000 1.0
C      1  0.5212170000000  0.5007030000000  0.4887440000000 1.0
C      1  0.4808140000000  0.4749820000000  0.4198240000000 1.0
C      1  0.5156750000000  0.4393490000000  0.4795900000000 1.0
C      1  0.4594230000000  0.4964650000000  0.5058110000000 1.0
C      1  0.4859170000000  0.5900040000000  0.4826010000000 1.0
C      1  0.4859180000000  0.4878040000000  0.4623020000000 1.0
C      1  0.4279740000000  0.5348640000000  0.4975120000000 1.0
C      1  0.4326440000000  0.5043800000000  0.4933570000000 1.0
C      1  0.5461350000000  0.5535130000000  0.5174430000000 1.0
C      1  0.4604530000000  0.5773300000000  0.4972640000000 1.0
C      1  0.5342980000000  0.5317800000000  0.4166180000000 1.0
C      1  0.5025670000000  0.4142230000000  0.4883440000000 1.0
C      1  0.4351890000000  0.5007800000000  0.4635630000000 1.0
C      1  0.4760990000000  0.5052400000000  0.4253880000000 1.0
C      1  0.4666960000000  0.4250670000000  0.5071780000000 1.0
C      1  0.5672330000000  0.4760660000000  0.4661460000000 1.0
C      1  0.4875790000000  0.5401010000000  0.4806530000000 1.0
C      1  0.5499500000000  0.4553750000000  0.5377590000000 1.0
C      1  0.5370800000000  0.4825680000000  0.5811430000000 1.0
C      1  0.5585440000000  0.4537650000000  0.5091670000000 1.0
C      1  0.5126970000000  0.5576920000000  0.4827940000000 1.0
C      1  0.4843120000000  0.5380660000000  0.5102180000000 1.0
C      1  0.4521360000000  0.5449440000000  0.5450230000000 1.0
C      1  0.5623160000000  0.5062610000000  0.5382190000000 1.0
C      1  0.4500790000000  0.4679560000000  0.5372760000000 1.0
C      1  0.5248910000000  0.5328970000000  0.5633150000000 1.0
C      1  0.4727530000000  0.5158930000000  0.5227780000000 1.0
C      1  0.4164730000000  0.4821750000000  0.5038040000000 1.0
C      1  0.4818080000000  0.5573900000000  0.4365930000000 1.0
C      1  0.5024390000000  0.4758910000000  0.5290740000000 1.0
C      1  0.4778600000000  0.4792420000000  0.4905600000000 1.0
C      1  0.4902240000000  0.4995530000000  0.5740270000000 1.0
C      1  0.5092860000000  0.4209680000000  0.5353690000000 1.0
C      1  0.5379950000000  0.5126430000000  0.3952190000000 1.0
C      1  0.4913860000000  0.5685510000000  0.5752700000000 1.0
C      1  0.5189250000000  0.5086030000000  0.5820240000000 1.0
C      1  0.4983970000000  0.5556050000000  0.5273760000000 1.0
C      1  0.5180160000000  0.4033430000000  0.5124150000000 1.0
C      1  0.5520180000000  0.5412440000000  0.4899810000000 1.0
C      1  0.5048240000000  0.4780230000000  0.5015340000000 1.0
C      1  0.5284720000000  0.4382680000000  0.5511340000000 1.0
C      1  0.4930350000000  0.5805760000000  0.4535790000000 1.0
C      1  0.4827320000000  0.4326320000000  0.5312450000000 1.0
C      1  0.5027970000000  0.5138440000000  0.4686820000000 1.0
C      1  0.4948440000000  0.5300210000000  0.4309080000000 1.0
C      1  0.4452690000000  0.5523900000000  0.5160800000000 1.0
C      1  0.5483670000000  0.5134410000000  0.4939350000000 1.0
C      1  0.5679480000000  0.5012410000000  0.5097830000000 1.0
C      1  0.5599480000000  0.4472030000000  0.4629440000000 1.0
C      1  0.5086840000000  0.5955090000000  0.5005780000000 1.0
C      1  0.4801430000000  0.4519550000000  0.4412690000000 1.0
C      1  0.4782880000000  0.4602780000000  0.5420590000000 1.0
C      1  0.4902750000000  0.4693380000000  0.5687430000000 1.0
C      1  0.4615740000000  0.5570570000000  0.4733630000000 1.0
C      1  0.5177040000000  0.4574090000000  0.5739360000000 1.0
C      1  0.5486720000000  0.4829460000000  0.5511520000000 1.0
C      1  0.5724920000000  0.4762730000000  0.4969480000000 1.0
C      1  0.4743240000000  0.5208630000000  0.5542620000000 1.0
C      1  0.5268780000000  0.5243030000000  0.4464120000000 1.0
C      1  0.4306290000000  0.5253840000000  0.4487950000000 1.0
C      1  0.5352290000000  0.5486320000000  0.4663220000000 1.0
END
