TITL C-1413369-9679-20 -2.99178138242203e-05 125000 -55.7442133090915 0 0 11 (C1) n - 1
REM
REM in /home/nfs/bkarasulu/CARBON/AIRSS/Generating-Clusters/TERSOFF/Higher-Symm/FIRE-HFTN
REM
REM
REM
REM
REM
REM ./C.cell (b20cbc046b6831c77cfcea5457e17084)
REM AIRSS Version 0.9.1 bugfix July 2018 build 013d7b7c2542+ Fri, 06 Jul 2018 19:26:36 +0100
REM compiler GCC version 9.2.1 20190827 (Red Hat 9.2.1-1)
REM options -cpp -mtune=generic -march=x86-64 -g -O0 -fpre-include=/usr/include/finclude/math-vector-fortran.h
REM seed 142941505 2092153190 -1640627376 1499770363 -630129961 1472535306 1049500017 -512579301 -1018207235 -1974291190 1487195217 2094514141 -656051055 14634594 1190667832 -291479084 -115755448 -1538918131 1819210546 825184019 1387602841 858756194 -1603481012 -1795461023 -280152831 1095224691 -1207825849 1433660096 1901955110 -1065933659 -285976008 -420292435 2101002711
REM
CELL 1.54180   50.00000   50.00000   50.00000   90.00000   90.00000   90.00000
LATT -1
SFAC C  
C      1  0.4920900000000  0.4947040000000  0.4552810000000 1.0
C      1  0.5361010000000  0.5072930000000  0.5176280000000 1.0
C      1  0.4892540000000  0.4723980000000  0.5362960000000 1.0
C      1  0.5372870000000  0.5304390000000  0.5351880000000 1.0
C      1  0.5119530000000  0.5055440000000  0.4733280000000 1.0
C      1  0.4618960000000  0.5043850000000  0.5086270000000 1.0
C      1  0.5118990000000  0.5019130000000  0.5021780000000 1.0
C      1  0.4493270000000  0.5019830000000  0.4826660000000 1.0
C      1  0.4635570000000  0.4989570000000  0.4576440000000 1.0
C      1  0.4876420000000  0.4928840000000  0.5157230000000 1.0
C      1  0.5589940000000  0.4895000000000  0.5154410000000 1.0
END
