TITL C-1412436-1289-6 119.650095289624 125000 -96.1639574836523 0 0 19 (C1) n - 1
REM
REM in /home/nfs/bkarasulu/CARBON/AIRSS/Generating-Clusters/TERSOFF/Higher-Symm/FIRE-HFTN
REM
REM
REM
REM
REM
REM ./C.cell (b20cbc046b6831c77cfcea5457e17084)
REM AIRSS Version 0.9.1 bugfix July 2018 build 013d7b7c2542+ Fri, 06 Jul 2018 19:26:36 +0100
REM compiler GCC version 9.2.1 20190827 (Red Hat 9.2.1-1)
REM options -cpp -mtune=generic -march=x86-64 -g -O0 -fpre-include=/usr/include/finclude/math-vector-fortran.h
REM seed -731372650 -1835358725 1306890930 1893346033 2083957413 -1789093472 1474248797 -9891356 -786954268 -282773466 769990612 1710216191 2039951334 67052345 335618113 -1888398489 1201931891 1720295331 -1090728935 -35481663 -628467793 -89354752 1027345409 401631570 -1707873547 -1814141657 790803972 -2128973180 -1234023161 855987762 2118093511 819285994 -2088903079
REM
CELL 1.54180   50.00000   50.00000   50.00000   90.00000   90.00000   90.00000
LATT -1
SFAC C  
C      1  0.5370080000000  0.4917450000000  0.5242610000000 1.0
C      1  0.5457470000000  0.4876710000000  0.4957260000000 1.0
C      1  0.5287490000000  0.4813120000000  0.4720350000000 1.0
C      1  0.5131240000000  0.5010020000000  0.4563440000000 1.0
C      1  0.4850980000000  0.4972170000000  0.4474070000000 1.0
C      1  0.4629880000000  0.4897740000000  0.4649130000000 1.0
C      1  0.4681830000000  0.4819280000000  0.4921740000000 1.0
C      1  0.4508530000000  0.4872390000000  0.5145180000000 1.0
C      1  0.4615510000000  0.4928510000000  0.5409600000000 1.0
C      1  0.4900710000000  0.4976750000000  0.5468550000000 1.0
C      1  0.5124320000000  0.4811590000000  0.5369140000000 1.0
C      1  0.5093030000000  0.5084700000000  0.4974970000000 1.0
C      1  0.4957650000000  0.5340140000000  0.4989050000000 1.0
C      1  0.4999710000000  0.4312260000000  0.4992830000000 1.0
C      1  0.5149760000000  0.4067010000000  0.5026190000000 1.0
C      1  0.4959980000000  0.5853010000000  0.4978150000000 1.0
C      1  0.5090420000000  0.5596520000000  0.5009440000000 1.0
C      1  0.5110110000000  0.4578430000000  0.5020100000000 1.0
C      1  0.4960040000000  0.4825160000000  0.4982900000000 1.0
END
