TITL C-1412435-419-7 -0.00184893940451493 125000 -744.690883218172 0 0 125 (C4) n - 1
REM
REM in /home/nfs/bkarasulu/CARBON/AIRSS/Generating-Clusters/TERSOFF/Higher-Symm/FIRE-HFTN
REM
REM
REM
REM
REM
REM ./C.cell (b20cbc046b6831c77cfcea5457e17084)
REM AIRSS Version 0.9.1 bugfix July 2018 build 013d7b7c2542+ Fri, 06 Jul 2018 19:26:36 +0100
REM compiler GCC version 9.2.1 20190827 (Red Hat 9.2.1-1)
REM options -cpp -mtune=generic -march=x86-64 -g -O0 -fpre-include=/usr/include/finclude/math-vector-fortran.h
REM seed -973846991 1411616347 -1490483714 2120675198 -497586880 -177285070 1471182743 1901832530 1657797143 2137173814 -1034770281 647007038 -429373495 -2084020585 -471410939 -82639111 -800880975 -807056536 -732378071 -778001314 881185407 801735351 -742500117 -924431084 1212043941 -1595038440 372553411 1587160833 461529925 -1332741069 870580253 -267585596 1269652653
REM
CELL 1.54180   50.00000   50.00000   50.00000   90.00000   90.00000   90.00000
LATT -1
SFAC C  
C      1  0.5472270000000  0.5825890000000  0.5623340000000 1.0
C      1  0.5472270000000  0.4377430000000  0.5821250000000 1.0
C      1  0.5472270000000  0.4179520000000  0.4372800000000 1.0
C      1  0.5472270000000  0.5627980000000  0.4174890000000 1.0
C      1  0.5917080000000  0.4875010000000  0.4807990000000 1.0
C      1  0.5917090000000  0.5192780000000  0.4870380000000 1.0
C      1  0.5917090000000  0.5130400000000  0.5188150000000 1.0
C      1  0.5917090000000  0.4812620000000  0.5125760000000 1.0
C      1  0.4945570000000  0.5106160000000  0.4634970000000 1.0
C      1  0.4945570000000  0.5365810000000  0.5101520000000 1.0
C      1  0.4945570000000  0.4899250000000  0.5361170000000 1.0
C      1  0.4945570000000  0.4639600000000  0.4894620000000 1.0
C      1  0.4938730000000  0.4235720000000  0.5406220000000 1.0
C      1  0.4938730000000  0.4594560000000  0.4231080000000 1.0
C      1  0.4938730000000  0.5769690000000  0.4589920000000 1.0
C      1  0.4938730000000  0.5410850000000  0.5765060000000 1.0
C      1  0.4233540000000  0.4542410000000  0.4479910000000 1.0
C      1  0.4233540000000  0.5520870000000  0.4537780000000 1.0
C      1  0.4233540000000  0.5462990000000  0.5516230000000 1.0
C      1  0.4233540000000  0.4484540000000  0.5458360000000 1.0
C      1  0.5337710000000  0.3960960000000  0.5296020000000 1.0
C      1  0.5337710000000  0.4704750000000  0.3956320000000 1.0
C      1  0.5337710000000  0.6044450000000  0.4700120000000 1.0
C      1  0.5337710000000  0.5300660000000  0.6039820000000 1.0
C      1  0.5488870000000  0.4866660000000  0.4808890000000 1.0
C      1  0.5488870000000  0.5191880000000  0.4862020000000 1.0
C      1  0.5488870000000  0.5138750000000  0.5187250000000 1.0
C      1  0.5488870000000  0.4813520000000  0.5134120000000 1.0
C      1  0.5233280000000  0.5590130000000  0.3978820000000 1.0
C      1  0.5233280000000  0.6021960000000  0.5585490000000 1.0
C      1  0.5233280000000  0.4415280000000  0.6017320000000 1.0
C      1  0.5233280000000  0.3983450000000  0.4410650000000 1.0
C      1  0.5477710000000  0.5861920000000  0.4879960000000 1.0
C      1  0.5477710000000  0.5120820000000  0.5857280000000 1.0
C      1  0.5477710000000  0.4143490000000  0.5116180000000 1.0
C      1  0.5477710000000  0.4884590000000  0.4138860000000 1.0
C      1  0.5128760000000  0.5563470000000  0.4540030000000 1.0
C      1  0.5128760000000  0.5460740000000  0.5558830000000 1.0
C      1  0.5128760000000  0.4441940000000  0.5456110000000 1.0
C      1  0.5128760000000  0.4544660000000  0.4437310000000 1.0
C      1  0.5055850000000  0.5358780000000  0.6021590000000 1.0
C      1  0.5055850000000  0.3979190000000  0.5354140000000 1.0
C      1  0.5055850000000  0.4646630000000  0.3974550000000 1.0
C      1  0.5055850000000  0.6026220000000  0.4642000000000 1.0
C      1  0.5380780000000  0.5667820000000  0.4446820000000 1.0
C      1  0.5380780000000  0.5553950000000  0.5663190000000 1.0
C      1  0.5380780000000  0.4337590000000  0.5549320000000 1.0
C      1  0.5380780000000  0.4451460000000  0.4332950000000 1.0
C      1  0.3713920000000  0.5118290000000  0.4788550000000 1.0
C      1  0.3713920000000  0.5212230000000  0.5113660000000 1.0
C      1  0.3713920000000  0.4887120000000  0.5207590000000 1.0
C      1  0.3713920000000  0.4793180000000  0.4882480000000 1.0
C      1  0.4674380000000  0.5063310000000  0.4707550000000 1.0
C      1  0.4674380000000  0.5293220000000  0.5058680000000 1.0
C      1  0.4674380000000  0.4942100000000  0.5288590000000 1.0
C      1  0.4674380000000  0.4712190000000  0.4937460000000 1.0
C      1  0.4691180000000  0.4453440000000  0.4269160000000 1.0
C      1  0.4691180000000  0.5731620000000  0.4448810000000 1.0
C      1  0.4691180000000  0.5551970000000  0.5726980000000 1.0
C      1  0.4691180000000  0.4273790000000  0.5547330000000 1.0
C      1  0.4048490000000  0.4887610000000  0.5206510000000 1.0
C      1  0.4048490000000  0.4794270000000  0.4882970000000 1.0
C      1  0.4048490000000  0.5117800000000  0.4789630000000 1.0
C      1  0.4048490000000  0.5211140000000  0.5113170000000 1.0
C      1  0.5782230000000  0.4689910000000  0.5559060000000 1.0
C      1  0.5782230000000  0.4441710000000  0.4685280000000 1.0
C      1  0.5782230000000  0.5315500000000  0.4437080000000 1.0
C      1  0.5782230000000  0.5563700000000  0.5310860000000 1.0
C      1  0.4975310000000  0.4273530000000  0.5979220000000 1.0
C      1  0.4975310000000  0.4021560000000  0.4268890000000 1.0
C      1  0.4975310000000  0.5731880000000  0.4016920000000 1.0
C      1  0.4975310000000  0.5983850000000  0.5727250000000 1.0
C      1  0.4756960000000  0.4411950000000  0.5819440000000 1.0
C      1  0.4756960000000  0.4181340000000  0.4407320000000 1.0
C      1  0.4756960000000  0.5593460000000  0.4176700000000 1.0
C      1  0.4756960000000  0.5824070000000  0.5588830000000 1.0
C      1  0.4224870000000  0.5231130000000  0.4582180000000 1.0
C      1  0.4224870000000  0.5418590000000  0.5226490000000 1.0
C      1  0.4224870000000  0.4774280000000  0.5413960000000 1.0
C      1  0.4224870000000  0.4586810000000  0.4769650000000 1.0
C      1  0.4708480000000  0.5042870000000  0.4094640000000 1.0
C      1  0.4708480000000  0.5906140000000  0.5038240000000 1.0
C      1  0.4708480000000  0.4962540000000  0.5901500000000 1.0
C      1  0.4708480000000  0.4099270000000  0.4957900000000 1.0
C      1  0.5024760000000  0.5300080000000  0.4446060000000 1.0
C      1  0.5024760000000  0.5554710000000  0.5295450000000 1.0
C      1  0.5024760000000  0.4705330000000  0.5550080000000 1.0
C      1  0.5024760000000  0.4450700000000  0.4700690000000 1.0
C      1  0.5706010000000  0.4627600000000  0.5268250000000 1.0
C      1  0.5706010000000  0.4732520000000  0.4622960000000 1.0
C      1  0.5706010000000  0.5377810000000  0.4727890000000 1.0
C      1  0.5706010000000  0.5272890000000  0.5373180000000 1.0
C      1  0.5426730000000  0.5167560000000  0.4111230000000 1.0
C      1  0.5426730000000  0.5889540000000  0.5162930000000 1.0
C      1  0.5426730000000  0.4837840000000  0.5884910000000 1.0
C      1  0.5426730000000  0.4115870000000  0.4833210000000 1.0
C      1  0.5614850000000  0.5367800000000  0.4205300000000 1.0
C      1  0.5614850000000  0.5795480000000  0.5363160000000 1.0
C      1  0.5614850000000  0.4637610000000  0.5790840000000 1.0
C      1  0.5614850000000  0.4209930000000  0.4632980000000 1.0
C      1  0.4893710000000  0.5278630000000  0.4165190000000 1.0
C      1  0.4893710000000  0.5835580000000  0.5274000000000 1.0
C      1  0.4893710000000  0.4726770000000  0.5830950000000 1.0
C      1  0.4893710000000  0.4169830000000  0.4722140000000 1.0
C      1  0.4454120000000  0.4310880000000  0.5371590000000 1.0
C      1  0.4454120000000  0.4629180000000  0.4306240000000 1.0
C      1  0.4454120000000  0.5694530000000  0.4624550000000 1.0
C      1  0.4454120000000  0.5376220000000  0.5689900000000 1.0
C      1  0.4500490000000  0.4281050000000  0.5071910000000 1.0
C      1  0.4500490000000  0.4928870000000  0.4276420000000 1.0
C      1  0.4500490000000  0.5724360000000  0.4924240000000 1.0
C      1  0.4500490000000  0.5076540000000  0.5719720000000 1.0
C      1  0.5703110000000  0.4323590000000  0.5210970000000 1.0
C      1  0.5703110000000  0.4789800000000  0.4318960000000 1.0
C      1  0.5703110000000  0.5681820000000  0.4785170000000 1.0
C      1  0.5703110000000  0.5215600000000  0.5677180000000 1.0
C      1  0.5169200000000  0.4008040000000  0.4709390000000 1.0
C      1  0.5169200000000  0.5291390000000  0.4003410000000 1.0
C      1  0.5169200000000  0.5997360000000  0.5286750000000 1.0
C      1  0.5169200000000  0.4714020000000  0.5992730000000 1.0
C      1  0.4465580000000  0.4522230000000  0.4920660000000 1.0
C      1  0.4465580000000  0.5080120000000  0.4517600000000 1.0
C      1  0.4465580000000  0.5483180000000  0.5075480000000 1.0
C      1  0.4465580000000  0.4925290000000  0.5478540000000 1.0
C      1  0.4605390000000  0.5002700000000  0.4998070000000 1.0
END
