TITL C-1413369-9679-5 0.816540420694974 125000 -1010.62695760271 0 0 175 (C1) n - 1
REM
REM in /home/nfs/bkarasulu/CARBON/AIRSS/Generating-Clusters/TERSOFF/Higher-Symm/FIRE-HFTN
REM
REM
REM
REM
REM
REM ./C.cell (b20cbc046b6831c77cfcea5457e17084)
REM AIRSS Version 0.9.1 bugfix July 2018 build 013d7b7c2542+ Fri, 06 Jul 2018 19:26:36 +0100
REM compiler GCC version 9.2.1 20190827 (Red Hat 9.2.1-1)
REM options -cpp -mtune=generic -march=x86-64 -g -O0 -fpre-include=/usr/include/finclude/math-vector-fortran.h
REM seed -1957422510 -597079533 -833682556 1337989657 1242334221 2025045488 605543922 70738954 -429104056 1204750038 -192220590 -486482576 -298587379 1651919107 -1601531171 352559613 2057155984 -447458879 250434828 -2086522851 1125009406 1413798784 76630524 -1710501048 978411198 1634929671 -292641021 -328244649 1211079767 -1392107003 -995368033 215494553 -870024125
REM
CELL 1.54180   50.00000   50.00000   50.00000   90.00000   90.00000   90.00000
LATT -1
SFAC C  
C      1  0.5121360000000  0.3975410000000  0.4458550000000 1.0
C      1  0.4456520000000  0.3968030000000  0.5160820000000 1.0
C      1  0.5413240000000  0.3975240000000  0.5379190000000 1.0
C      1  0.4990790000000  0.5335430000000  0.3987630000000 1.0
C      1  0.4147200000000  0.5321790000000  0.5518570000000 1.0
C      1  0.5863090000000  0.5333670000000  0.5476570000000 1.0
C      1  0.5676790000000  0.4715240000000  0.5820360000000 1.0
C      1  0.5380860000000  0.4695390000000  0.3980390000000 1.0
C      1  0.3940770000000  0.4707750000000  0.5174190000000 1.0
C      1  0.4831980000000  0.4687460000000  0.5500540000000 1.0
C      1  0.5516930000000  0.4698920000000  0.4887920000000 1.0
C      1  0.4646060000000  0.4685620000000  0.4612910000000 1.0
C      1  0.4734450000000  0.4808370000000  0.4003520000000 1.0
C      1  0.4272310000000  0.4803400000000  0.5728790000000 1.0
C      1  0.5983120000000  0.4813880000000  0.5258500000000 1.0
C      1  0.5776320000000  0.5552210000000  0.4485630000000 1.0
C      1  0.4217850000000  0.5563890000000  0.4584630000000 1.0
C      1  0.5030530000000  0.5560330000000  0.5908680000000 1.0
C      1  0.4381660000000  0.5188600000000  0.5125740000000 1.0
C      1  0.5414310000000  0.5198310000000  0.5474950000000 1.0
C      1  0.5221990000000  0.5190830000000  0.4381360000000 1.0
C      1  0.4557890000000  0.6064750000000  0.5232900000000 1.0
C      1  0.5420720000000  0.6078000000000  0.5283950000000 1.0
C      1  0.5064790000000  0.6061290000000  0.4492930000000 1.0
C      1  0.5321950000000  0.4307680000000  0.5139400000000 1.0
C      1  0.4970910000000  0.4317890000000  0.4649480000000 1.0
C      1  0.4709870000000  0.4298520000000  0.5214550000000 1.0
C      1  0.5451680000000  0.5145880000000  0.6055040000000 1.0
C      1  0.5689770000000  0.5128760000000  0.4045010000000 1.0
C      1  0.3863560000000  0.5149120000000  0.4864420000000 1.0
C      1  0.5263940000000  0.5513770000000  0.5733850000000 1.0
C      1  0.5511730000000  0.5494590000000  0.4371000000000 1.0
C      1  0.4245370000000  0.5513190000000  0.4874140000000 1.0
C      1  0.4583090000000  0.5912960000000  0.4966490000000 1.0
C      1  0.5174590000000  0.5938340000000  0.5425910000000 1.0
C      1  0.5274140000000  0.5887560000000  0.4632310000000 1.0
C      1  0.5033640000000  0.5105720000000  0.6087820000000 1.0
C      1  0.5938920000000  0.5098340000000  0.4420130000000 1.0
C      1  0.4050440000000  0.5115220000000  0.4489400000000 1.0
C      1  0.4956430000000  0.4837290000000  0.4240700000000 1.0
C      1  0.4379410000000  0.4833290000000  0.5423390000000 1.0
C      1  0.5665140000000  0.4847750000000  0.5316140000000 1.0
C      1  0.4166540000000  0.5357130000000  0.4386980000000 1.0
C      1  0.4886520000000  0.5349940000000  0.6048950000000 1.0
C      1  0.5969250000000  0.5348870000000  0.4558390000000 1.0
C      1  0.5272870000000  0.5375370000000  0.3918880000000 1.0
C      1  0.3954600000000  0.5370550000000  0.5302170000000 1.0
C      1  0.5777880000000  0.5377090000000  0.5754520000000 1.0
C      1  0.4389240000000  0.4745830000000  0.5088830000000 1.0
C      1  0.5374390000000  0.4755680000000  0.5479010000000 1.0
C      1  0.5238120000000  0.4759370000000  0.4428110000000 1.0
C      1  0.4827780000000  0.5094020000000  0.3865050000000 1.0
C      1  0.4109970000000  0.5086450000000  0.5721990000000 1.0
C      1  0.6058370000000  0.5099510000000  0.5400540000000 1.0
C      1  0.4822270000000  0.4086810000000  0.4779180000000 1.0
C      1  0.4897960000000  0.4075170000000  0.5278360000000 1.0
C      1  0.5289080000000  0.4080380000000  0.4950660000000 1.0
C      1  0.4889530000000  0.6017840000000  0.4953640000000 1.0
C      1  0.5009730000000  0.6126800000000  0.5213080000000 1.0
C      1  0.5070200000000  0.5826180000000  0.4840910000000 1.0
C      1  0.5135570000000  0.4485100000000  0.4809650000000 1.0
C      1  0.4755770000000  0.4447350000000  0.4984070000000 1.0
C      1  0.5098720000000  0.4450990000000  0.5226420000000 1.0
C      1  0.4608070000000  0.4481330000000  0.5411360000000 1.0
C      1  0.5541840000000  0.4493090000000  0.5128080000000 1.0
C      1  0.4847600000000  0.4497780000000  0.4461550000000 1.0
C      1  0.4817290000000  0.4636340000000  0.6232930000000 1.0
C      1  0.6159140000000  0.4637810000000  0.4539530000000 1.0
C      1  0.4026560000000  0.4648710000000  0.4223490000000 1.0
C      1  0.5327790000000  0.4097180000000  0.4657710000000 1.0
C      1  0.4540280000000  0.4100610000000  0.4885540000000 1.0
C      1  0.5136230000000  0.4099480000000  0.5453190000000 1.0
C      1  0.4461650000000  0.4779690000000  0.5944810000000 1.0
C      1  0.6077540000000  0.4788080000000  0.4988070000000 1.0
C      1  0.4454280000000  0.4789650000000  0.4063710000000 1.0
C      1  0.5317250000000  0.4383580000000  0.5840470000000 1.0
C      1  0.5574040000000  0.4375430000000  0.4300110000000 1.0
C      1  0.4111710000000  0.4384050000000  0.4848860000000 1.0
C      1  0.4087070000000  0.4446970000000  0.5153450000000 1.0
C      1  0.5588630000000  0.4454090000000  0.5705240000000 1.0
C      1  0.5322210000000  0.4440540000000  0.4127990000000 1.0
C      1  0.4645300000000  0.4710200000000  0.4923510000000 1.0
C      1  0.5100700000000  0.4718940000000  0.5343280000000 1.0
C      1  0.5247520000000  0.4744130000000  0.4734490000000 1.0
C      1  0.5015060000000  0.4406050000000  0.4172070000000 1.0
C      1  0.4270660000000  0.4401990000000  0.5403300000000 1.0
C      1  0.5708150000000  0.4411810000000  0.5420410000000 1.0
C      1  0.4568680000000  0.5627250000000  0.5445090000000 1.0
C      1  0.5579640000000  0.5637350000000  0.5148930000000 1.0
C      1  0.4847900000000  0.5634980000000  0.4410200000000 1.0
C      1  0.5289280000000  0.4598930000000  0.6053760000000 1.0
C      1  0.5771850000000  0.4590990000000  0.4214950000000 1.0
C      1  0.3942620000000  0.4602630000000  0.4720280000000 1.0
C      1  0.4452670000000  0.6333670000000  0.5254850000000 1.0
C      1  0.5515190000000  0.6341780000000  0.5358060000000 1.0
C      1  0.5114170000000  0.6325840000000  0.4386400000000 1.0
C      1  0.4403800000000  0.4752910000000  0.4491270000000 1.0
C      1  0.4853890000000  0.4751370000000  0.5772640000000 1.0
C      1  0.5744670000000  0.4751830000000  0.4732750000000 1.0
C      1  0.5545230000000  0.5918120000000  0.5071120000000 1.0
C      1  0.4804410000000  0.5920810000000  0.4482260000000 1.0
C      1  0.4652250000000  0.5907190000000  0.5463090000000 1.0
C      1  0.4019250000000  0.4912110000000  0.4083660000000 1.0
C      1  0.4696420000000  0.4896150000000  0.6314890000000 1.0
C      1  0.6286020000000  0.4900190000000  0.4602600000000 1.0
C      1  0.5461490000000  0.4846220000000  0.5986420000000 1.0
C      1  0.5624000000000  0.4833270000000  0.4091720000000 1.0
C      1  0.3912890000000  0.4846980000000  0.4906820000000 1.0
C      1  0.5296050000000  0.5452860000000  0.5162630000000 1.0
C      1  0.4987780000000  0.5423200000000  0.4666000000000 1.0
C      1  0.4715120000000  0.5435320000000  0.5191160000000 1.0
C      1  0.4421790000000  0.4294470000000  0.4420440000000 1.0
C      1  0.4788780000000  0.4289220000000  0.5789020000000 1.0
C      1  0.5791680000000  0.4289050000000  0.4784980000000 1.0
C      1  0.4229290000000  0.4956890000000  0.4939490000000 1.0
C      1  0.5329230000000  0.4961420000000  0.5698160000000 1.0
C      1  0.5459120000000  0.4953550000000  0.4349120000000 1.0
C      1  0.4760310000000  0.4990830000000  0.4942830000000 1.0
C      1  0.5066020000000  0.4998440000000  0.5230400000000 1.0
C      1  0.5161330000000  0.5021480000000  0.4822220000000 1.0
C      1  0.5098130000000  0.4589100000000  0.6268940000000 1.0
C      1  0.6053460000000  0.4586800000000  0.4277050000000 1.0
C      1  0.3853490000000  0.4597490000000  0.4446540000000 1.0
C      1  0.5828630000000  0.5569690000000  0.5302810000000 1.0
C      1  0.4857410000000  0.5571070000000  0.4112140000000 1.0
C      1  0.4312830000000  0.5555530000000  0.5582020000000 1.0
C      1  0.4379900000000  0.5261970000000  0.4206880000000 1.0
C      1  0.4626650000000  0.5252200000000  0.5947880000000 1.0
C      1  0.6001260000000  0.5260880000000  0.4839170000000 1.0
C      1  0.5969580000000  0.4549600000000  0.5398970000000 1.0
C      1  0.4863320000000  0.4539680000000  0.3954150000000 1.0
C      1  0.4158130000000  0.4538430000000  0.5642160000000 1.0
C      1  0.5723320000000  0.4926030000000  0.4498650000000 1.0
C      1  0.4218680000000  0.4931570000000  0.4631720000000 1.0
C      1  0.5068940000000  0.4930210000000  0.5863190000000 1.0
C      1  0.5254340000000  0.5633550000000  0.5450350000000 1.0
C      1  0.5268300000000  0.5598340000000  0.4521800000000 1.0
C      1  0.4501020000000  0.5620110000000  0.5011150000000 1.0
C      1  0.5568020000000  0.4246540000000  0.4570070000000 1.0
C      1  0.4348080000000  0.4253480000000  0.4719940000000 1.0
C      1  0.5088640000000  0.4249350000000  0.5703440000000 1.0
C      1  0.5769160000000  0.4881660000000  0.5613110000000 1.0
C      1  0.5150920000000  0.4858380000000  0.3993140000000 1.0
C      1  0.4070700000000  0.4866960000000  0.5366220000000 1.0
C      1  0.4013530000000  0.5355640000000  0.5013130000000 1.0
C      1  0.5501110000000  0.5355820000000  0.5854150000000 1.0
C      1  0.5497740000000  0.5344240000000  0.4104570000000 1.0
C      1  0.5506440000000  0.5985250000000  0.4787670000000 1.0
C      1  0.4584790000000  0.5993430000000  0.4665730000000 1.0
C      1  0.4908590000000  0.5968340000000  0.5588440000000 1.0
C      1  0.4322580000000  0.4570470000000  0.4262190000000 1.0
C      1  0.4702140000000  0.4562210000000  0.5956420000000 1.0
C      1  0.5976490000000  0.4561000000000  0.4776900000000 1.0
C      1  0.5668290000000  0.4129840000000  0.5296000000000 1.0
C      1  0.4924760000000  0.4128710000000  0.4277590000000 1.0
C      1  0.4398310000000  0.4118300000000  0.5429940000000 1.0
C      1  0.4660500000000  0.5268830000000  0.4326460000000 1.0
C      1  0.4603780000000  0.5259440000000  0.5644360000000 1.0
C      1  0.5748820000000  0.5278500000000  0.5011250000000 1.0
C      1  0.4884080000000  0.6286220000000  0.4798130000000 1.0
C      1  0.5038430000000  0.6422010000000  0.5213950000000 1.0
C      1  0.4964140000000  0.6527550000000  0.4948720000000 1.0
C      1  0.4929010000000  0.5112400000000  0.4337760000000 1.0
C      1  0.4487980000000  0.5105900000000  0.5401890000000 1.0
C      1  0.5593980000000  0.5122090000000  0.5233430000000 1.0
C      1  0.4772680000000  0.5182300000000  0.4720800000000 1.0
C      1  0.4892030000000  0.5204980000000  0.5345290000000 1.0
C      1  0.5343450000000  0.5232820000000  0.4915340000000 1.0
C      1  0.4621080000000  0.4093810000000  0.4294330000000 1.0
C      1  0.4576820000000  0.4085400000000  0.5680810000000 1.0
C      1  0.5802320000000  0.4091050000000  0.5023140000000 1.0
C      1  0.4290810000000  0.5031860000000  0.4041570000000 1.0
C      1  0.4525350000000  0.5019530000000  0.6102200000000 1.0
C      1  0.6183210000000  0.5026020000000  0.4854410000000 1.0
C      1  0.4997010000000  0.5450540000000  0.5010000000000 1.0
END
