TITL C-1412436-1289-21 0.000526094512216551 125000 -230.531741595959 0 0 41 (C1) n - 1
REM
REM in /home/nfs/bkarasulu/CARBON/AIRSS/Generating-Clusters/TERSOFF/Higher-Symm/FIRE-HFTN
REM
REM
REM
REM
REM
REM ./C.cell (b20cbc046b6831c77cfcea5457e17084)
REM AIRSS Version 0.9.1 bugfix July 2018 build 013d7b7c2542+ Fri, 06 Jul 2018 19:26:36 +0100
REM compiler GCC version 9.2.1 20190827 (Red Hat 9.2.1-1)
REM options -cpp -mtune=generic -march=x86-64 -g -O0 -fpre-include=/usr/include/finclude/math-vector-fortran.h
REM seed 2096444104 63365918 -1607564718 -70917131 422461937 1579566102 395787685 144257876 -640562479 -1826780310 591184227 -308412931 -1909395461 -1905121825 1673977896 -311419097 -1169410486 1906648515 -2059521642 189922728 -988682273 -2025552328 1044008696 -668703704 207055507 1095776564 -92942257 -1479356290 -226691007 14078430 891215868 1340451149 1803277209
REM
CELL 1.54180   50.00000   50.00000   50.00000   90.00000   90.00000   90.00000
LATT -1
SFAC C  
C      1  0.5234230000000  0.5608640000000  0.5267450000000 1.0
C      1  0.5240970000000  0.5437670000000  0.4503610000000 1.0
C      1  0.5233120000000  0.4661730000000  0.4432520000000 1.0
C      1  0.5237140000000  0.4350900000000  0.5147440000000 1.0
C      1  0.5243440000000  0.4937880000000  0.5665090000000 1.0
C      1  0.5482060000000  0.4784410000000  0.4855340000000 1.0
C      1  0.5483160000000  0.4793000000000  0.5161020000000 1.0
C      1  0.5485310000000  0.5086680000000  0.5247100000000 1.0
C      1  0.5483950000000  0.5259750000000  0.4994820000000 1.0
C      1  0.5481760000000  0.5072240000000  0.4752760000000 1.0
C      1  0.4657560000000  0.4488730000000  0.4872850000000 1.0
C      1  0.4650220000000  0.4700800000000  0.5433540000000 1.0
C      1  0.4651160000000  0.5338600000000  0.5403560000000 1.0
C      1  0.4657280000000  0.5496410000000  0.4825150000000 1.0
C      1  0.4641890000000  0.4975410000000  0.4463590000000 1.0
C      1  0.5156840000000  0.4356820000000  0.4863580000000 1.0
C      1  0.5151750000000  0.4675010000000  0.5571290000000 1.0
C      1  0.5153800000000  0.5435200000000  0.5492260000000 1.0
C      1  0.5156760000000  0.5599560000000  0.4734240000000 1.0
C      1  0.5149310000000  0.4931960000000  0.4352970000000 1.0
C      1  0.4874760000000  0.4304270000000  0.4807870000000 1.0
C      1  0.4867640000000  0.4614300000000  0.5612200000000 1.0
C      1  0.4870800000000  0.5440080000000  0.5569740000000 1.0
C      1  0.4874230000000  0.5674350000000  0.4740740000000 1.0
C      1  0.4868880000000  0.4967470000000  0.4275310000000 1.0
C      1  0.5063300000000  0.4799380000000  0.5152200000000 1.0
C      1  0.5064240000000  0.5079100000000  0.5243240000000 1.0
C      1  0.5064160000000  0.5250200000000  0.5003450000000 1.0
C      1  0.5057590000000  0.5077520000000  0.4764980000000 1.0
C      1  0.5057750000000  0.4796560000000  0.4857290000000 1.0
C      1  0.5260050000000  0.4607000000000  0.4722160000000 1.0
C      1  0.5261120000000  0.4609630000000  0.5290780000000 1.0
C      1  0.5267400000000  0.5152630000000  0.5463540000000 1.0
C      1  0.5262470000000  0.5484580000000  0.4998690000000 1.0
C      1  0.5259290000000  0.5145240000000  0.4542670000000 1.0
C      1  0.4659550000000  0.4691390000000  0.5118690000000 1.0
C      1  0.4565530000000  0.5016840000000  0.5366160000000 1.0
C      1  0.4659500000000  0.5317980000000  0.5089650000000 1.0
C      1  0.4592050000000  0.5195730000000  0.4694260000000 1.0
C      1  0.4593510000000  0.4776400000000  0.4713450000000 1.0
C      1  0.4574960000000  0.4999630000000  0.4998800000000 1.0
END
