TITL C-1413366-9091-24 3.01485430080501e-06 125000 -12.3085327188591 0 0 4 (D(inf)h) n - 1
REM
REM in /home/nfs/bkarasulu/CARBON/AIRSS/Generating-Clusters/TERSOFF/Higher-Symm/FIRE-HFTN
REM
REM
REM
REM
REM
REM ./C.cell (b20cbc046b6831c77cfcea5457e17084)
REM AIRSS Version 0.9.1 bugfix July 2018 build 013d7b7c2542+ Fri, 06 Jul 2018 19:26:36 +0100
REM compiler GCC version 9.2.1 20190827 (Red Hat 9.2.1-1)
REM options -cpp -mtune=generic -march=x86-64 -g -O0 -fpre-include=/usr/include/finclude/math-vector-fortran.h
REM seed 667012664 -303500259 -1962211141 1290913487 -565630528 -2087695393 -1151660771 1154640821 -2144433194 529292872 1538687688 -529923039 -203915608 28222319 -1762123341 676761379 -1879065736 -1675575527 -1913084034 1557306657 254131197 341407771 -520194710 -2118226592 862574366 -1083730887 -514654608 -1561140131 1037452919 -649419173 -844940487 470017465 1362723956
REM
CELL 1.54180   50.00000   50.00000   50.00000   90.00000   90.00000   90.00000
LATT -1
SFAC C  
C      1  0.4845060000000  0.5001010000000  0.4988310000000 1.0
C      1  0.4545730000000  0.5001010000000  0.4988310000000 1.0
C      1  0.5154940000000  0.5001010000000  0.4988310000000 1.0
C      1  0.5454270000000  0.5001010000000  0.4988310000000 1.0
END
