TITL C-1412438-7001-2 -0.000554727802848809 125000 -774.650025955855 0 0 142 (C1) n - 1
REM
REM in /home/nfs/bkarasulu/CARBON/AIRSS/Generating-Clusters/TERSOFF/Higher-Symm/FIRE-HFTN
REM
REM
REM
REM
REM
REM ./C.cell (b20cbc046b6831c77cfcea5457e17084)
REM AIRSS Version 0.9.1 bugfix July 2018 build 013d7b7c2542+ Fri, 06 Jul 2018 19:26:36 +0100
REM compiler GCC version 9.2.1 20190827 (Red Hat 9.2.1-1)
REM options -cpp -mtune=generic -march=x86-64 -g -O0 -fpre-include=/usr/include/finclude/math-vector-fortran.h
REM seed 2054135021 609977856 -908324597 954247675 -104429155 1164134325 2107288923 1317278843 -578771977 -1557958922 -841920133 -477345304 -1097266806 -1003845858 21083913 -1978551694 505904601 -1603064572 -803061938 -1306650370 -375616880 -1857959460 -1070530606 128377281 1614997508 -965904149 453406829 1159871477 -1983317999 2042036727 856517273 -1734122275 -1610657637
REM
CELL 1.54180   50.00000   50.00000   50.00000   90.00000   90.00000   90.00000
LATT -1
SFAC C  
C      1  0.5003730000000  0.4411400000000  0.5860780000000 1.0
C      1  0.4187280000000  0.4398600000000  0.5273440000000 1.0
C      1  0.4491050000000  0.4372630000000  0.4306140000000 1.0
C      1  0.5502620000000  0.4370040000000  0.4310380000000 1.0
C      1  0.5811170000000  0.4400470000000  0.5271780000000 1.0
C      1  0.4920710000000  0.4863480000000  0.5913940000000 1.0
C      1  0.4120820000000  0.4850780000000  0.5189910000000 1.0
C      1  0.4536060000000  0.4839530000000  0.4200380000000 1.0
C      1  0.5604350000000  0.4834690000000  0.4318250000000 1.0
C      1  0.5835510000000  0.4862350000000  0.5363290000000 1.0
C      1  0.4387320000000  0.4957390000000  0.5777860000000 1.0
C      1  0.4058850000000  0.4926390000000  0.4637580000000 1.0
C      1  0.5047100000000  0.4914260000000  0.3993670000000 1.0
C      1  0.5967290000000  0.4930040000000  0.4730790000000 1.0
C      1  0.5556970000000  0.4952730000000  0.5837120000000 1.0
C      1  0.5935890000000  0.4863950000000  0.5040570000000 1.0
C      1  0.5256130000000  0.4879550000000  0.5875050000000 1.0
C      1  0.4266330000000  0.4877670000000  0.5497860000000 1.0
C      1  0.4266090000000  0.4850280000000  0.4404300000000 1.0
C      1  0.5327010000000  0.4841390000000  0.4127100000000 1.0
C      1  0.4742380000000  0.5058360000000  0.4493450000000 1.0
C      1  0.5394060000000  0.5059020000000  0.4604110000000 1.0
C      1  0.5494570000000  0.5075900000000  0.5242980000000 1.0
C      1  0.4897870000000  0.5099590000000  0.5567850000000 1.0
C      1  0.4446480000000  0.5083010000000  0.5062250000000 1.0
C      1  0.5042000000000  0.5420100000000  0.4649900000000 1.0
C      1  0.5351330000000  0.5432580000000  0.4930230000000 1.0
C      1  0.5182920000000  0.5448540000000  0.5312540000000 1.0
C      1  0.4766920000000  0.5459370000000  0.5267960000000 1.0
C      1  0.4683000000000  0.5458700000000  0.4858400000000 1.0
C      1  0.5451730000000  0.5332800000000  0.4666480000000 1.0
C      1  0.5467590000000  0.5351880000000  0.5325450000000 1.0
C      1  0.4818320000000  0.5372750000000  0.5547070000000 1.0
C      1  0.4441570000000  0.5356210000000  0.4987260000000 1.0
C      1  0.4817660000000  0.5332340000000  0.4481330000000 1.0
C      1  0.3975180000000  0.4712290000000  0.4812190000000 1.0
C      1  0.4856460000000  0.4699250000000  0.3967820000000 1.0
C      1  0.5933750000000  0.4709540000000  0.4546770000000 1.0
C      1  0.5719570000000  0.4733410000000  0.5745680000000 1.0
C      1  0.4518470000000  0.4742860000000  0.5917020000000 1.0
C      1  0.5459960000000  0.5575550000000  0.4481880000000 1.0
C      1  0.5632950000000  0.5604040000000  0.5266400000000 1.0
C      1  0.4929620000000  0.5626290000000  0.5684210000000 1.0
C      1  0.4324720000000  0.5603920000000  0.5133840000000 1.0
C      1  0.4655140000000  0.5576060000000  0.4399140000000 1.0
C      1  0.5697070000000  0.4144590000000  0.5160040000000 1.0
C      1  0.5077110000000  0.4155720000000  0.5717230000000 1.0
C      1  0.4348200000000  0.4144160000000  0.5309100000000 1.0
C      1  0.4514270000000  0.4124540000000  0.4477500000000 1.0
C      1  0.5350970000000  0.4119360000000  0.4387140000000 1.0
C      1  0.4417170000000  0.5637660000000  0.5415270000000 1.0
C      1  0.4417560000000  0.5612370000000  0.4571880000000 1.0
C      1  0.5218740000000  0.5596930000000  0.4312710000000 1.0
C      1  0.5721490000000  0.5622580000000  0.4983580000000 1.0
C      1  0.5227990000000  0.5643150000000  0.5681160000000 1.0
C      1  0.5054060000000  0.4490620000000  0.5423490000000 1.0
C      1  0.4606270000000  0.4490880000000  0.5203590000000 1.0
C      1  0.4692250000000  0.4473430000000  0.4692630000000 1.0
C      1  0.5195500000000  0.4469320000000  0.4612990000000 1.0
C      1  0.5412370000000  0.4480170000000  0.5077620000000 1.0
C      1  0.5903750000000  0.4540630000000  0.5022220000000 1.0
C      1  0.5264560000000  0.4560690000000  0.5852630000000 1.0
C      1  0.4280610000000  0.4557920000000  0.5512520000000 1.0
C      1  0.4276340000000  0.4527040000000  0.4451560000000 1.0
C      1  0.5294480000000  0.4518510000000  0.4150260000000 1.0
C      1  0.5027570000000  0.5910180000000  0.5335630000000 1.0
C      1  0.4672280000000  0.5915990000000  0.5115950000000 1.0
C      1  0.4775830000000  0.5894490000000  0.4711780000000 1.0
C      1  0.5192500000000  0.5885470000000  0.4684510000000 1.0
C      1  0.5350520000000  0.5903050000000  0.5070820000000 1.0
C      1  0.4036310000000  0.5165810000000  0.5084860000000 1.0
C      1  0.4618410000000  0.5152240000000  0.4104220000000 1.0
C      1  0.5719790000000  0.5150380000000  0.4356500000000 1.0
C      1  0.5825520000000  0.5180250000000  0.5478090000000 1.0
C      1  0.4794540000000  0.5174570000000  0.5966480000000 1.0
C      1  0.5454760000000  0.4414890000000  0.5660710000000 1.0
C      1  0.4516340000000  0.4412040000000  0.5645890000000 1.0
C      1  0.4228960000000  0.4385730000000  0.4729710000000 1.0
C      1  0.5018910000000  0.4371890000000  0.4188120000000 1.0
C      1  0.5780200000000  0.4387060000000  0.4776560000000 1.0
C      1  0.5878140000000  0.5376860000000  0.4912380000000 1.0
C      1  0.5346440000000  0.5396220000000  0.5807760000000 1.0
C      1  0.4340970000000  0.5391640000000  0.5569150000000 1.0
C      1  0.4245850000000  0.5366740000000  0.4537090000000 1.0
C      1  0.5198410000000  0.5356480000000  0.4135740000000 1.0
C      1  0.5479310000000  0.4881630000000  0.4798770000000 1.0
C      1  0.5265240000000  0.4926450000000  0.5323400000000 1.0
C      1  0.4780160000000  0.4931790000000  0.5364730000000 1.0
C      1  0.4485910000000  0.4891710000000  0.4864630000000 1.0
C      1  0.4956430000000  0.4879730000000  0.4484470000000 1.0
C      1  0.4915590000000  0.4598540000000  0.4525440000000 1.0
C      1  0.5418700000000  0.4599470000000  0.4781360000000 1.0
C      1  0.5324310000000  0.4635700000000  0.5328610000000 1.0
C      1  0.4789170000000  0.4642180000000  0.5425380000000 1.0
C      1  0.4521510000000  0.4609970000000  0.4929720000000 1.0
C      1  0.5871900000000  0.5201650000000  0.4641960000000 1.0
C      1  0.5608530000000  0.5226140000000  0.5719600000000 1.0
C      1  0.4511150000000  0.5234780000000  0.5800080000000 1.0
C      1  0.4087940000000  0.5199650000000  0.4760060000000 1.0
C      1  0.4939180000000  0.5188070000000  0.4053400000000 1.0
C      1  0.4968970000000  0.5724950000000  0.4485490000000 1.0
C      1  0.5473850000000  0.5738060000000  0.4800090000000 1.0
C      1  0.5326790000000  0.5757700000000  0.5381130000000 1.0
C      1  0.4730090000000  0.5768550000000  0.5417860000000 1.0
C      1  0.4507350000000  0.5756380000000  0.4863290000000 1.0
C      1  0.5634940000000  0.4976530000000  0.5012610000000 1.0
C      1  0.5168060000000  0.5013710000000  0.5593940000000 1.0
C      1  0.4504990000000  0.5002850000000  0.5320660000000 1.0
C      1  0.4494530000000  0.4965950000000  0.4598630000000 1.0
C      1  0.5211990000000  0.4966080000000  0.4403170000000 1.0
C      1  0.4313830000000  0.5184510000000  0.4289540000000 1.0
C      1  0.5449080000000  0.5174340000000  0.4126650000000 1.0
C      1  0.5963750000000  0.5199180000000  0.5148360000000 1.0
C      1  0.5152090000000  0.5209870000000  0.5964550000000 1.0
C      1  0.4147760000000  0.5196200000000  0.5426490000000 1.0
C      1  0.4432850000000  0.4154610000000  0.4775760000000 1.0
C      1  0.5040800000000  0.4142540000000  0.4400710000000 1.0
C      1  0.5586900000000  0.4160220000000  0.4869820000000 1.0
C      1  0.5315190000000  0.4176840000000  0.5519970000000 1.0
C      1  0.4609420000000  0.4170820000000  0.5474430000000 1.0
C      1  0.4745860000000  0.4547040000000  0.4217310000000 1.0
C      1  0.5664000000000  0.4551530000000  0.4522920000000 1.0
C      1  0.5651030000000  0.4588720000000  0.5475650000000 1.0
C      1  0.4751200000000  0.4589460000000  0.5779270000000 1.0
C      1  0.4177150000000  0.4563120000000  0.4997040000000 1.0
C      1  0.4878110000000  0.4200590000000  0.4670710000000 1.0
C      1  0.5279090000000  0.4203520000000  0.4791160000000 1.0
C      1  0.5287150000000  0.4214550000000  0.5209360000000 1.0
C      1  0.4892060000000  0.4218540000000  0.5346700000000 1.0
C      1  0.4638400000000  0.4208850000000  0.5013960000000 1.0
C      1  0.5005440000000  0.6000910000000  0.4979960000000 1.0
C      1  0.5010750000000  0.6306790000000  0.4968490000000 1.0
C      1  0.4987450000000  0.4782350000000  0.4924980000000 1.0
C      1  0.4978850000000  0.4487700000000  0.5010320000000 1.0
C      1  0.5002030000000  0.5017370000000  0.5120900000000 1.0
C      1  0.5041210000000  0.6972480000000  0.5222100000000 1.0
C      1  0.4995050000000  0.4126560000000  0.5007790000000 1.0
C      1  0.5002320000000  0.5363700000000  0.5008870000000 1.0
C      1  0.4991940000000  0.3814370000000  0.5018700000000 1.0
C      1  0.4901120000000  0.6481600000000  0.5171470000000 1.0
C      1  0.4915480000000  0.3642200000000  0.4798950000000 1.0
C      1  0.4856800000000  0.6765700000000  0.5138370000000 1.0
END
