TITL C-1413369-9679-2 0.00469676969429968 125000 -107.729103789349 0 0 20 (C1) n - 1
REM
REM in /home/nfs/bkarasulu/CARBON/AIRSS/Generating-Clusters/TERSOFF/Higher-Symm/FIRE-HFTN
REM
REM
REM
REM
REM
REM ./C.cell (b20cbc046b6831c77cfcea5457e17084)
REM AIRSS Version 0.9.1 bugfix July 2018 build 013d7b7c2542+ Fri, 06 Jul 2018 19:26:36 +0100
REM compiler GCC version 9.2.1 20190827 (Red Hat 9.2.1-1)
REM options -cpp -mtune=generic -march=x86-64 -g -O0 -fpre-include=/usr/include/finclude/math-vector-fortran.h
REM seed -799495957 -1247915129 -1179702890 2020017000 1596308523 -1348999569 -1295035280 1657528862 -1313649220 -949123749 350292930 1210681429 268608277 929581036 767517379 900667061 45679610 181693205 -1078556626 738583090 440047102 1564976212 -1508278752 -1181446998 -545077628 -2046088133 -702041550 -977263418 1206553486 -747782126 583728168 -144554404 -1441189722
REM
CELL 1.54180   50.00000   50.00000   50.00000   90.00000   90.00000   90.00000
LATT -1
SFAC C  
C      1  0.4722270000000  0.5297300000000  0.4532960000000 1.0
C      1  0.5081750000000  0.4699290000000  0.4668500000000 1.0
C      1  0.4889370000000  0.5385310000000  0.5778330000000 1.0
C      1  0.4706580000000  0.5326750000000  0.5040820000000 1.0
C      1  0.4954600000000  0.5030870000000  0.5412180000000 1.0
C      1  0.4497790000000  0.4994330000000  0.4852940000000 1.0
C      1  0.5033060000000  0.4900130000000  0.4458370000000 1.0
C      1  0.5701740000000  0.4822910000000  0.5091600000000 1.0
C      1  0.4555970000000  0.5278660000000  0.4777480000000 1.0
C      1  0.5163350000000  0.4833130000000  0.5465060000000 1.0
C      1  0.5440010000000  0.4706030000000  0.5042470000000 1.0
C      1  0.5352180000000  0.4654290000000  0.4766890000000 1.0
C      1  0.4902180000000  0.5102220000000  0.5130940000000 1.0
C      1  0.4731720000000  0.4876130000000  0.4987260000000 1.0
C      1  0.5159270000000  0.5179530000000  0.4995120000000 1.0
C      1  0.5264080000000  0.4639990000000  0.5269030000000 1.0
C      1  0.4868260000000  0.4658190000000  0.4858230000000 1.0
C      1  0.5176240000000  0.5276840000000  0.4724970000000 1.0
C      1  0.4804310000000  0.5152610000000  0.5628680000000 1.0
C      1  0.4995270000000  0.5185510000000  0.4518170000000 1.0
END
