TITL C-1412432-519-14 20.6898729257422 125000 -876.182361558267 0 0 152 (C1) n - 1
REM
REM in /home/nfs/bkarasulu/CARBON/AIRSS/Generating-Clusters/TERSOFF/Higher-Symm/FIRE-HFTN
REM
REM
REM
REM
REM
REM ./C.cell (b20cbc046b6831c77cfcea5457e17084)
REM AIRSS Version 0.9.1 bugfix July 2018 build 013d7b7c2542+ Fri, 06 Jul 2018 19:26:36 +0100
REM compiler GCC version 9.2.1 20190827 (Red Hat 9.2.1-1)
REM options -cpp -mtune=generic -march=x86-64 -g -O0 -fpre-include=/usr/include/finclude/math-vector-fortran.h
REM seed 2144426845 -492136942 1890524913 -420579321 -1187409816 -360778993 48229024 -2104936214 808859183 926606099 -420991343 1328975657 -533839844 538194247 389488774 1271650746 -1309781457 204647308 -1537647259 115382979 -401117758 -2037688691 -92194015 -1153545276 36000648 -17616367 170518040 1415092203 -298496213 -142884571 1189649446 -1374860826 940097864
REM
CELL 1.54180   50.00000   50.00000   50.00000   90.00000   90.00000   90.00000
LATT -1
SFAC C  
C      1  0.4893000000000  0.4690150000000  0.5362270000000 1.0
C      1  0.5738320000000  0.4471110000000  0.4838770000000 1.0
C      1  0.4377340000000  0.4708610000000  0.4268270000000 1.0
C      1  0.4863820000000  0.4198000000000  0.4477760000000 1.0
C      1  0.4607530000000  0.4356340000000  0.3994030000000 1.0
C      1  0.4577790000000  0.4130480000000  0.4177740000000 1.0
C      1  0.5744170000000  0.5208650000000  0.5753470000000 1.0
C      1  0.4641620000000  0.5586310000000  0.4303560000000 1.0
C      1  0.4620160000000  0.5146240000000  0.4532910000000 1.0
C      1  0.5110430000000  0.5452950000000  0.5291530000000 1.0
C      1  0.5925460000000  0.4573230000000  0.4373920000000 1.0
C      1  0.5645180000000  0.4394400000000  0.4314270000000 1.0
C      1  0.4438440000000  0.4040750000000  0.5198530000000 1.0
C      1  0.5144240000000  0.4654560000000  0.5500880000000 1.0
C      1  0.4806640000000  0.4715110000000  0.5869780000000 1.0
C      1  0.3865720000000  0.5634380000000  0.4829610000000 1.0
C      1  0.5283120000000  0.5989590000000  0.5286780000000 1.0
C      1  0.5669330000000  0.4468120000000  0.5546200000000 1.0
C      1  0.5859880000000  0.5400770000000  0.5498840000000 1.0
C      1  0.5736140000000  0.5012060000000  0.4923930000000 1.0
C      1  0.4154980000000  0.5458020000000  0.5543880000000 1.0
C      1  0.5438040000000  0.3996290000000  0.5468260000000 1.0
C      1  0.5378790000000  0.5069710000000  0.4156760000000 1.0
C      1  0.5061470000000  0.5408720000000  0.5806980000000 1.0
C      1  0.5151750000000  0.5021320000000  0.4628990000000 1.0
C      1  0.4877310000000  0.4947980000000  0.4478790000000 1.0
C      1  0.5739580000000  0.5286180000000  0.4492770000000 1.0
C      1  0.4911530000000  0.4033530000000  0.5569360000000 1.0
C      1  0.6029140000000  0.4458060000000  0.4854820000000 1.0
C      1  0.4470710000000  0.4706790000000  0.4677640000000 1.0
C      1  0.5575130000000  0.4293420000000  0.4992480000000 1.0
C      1  0.5564600000000  0.5678350000000  0.5838570000000 1.0
C      1  0.4384040000000  0.5887990000000  0.5503070000000 1.0
C      1  0.4645260000000  0.4885790000000  0.6032950000000 1.0
C      1  0.4603130000000  0.5284860000000  0.4252450000000 1.0
C      1  0.4512490000000  0.4365490000000  0.5619810000000 1.0
C      1  0.5059320000000  0.4817490000000  0.5755440000000 1.0
C      1  0.5231800000000  0.5497580000000  0.4409230000000 1.0
C      1  0.6125990000000  0.5348940000000  0.5369140000000 1.0
C      1  0.5696420000000  0.4750540000000  0.5406750000000 1.0
C      1  0.4574970000000  0.5325220000000  0.5278990000000 1.0
C      1  0.5100820000000  0.4148120000000  0.5137980000000 1.0
C      1  0.4733970000000  0.4432240000000  0.5812190000000 1.0
C      1  0.4934780000000  0.5861130000000  0.5695520000000 1.0
C      1  0.4347950000000  0.5739430000000  0.5005860000000 1.0
C      1  0.5066330000000  0.4182080000000  0.4679270000000 1.0
C      1  0.4471700000000  0.4789150000000  0.5335130000000 1.0
C      1  0.4929280000000  0.4626180000000  0.4819720000000 1.0
C      1  0.5304330000000  0.4375160000000  0.5068980000000 1.0
C      1  0.4771900000000  0.5364440000000  0.5896010000000 1.0
C      1  0.4103560000000  0.4996280000000  0.4498300000000 1.0
C      1  0.5249810000000  0.4966200000000  0.5916110000000 1.0
C      1  0.4859200000000  0.5717520000000  0.4162030000000 1.0
C      1  0.4556710000000  0.5061120000000  0.5432660000000 1.0
C      1  0.4453980000000  0.5395250000000  0.5008310000000 1.0
C      1  0.5199360000000  0.4427250000000  0.5689950000000 1.0
C      1  0.6169540000000  0.4692870000000  0.4536160000000 1.0
C      1  0.5454980000000  0.4654850000000  0.3842490000000 1.0
C      1  0.5641640000000  0.5259270000000  0.4214720000000 1.0
C      1  0.6514350000000  0.4835180000000  0.5328090000000 1.0
C      1  0.4357920000000  0.4996360000000  0.4664630000000 1.0
C      1  0.4155440000000  0.4274950000000  0.4397330000000 1.0
C      1  0.6136400000000  0.4960040000000  0.4674770000000 1.0
C      1  0.4160320000000  0.5172370000000  0.5514210000000 1.0
C      1  0.4906490000000  0.5788010000000  0.4649660000000 1.0
C      1  0.4764340000000  0.6149890000000  0.5277500000000 1.0
C      1  0.5123290000000  0.5595570000000  0.4148750000000 1.0
C      1  0.5187360000000  0.4469380000000  0.4788980000000 1.0
C      1  0.4327130000000  0.4585610000000  0.5522140000000 1.0
C      1  0.4861870000000  0.4295470000000  0.5222580000000 1.0
C      1  0.4563220000000  0.4638130000000  0.4065480000000 1.0
C      1  0.5476920000000  0.4417260000000  0.5769090000000 1.0
C      1  0.5603050000000  0.4689170000000  0.4691100000000 1.0
C      1  0.4472000000000  0.5946330000000  0.5232560000000 1.0
C      1  0.5640620000000  0.4207160000000  0.5398110000000 1.0
C      1  0.5520150000000  0.4815910000000  0.4254090000000 1.0
C      1  0.4902680000000  0.5293490000000  0.3820380000000 1.0
C      1  0.3943300000000  0.5131060000000  0.4889180000000 1.0
C      1  0.5373280000000  0.5728230000000  0.5468510000000 1.0
C      1  0.4511770000000  0.4058110000000  0.4677530000000 1.0
C      1  0.5164410000000  0.5659680000000  0.4641270000000 1.0
C      1  0.3958510000000  0.4738710000000  0.4483470000000 1.0
C      1  0.4928010000000  0.5066680000000  0.5071190000000 1.0
C      1  0.5286690000000  0.5206200000000  0.4432070000000 1.0
C      1  0.4383320000000  0.5626370000000  0.5620120000000 1.0
C      1  0.4766540000000  0.4673640000000  0.4571670000000 1.0
C      1  0.4436210000000  0.5807530000000  0.4727230000000 1.0
C      1  0.4575190000000  0.4109520000000  0.5465500000000 1.0
C      1  0.4979330000000  0.5701930000000  0.5205860000000 1.0
C      1  0.4713830000000  0.5147190000000  0.3992700000000 1.0
C      1  0.4008840000000  0.5234340000000  0.4362380000000 1.0
C      1  0.4865290000000  0.4786300000000  0.5073780000000 1.0
C      1  0.5102150000000  0.6208300000000  0.5387770000000 1.0
C      1  0.5543770000000  0.5377010000000  0.5905980000000 1.0
C      1  0.5043990000000  0.5178780000000  0.4842890000000 1.0
C      1  0.5132880000000  0.5653670000000  0.5669400000000 1.0
C      1  0.3818570000000  0.4667290000000  0.4727180000000 1.0
C      1  0.4560590000000  0.5573780000000  0.5855620000000 1.0
C      1  0.4711770000000  0.5158320000000  0.6094610000000 1.0
C      1  0.5133060000000  0.4503230000000  0.4238000000000 1.0
C      1  0.5141260000000  0.6038050000000  0.5838420000000 1.0
C      1  0.5536880000000  0.5227700000000  0.4948790000000 1.0
C      1  0.4256610000000  0.5160400000000  0.4956960000000 1.0
C      1  0.5790030000000  0.4778570000000  0.5119900000000 1.0
C      1  0.5730200000000  0.4796240000000  0.4457160000000 1.0
C      1  0.4088120000000  0.4547270000000  0.5330860000000 1.0
C      1  0.5554270000000  0.5394050000000  0.4702480000000 1.0
C      1  0.4721860000000  0.4849080000000  0.3941630000000 1.0
C      1  0.4579420000000  0.4691050000000  0.5082960000000 1.0
C      1  0.5405280000000  0.4940160000000  0.3869760000000 1.0
C      1  0.5319890000000  0.4756600000000  0.4737730000000 1.0
C      1  0.6310330000000  0.4797000000000  0.5124680000000 1.0
C      1  0.4405570000000  0.4129240000000  0.4413320000000 1.0
C      1  0.5585940000000  0.4998170000000  0.5530770000000 1.0
C      1  0.4223810000000  0.4732850000000  0.5757260000000 1.0
C      1  0.5405180000000  0.4463150000000  0.4058370000000 1.0
C      1  0.5538450000000  0.5636060000000  0.5045070000000 1.0
C      1  0.4652340000000  0.5654190000000  0.4598740000000 1.0
C      1  0.5139080000000  0.5426720000000  0.3916220000000 1.0
C      1  0.6166860000000  0.5289560000000  0.5077570000000 1.0
C      1  0.4048090000000  0.5740930000000  0.5029050000000 1.0
C      1  0.6227060000000  0.5019610000000  0.4955570000000 1.0
C      1  0.4846890000000  0.5875490000000  0.5407060000000 1.0
C      1  0.5168140000000  0.5879460000000  0.5037930000000 1.0
C      1  0.5411720000000  0.5466050000000  0.5270720000000 1.0
C      1  0.5354200000000  0.5760320000000  0.4845760000000 1.0
C      1  0.5714380000000  0.5795870000000  0.5232990000000 1.0
C      1  0.5156610000000  0.6274610000000  0.5667370000000 1.0
C      1  0.3828840000000  0.4851090000000  0.4951550000000 1.0
C      1  0.4635070000000  0.5387630000000  0.4739130000000 1.0
C      1  0.5328160000000  0.4607340000000  0.5264970000000 1.0
C      1  0.4139080000000  0.4557110000000  0.4342370000000 1.0
C      1  0.5718820000000  0.5712380000000  0.5546840000000 1.0
C      1  0.5850170000000  0.5028940000000  0.4623350000000 1.0
C      1  0.5389490000000  0.5901910000000  0.5963790000000 1.0
C      1  0.5610300000000  0.5266480000000  0.5360400000000 1.0
C      1  0.4456950000000  0.4214270000000  0.4926810000000 1.0
C      1  0.5034610000000  0.4967680000000  0.4195630000000 1.0
C      1  0.4653480000000  0.4400470000000  0.5055400000000 1.0
C      1  0.5276500000000  0.5253370000000  0.5914620000000 1.0
C      1  0.4320470000000  0.4481890000000  0.4812820000000 1.0
C      1  0.4156070000000  0.5008950000000  0.5752430000000 1.0
C      1  0.4971950000000  0.4254570000000  0.5768880000000 1.0
C      1  0.4844020000000  0.4462370000000  0.4357880000000 1.0
C      1  0.3780340000000  0.5357820000000  0.4814610000000 1.0
C      1  0.4976190000000  0.5206540000000  0.5309660000000 1.0
C      1  0.5334390000000  0.4433070000000  0.4471040000000 1.0
C      1  0.3978110000000  0.4795530000000  0.5211240000000 1.0
C      1  0.4145530000000  0.5037580000000  0.5245140000000 1.0
C      1  0.5053680000000  0.3992300000000  0.4894240000000 1.0
C      1  0.6186360000000  0.4535540000000  0.5087220000000 1.0
C      1  0.5153440000000  0.3997950000000  0.5379930000000 1.0
END
