TITL C-1412438-7001-15 -0.0575004335314095 125000 -1111.31001212311 0 0 195 (C3) n - 1
REM
REM in /home/nfs/bkarasulu/CARBON/AIRSS/Generating-Clusters/TERSOFF/Higher-Symm/FIRE-HFTN
REM
REM
REM
REM
REM
REM ./C.cell (b20cbc046b6831c77cfcea5457e17084)
REM AIRSS Version 0.9.1 bugfix July 2018 build 013d7b7c2542+ Fri, 06 Jul 2018 19:26:36 +0100
REM compiler GCC version 9.2.1 20190827 (Red Hat 9.2.1-1)
REM options -cpp -mtune=generic -march=x86-64 -g -O0 -fpre-include=/usr/include/finclude/math-vector-fortran.h
REM seed -632977830 1042325345 80482734 1546934066 -707722661 743251901 1012412924 -944182383 577365601 1237888971 67286365 -354114330 727045280 229532237 1223954256 2139710329 -1452079179 -425090101 695254809 1295907273 751565405 -706619671 586485719 -1261577795 -1347350945 -1618344056 -2014704171 1536701086 -2024858749 -592954800 -128755925 2001351090 -1063590842
REM
CELL 1.54180   50.00000   50.00000   50.00000   90.00000   90.00000   90.00000
LATT -1
SFAC C  
C      1  0.4555610000000  0.5572530000000  0.4151350000000 1.0
C      1  0.4726370000000  0.4328870000000  0.4151360000000 1.0
C      1  0.5718030000000  0.5098590000000  0.4151360000000 1.0
C      1  0.4134470000000  0.5700020000000  0.4409070000000 1.0
C      1  0.4826530000000  0.3900410000000  0.4409080000000 1.0
C      1  0.6039010000000  0.5399560000000  0.4409080000000 1.0
C      1  0.5404800000000  0.3979390000000  0.5480870000000 1.0
C      1  0.5681470000000  0.5860870000000  0.5480870000000 1.0
C      1  0.3913730000000  0.5159740000000  0.5480870000000 1.0
C      1  0.4975040000000  0.5763020000000  0.4596150000000 1.0
C      1  0.4351680000000  0.4596870000000  0.4596150000000 1.0
C      1  0.5673280000000  0.4640100000000  0.4596150000000 1.0
C      1  0.4809650000000  0.4500940000000  0.4384000000000 1.0
C      1  0.5527370000000  0.5084670000000  0.4384000000000 1.0
C      1  0.4662990000000  0.5414380000000  0.4383990000000 1.0
C      1  0.4391480000000  0.5701440000000  0.5785390000000 1.0
C      1  0.4696790000000  0.4122290000000  0.5785390000000 1.0
C      1  0.5911720000000  0.5176280000000  0.5785390000000 1.0
C      1  0.4417950000000  0.5544480000000  0.5262570000000 1.0
C      1  0.4819490000000  0.4223690000000  0.5262570000000 1.0
C      1  0.5762550000000  0.5231830000000  0.5262570000000 1.0
C      1  0.5183810000000  0.5207740000000  0.5580030000000 1.0
C      1  0.4728190000000  0.5055320000000  0.5580030000000 1.0
C      1  0.5088000000000  0.4736950000000  0.5580030000000 1.0
C      1  0.4724490000000  0.5914580000000  0.5441100000000 1.0
C      1  0.4345710000000  0.4304110000000  0.5441110000000 1.0
C      1  0.5929800000000  0.4781310000000  0.5441110000000 1.0
C      1  0.5043930000000  0.4306270000000  0.5464630000000 1.0
C      1  0.5578820000000  0.5384920000000  0.5464630000000 1.0
C      1  0.4377240000000  0.5308820000000  0.5464630000000 1.0
C      1  0.4402470000000  0.5799870000000  0.4316340000000 1.0
C      1  0.4606060000000  0.4082590000000  0.4316350000000 1.0
C      1  0.5991470000000  0.5117540000000  0.4316350000000 1.0
C      1  0.3696420000000  0.4928790000000  0.4889920000000 1.0
C      1  0.5713460000000  0.3906670000000  0.4889930000000 1.0
C      1  0.5590120000000  0.6164540000000  0.4889930000000 1.0
C      1  0.5139080000000  0.5338850000000  0.5843850000000 1.0
C      1  0.4637010000000  0.4951030000000  0.5843850000000 1.0
C      1  0.5223900000000  0.4710130000000  0.5843850000000 1.0
C      1  0.4142270000000  0.4909720000000  0.5527560000000 1.0
C      1  0.5507050000000  0.4302330000000  0.5527570000000 1.0
C      1  0.5350680000000  0.5787960000000  0.5527560000000 1.0
C      1  0.3939700000000  0.5518870000000  0.5468490000000 1.0
C      1  0.5080800000000  0.3822320000000  0.5468500000000 1.0
C      1  0.5979500000000  0.5658820000000  0.5468500000000 1.0
C      1  0.5665340000000  0.5752010000000  0.5150150000000 1.0
C      1  0.4016070000000  0.5200200000000  0.5150140000000 1.0
C      1  0.5318590000000  0.4047790000000  0.5150150000000 1.0
C      1  0.4780970000000  0.4893500000000  0.5340300000000 1.0
C      1  0.5201740000000  0.4863570000000  0.5340310000000 1.0
C      1  0.5017280000000  0.5242930000000  0.5340300000000 1.0
C      1  0.5372590000000  0.5312510000000  0.4454660000000 1.0
C      1  0.4543060000000  0.5166420000000  0.4454660000000 1.0
C      1  0.5084350000000  0.4521070000000  0.4454670000000 1.0
C      1  0.4397270000000  0.5069480000000  0.3994740000000 1.0
C      1  0.5241190000000  0.4443280000000  0.3994740000000 1.0
C      1  0.5361540000000  0.5487230000000  0.3994740000000 1.0
C      1  0.4227430000000  0.4653740000000  0.4310630000000 1.0
C      1  0.5686160000000  0.4504060000000  0.4310640000000 1.0
C      1  0.5086420000000  0.5842190000000  0.4310630000000 1.0
C      1  0.6179850000000  0.5212810000000  0.5295900000000 1.0
C      1  0.4225770000000  0.5915380000000  0.5295890000000 1.0
C      1  0.4594370000000  0.3871810000000  0.5295900000000 1.0
C      1  0.4990090000000  0.3960250000000  0.5185340000000 1.0
C      1  0.5905410000000  0.5511290000000  0.5185340000000 1.0
C      1  0.4104510000000  0.5528460000000  0.5185330000000 1.0
C      1  0.5565520000000  0.4883420000000  0.3984320000000 1.0
C      1  0.4818200000000  0.5548040000000  0.3984310000000 1.0
C      1  0.4616290000000  0.4568530000000  0.3984310000000 1.0
C      1  0.4891280000000  0.5277750000000  0.3880220000000 1.0
C      1  0.4813820000000  0.4766960000000  0.3880220000000 1.0
C      1  0.5294910000000  0.4955280000000  0.3880220000000 1.0
C      1  0.5251670000000  0.4001150000000  0.4685690000000 1.0
C      1  0.5739200000000  0.5717370000000  0.4685680000000 1.0
C      1  0.4009140000000  0.5281470000000  0.4685680000000 1.0
C      1  0.4086510000000  0.5593930000000  0.4699970000000 1.0
C      1  0.4942390000000  0.3911920000000  0.4699980000000 1.0
C      1  0.5971110000000  0.5494140000000  0.4699970000000 1.0
C      1  0.5218940000000  0.5867090000000  0.4766100000000 1.0
C      1  0.4139610000000  0.4756070000000  0.4766100000000 1.0
C      1  0.5641450000000  0.4376850000000  0.4766110000000 1.0
C      1  0.5031900000000  0.5764830000000  0.5966470000000 1.0
C      1  0.4321690000000  0.4645220000000  0.5966470000000 1.0
C      1  0.5646400000000  0.4589970000000  0.5966470000000 1.0
C      1  0.6122670000000  0.5395490000000  0.4987700000000 1.0
C      1  0.4096160000000  0.5774510000000  0.4987700000000 1.0
C      1  0.4781170000000  0.3829990000000  0.4987700000000 1.0
C      1  0.5477270000000  0.4862300000000  0.5954830000000 1.0
C      1  0.4880620000000  0.5482190000000  0.5954830000000 1.0
C      1  0.4642100000000  0.4655520000000  0.5954830000000 1.0
C      1  0.5557820000000  0.5123870000000  0.4848040000000 1.0
C      1  0.4613820000000  0.5421150000000  0.4848030000000 1.0
C      1  0.4828370000000  0.4454980000000  0.4848040000000 1.0
C      1  0.5563020000000  0.4734180000000  0.5169660000000 1.0
C      1  0.4948700000000  0.5620500000000  0.5169660000000 1.0
C      1  0.4488280000000  0.4645320000000  0.5169660000000 1.0
C      1  0.4112620000000  0.4543750000000  0.4991720000000 1.0
C      1  0.5838810000000  0.4459630000000  0.4991720000000 1.0
C      1  0.5048570000000  0.5996620000000  0.4991720000000 1.0
C      1  0.4864520000000  0.4534520000000  0.5541030000000 1.0
C      1  0.5470850000000  0.5115420000000  0.5541030000000 1.0
C      1  0.4664620000000  0.5350070000000  0.5541030000000 1.0
C      1  0.5847070000000  0.4306180000000  0.5234890000000 1.0
C      1  0.5177330000000  0.6080490000000  0.5234880000000 1.0
C      1  0.3975600000000  0.4613330000000  0.5234880000000 1.0
C      1  0.4780000000000  0.6091680000000  0.4907130000000 1.0
C      1  0.4164570000000  0.4263630000000  0.4907140000000 1.0
C      1  0.6055430000000  0.4644680000000  0.4907140000000 1.0
C      1  0.4729020000000  0.5629110000000  0.5355230000000 1.0
C      1  0.4590660000000  0.4450770000000  0.5355240000000 1.0
C      1  0.5680320000000  0.4920120000000  0.5355240000000 1.0
C      1  0.5374850000000  0.5302580000000  0.4990050000000 1.0
C      1  0.4550540000000  0.5173340000000  0.4990050000000 1.0
C      1  0.5074610000000  0.4524080000000  0.4990050000000 1.0
C      1  0.4988290000000  0.4208450000000  0.4035570000000 1.0
C      1  0.5691360000000  0.5385630000000  0.4035570000000 1.0
C      1  0.4320360000000  0.5405910000000  0.4035560000000 1.0
C      1  0.5112550000000  0.4527620000000  0.6037420000000 1.0
C      1  0.5352820000000  0.5333670000000  0.6037410000000 1.0
C      1  0.4534620000000  0.5138720000000  0.6037410000000 1.0
C      1  0.5423550000000  0.5557420000000  0.4309340000000 1.0
C      1  0.4305480000000  0.5088090000000  0.4309340000000 1.0
C      1  0.5270970000000  0.4354480000000  0.4309350000000 1.0
C      1  0.4703630000000  0.5045650000000  0.3888940000000 1.0
C      1  0.5108650000000  0.4720500000000  0.3888950000000 1.0
C      1  0.5187730000000  0.5233840000000  0.3888950000000 1.0
C      1  0.5460360000000  0.5512420000000  0.5186600000000 1.0
C      1  0.4326050000000  0.5142480000000  0.5186600000000 1.0
C      1  0.5213580000000  0.4345110000000  0.5186600000000 1.0
C      1  0.4051900000000  0.5226740000000  0.4382490000000 1.0
C      1  0.5277690000000  0.4065550000000  0.4382500000000 1.0
C      1  0.5670420000000  0.5707710000000  0.4382500000000 1.0
C      1  0.5872240000000  0.5568290000000  0.4212030000000 1.0
C      1  0.4071730000000  0.5471230000000  0.4212030000000 1.0
C      1  0.5056040000000  0.3960470000000  0.4212040000000 1.0
C      1  0.5614620000000  0.5069840000000  0.5787440000000 1.0
C      1  0.4632210000000  0.5497360000000  0.5787440000000 1.0
C      1  0.4753170000000  0.4432810000000  0.5787440000000 1.0
C      1  0.4341180000000  0.4029670000000  0.5324900000000 1.0
C      1  0.6169740000000  0.4914610000000  0.5324900000000 1.0
C      1  0.4489080000000  0.6055720000000  0.5324890000000 1.0
C      1  0.4213150000000  0.5326740000000  0.5720950000000 1.0
C      1  0.5110460000000  0.4155210000000  0.5720960000000 1.0
C      1  0.5676380000000  0.5518060000000  0.5720960000000 1.0
C      1  0.4130920000000  0.4680800000000  0.5727100000000 1.0
C      1  0.5710970000000  0.4406960000000  0.5727100000000 1.0
C      1  0.5158100000000  0.5912240000000  0.5727100000000 1.0
C      1  0.4627830000000  0.4689110000000  0.4485970000000 1.0
C      1  0.5455320000000  0.4833130000000  0.4485980000000 1.0
C      1  0.4916850000000  0.5477750000000  0.4485970000000 1.0
C      1  0.4777480000000  0.3915620000000  0.5544760000000 1.0
C      1  0.6050360000000  0.5349490000000  0.5544760000000 1.0
C      1  0.4172150000000  0.5734900000000  0.5544750000000 1.0
C      1  0.5079400000000  0.4255680000000  0.5983640000000 1.0
C      1  0.5604900000000  0.5440930000000  0.5983640000000 1.0
C      1  0.4315690000000  0.5303400000000  0.5983640000000 1.0
C      1  0.5461160000000  0.4467380000000  0.5272480000000 1.0
C      1  0.5230690000000  0.5665690000000  0.5272480000000 1.0
C      1  0.4308160000000  0.4866940000000  0.5272480000000 1.0
C      1  0.4706560000000  0.4954520000000  0.4539720000000 1.0
C      1  0.5186110000000  0.4768610000000  0.4539730000000 1.0
C      1  0.5107330000000  0.5276870000000  0.4539720000000 1.0
C      1  0.3736990000000  0.5203510000000  0.4786030000000 1.0
C      1  0.5455260000000  0.3804440000000  0.4786040000000 1.0
C      1  0.5807750000000  0.5992040000000  0.4786030000000 1.0
C      1  0.4195690000000  0.5056970000000  0.4797120000000 1.0
C      1  0.5352820000000  0.4274960000000  0.4797120000000 1.0
C      1  0.5451500000000  0.5668070000000  0.4797120000000 1.0
C      1  0.4861620000000  0.5581640000000  0.4888420000000 1.0
C      1  0.4565480000000  0.4589340000000  0.4888420000000 1.0
C      1  0.5572910000000  0.4829020000000  0.4888420000000 1.0
C      1  0.4925980000000  0.5198600000000  0.6176510000000 1.0
C      1  0.4865010000000  0.4836610000000  0.6176510000000 1.0
C      1  0.5209000000000  0.4964800000000  0.6176510000000 1.0
C      1  0.5895920000000  0.4481770000000  0.5492710000000 1.0
C      1  0.5000840000000  0.6035010000000  0.5492700000000 1.0
C      1  0.4103240000000  0.4483220000000  0.5492700000000 1.0
C      1  0.4539290000000  0.6009820000000  0.4458330000000 1.0
C      1  0.4355830000000  0.4096100000000  0.4458340000000 1.0
C      1  0.6104890000000  0.4894080000000  0.4458340000000 1.0
C      1  0.5491840000000  0.6064090000000  0.5167710000000 1.0
C      1  0.3832550000000  0.4893910000000  0.5167710000000 1.0
C      1  0.5675600000000  0.4042010000000  0.5167720000000 1.0
C      1  0.4752240000000  0.5965290000000  0.4643910000000 1.0
C      1  0.4287920000000  0.4302780000000  0.4643910000000 1.0
C      1  0.5959850000000  0.4731920000000  0.4643920000000 1.0
C      1  0.5130270000000  0.4795520000000  0.5068880000000 1.0
C      1  0.5111950000000  0.5215050000000  0.5068880000000 1.0
C      1  0.4757780000000  0.4989430000000  0.5068880000000 1.0
C      1  0.5537940000000  0.4594580000000  0.4076640000000 1.0
C      1  0.5082130000000  0.5668570000000  0.4076630000000 1.0
C      1  0.4379940000000  0.4736840000000  0.4076640000000 1.0
C      1  0.5800120000000  0.4123440000000  0.4708240000000 1.0
C      1  0.5359070000000  0.6131200000000  0.4708230000000 1.0
C      1  0.3840820000000  0.4745360000000  0.4708230000000 1.0
END
