TITL C-1413371-123-30 1.25923860782951e-05 125000 -36.3332102588545 0 0 9 (C3) n - 1
REM
REM in /home/nfs/bkarasulu/CARBON/AIRSS/Generating-Clusters/TERSOFF/Higher-Symm/FIRE-HFTN
REM
REM
REM
REM
REM
REM ./C.cell (b20cbc046b6831c77cfcea5457e17084)
REM AIRSS Version 0.9.1 bugfix July 2018 build 013d7b7c2542+ Fri, 06 Jul 2018 19:26:36 +0100
REM compiler GCC version 9.2.1 20190827 (Red Hat 9.2.1-1)
REM options -cpp -mtune=generic -march=x86-64 -g -O0 -fpre-include=/usr/include/finclude/math-vector-fortran.h
REM seed -1414822079 1104894314 153015808 62363088 -1163834098 -2049355565 217649042 1553199317 -2128977062 828880569 -32027826 -93918202 -1969231867 -2032326700 1563400397 155264026 209955766 -933794174 -1251257024 2093657926 -1900720781 -904609706 -1676567779 88625839 -1219668261 1019507010 -825317625 -439375132 -944286273 -1716878029 -613071284 -313222941 -1253558156
REM
CELL 1.54180   50.00000   50.00000   50.00000   90.00000   90.00000   90.00000
LATT -1
SFAC C  
C      1  0.5034810000000  0.4764680000000  0.4800680000000 1.0
C      1  0.4809980000000  0.4764680000000  0.5069510000000 1.0
C      1  0.5155210000000  0.4764680000000  0.5129800000000 1.0
C      1  0.5141380000000  0.5252900000000  0.4684760000000 1.0
C      1  0.4656310000000  0.5252900000000  0.5035180000000 1.0
C      1  0.5202310000000  0.5252900000000  0.5280060000000 1.0
C      1  0.5067610000000  0.4982420000000  0.4612830000000 1.0
C      1  0.4630890000000  0.4982420000000  0.5135030000000 1.0
C      1  0.5301490000000  0.4982420000000  0.5252140000000 1.0
END
