TITL C-1413370-9911-28 0.0016279354325395 125000 -592.730504986243 0 0 103 (C2) n - 1
REM
REM in /home/nfs/bkarasulu/CARBON/AIRSS/Generating-Clusters/TERSOFF/Higher-Symm/FIRE-HFTN
REM
REM
REM
REM
REM
REM ./C.cell (b20cbc046b6831c77cfcea5457e17084)
REM AIRSS Version 0.9.1 bugfix July 2018 build 013d7b7c2542+ Fri, 06 Jul 2018 19:26:36 +0100
REM compiler GCC version 9.2.1 20190827 (Red Hat 9.2.1-1)
REM options -cpp -mtune=generic -march=x86-64 -g -O0 -fpre-include=/usr/include/finclude/math-vector-fortran.h
REM seed -674542352 -1999787525 1819263983 -1487831434 -410985423 -1699098828 -866374163 739740023 -913320869 1180354503 -440111516 1230439853 -1588247686 835204277 -1647398396 -11110299 1422814486 1991877515 59760214 749161171 -254231356 400724407 -1285826866 -2135431334 -430600655 -1478247880 -801710555 -521848948 -1971902608 283739879 1069299734 -579014814 -2061022290
REM
CELL 1.54180   50.00000   50.00000   50.00000   90.00000   90.00000   90.00000
LATT -1
SFAC C  
C      1  0.4451840000000  0.5181830000000  0.5541780000000 1.0
C      1  0.5548910000000  0.5181800000000  0.4458870000000 1.0
C      1  0.5277010000000  0.5766990000000  0.5536660000000 1.0
C      1  0.4723790000000  0.5767010000000  0.4463990000000 1.0
C      1  0.5346940000000  0.4913450000000  0.5213620000000 1.0
C      1  0.4653800000000  0.4913480000000  0.4787030000000 1.0
C      1  0.4911830000000  0.5367780000000  0.5252300000000 1.0
C      1  0.5088950000000  0.5367770000000  0.4748350000000 1.0
C      1  0.4540540000000  0.5181750000000  0.4945140000000 1.0
C      1  0.5460220000000  0.5181710000000  0.5055500000000 1.0
C      1  0.5247300000000  0.5082940000000  0.4317860000000 1.0
C      1  0.4753460000000  0.5082950000000  0.5682790000000 1.0
C      1  0.4838040000000  0.4615870000000  0.4379490000000 1.0
C      1  0.5162680000000  0.4615850000000  0.5621140000000 1.0
C      1  0.4188360000000  0.4974550000000  0.5157290000000 1.0
C      1  0.5812390000000  0.4974490000000  0.4843360000000 1.0
C      1  0.4972520000000  0.5033810000000  0.4004940000000 1.0
C      1  0.5028230000000  0.5033790000000  0.5995700000000 1.0
C      1  0.5163450000000  0.5141730000000  0.5613680000000 1.0
C      1  0.4837310000000  0.5141760000000  0.4386970000000 1.0
C      1  0.4822780000000  0.4845490000000  0.5490640000000 1.0
C      1  0.5177950000000  0.4845490000000  0.4510000000000 1.0
C      1  0.5511780000000  0.4771100000000  0.5447070000000 1.0
C      1  0.4488950000000  0.4771140000000  0.4553570000000 1.0
C      1  0.5806860000000  0.4614150000000  0.5193760000000 1.0
C      1  0.4193860000000  0.4614210000000  0.4806880000000 1.0
C      1  0.4854000000000  0.5157570000000  0.4666750000000 1.0
C      1  0.5146760000000  0.5157550000000  0.5333890000000 1.0
C      1  0.5141780000000  0.4295350000000  0.4727930000000 1.0
C      1  0.4858920000000  0.4295360000000  0.5272710000000 1.0
C      1  0.5423160000000  0.4237200000000  0.5144410000000 1.0
C      1  0.4577530000000  0.4237230000000  0.4856220000000 1.0
C      1  0.5204850000000  0.4710380000000  0.5048100000000 1.0
C      1  0.4795880000000  0.4710400000000  0.4952540000000 1.0
C      1  0.5557510000000  0.5416240000000  0.5725730000000 1.0
C      1  0.4443270000000  0.5416300000000  0.4274910000000 1.0
C      1  0.5134450000000  0.4595880000000  0.3982240000000 1.0
C      1  0.4866270000000  0.4595870000000  0.6018400000000 1.0
C      1  0.4644920000000  0.4245300000000  0.4574070000000 1.0
C      1  0.5355770000000  0.4245260000000  0.5426560000000 1.0
C      1  0.5061020000000  0.4192800000000  0.5514570000000 1.0
C      1  0.4939670000000  0.4192810000000  0.4486060000000 1.0
C      1  0.5189530000000  0.5830530000000  0.4588040000000 1.0
C      1  0.4811270000000  0.5830540000000  0.5412610000000 1.0
C      1  0.5636660000000  0.5222730000000  0.4775100000000 1.0
C      1  0.4364100000000  0.5222780000000  0.5225550000000 1.0
C      1  0.5695970000000  0.5161430000000  0.5289150000000 1.0
C      1  0.4304790000000  0.5161490000000  0.4711490000000 1.0
C      1  0.4760830000000  0.4885500000000  0.4241470000000 1.0
C      1  0.5239910000000  0.4885470000000  0.5759170000000 1.0
C      1  0.5250320000000  0.5396380000000  0.5005320000000 1.0
C      1  0.4750460000000  0.5396400000000  0.4995330000000 1.0
C      1  0.5382640000000  0.4412110000000  0.4595990000000 1.0
C      1  0.4618060000000  0.4412130000000  0.5404640000000 1.0
C      1  0.4534690000000  0.4734790000000  0.5781580000000 1.0
C      1  0.5466040000000  0.4734770000000  0.4219060000000 1.0
C      1  0.5045070000000  0.5934350000000  0.5537930000000 1.0
C      1  0.4955750000000  0.5934360000000  0.4462730000000 1.0
C      1  0.5648770000000  0.4889210000000  0.4391090000000 1.0
C      1  0.4351970000000  0.4889250000000  0.5609550000000 1.0
C      1  0.5207780000000  0.4152500000000  0.4967620000000 1.0
C      1  0.4792900000000  0.4152520000000  0.5033010000000 1.0
C      1  0.4367890000000  0.5537650000000  0.5133440000000 1.0
C      1  0.5632900000000  0.5537610000000  0.4867210000000 1.0
C      1  0.4362370000000  0.4430110000000  0.4972670000000 1.0
C      1  0.5638340000000  0.4430060000000  0.5027960000000 1.0
C      1  0.4565170000000  0.5451900000000  0.5614660000000 1.0
C      1  0.5435610000000  0.5451880000000  0.4385990000000 1.0
C      1  0.5042690000000  0.4427230000000  0.4231940000000 1.0
C      1  0.4958020000000  0.4427220000000  0.5768700000000 1.0
C      1  0.5213990000000  0.5548310000000  0.4538420000000 1.0
C      1  0.4786800000000  0.5548310000000  0.5462230000000 1.0
C      1  0.4735290000000  0.4886750000000  0.5988860000000 1.0
C      1  0.5265450000000  0.4886740000000  0.4011780000000 1.0
C      1  0.5387910000000  0.5681510000000  0.5029750000000 1.0
C      1  0.4612890000000  0.5681540000000  0.4970900000000 1.0
C      1  0.5751570000000  0.4757370000000  0.4645390000000 1.0
C      1  0.4249160000000  0.4757420000000  0.5355250000000 1.0
C      1  0.4776300000000  0.5886270000000  0.5129820000000 1.0
C      1  0.5224510000000  0.5886260000000  0.4870830000000 1.0
C      1  0.4855360000000  0.4890730000000  0.5195400000000 1.0
C      1  0.5145380000000  0.4890720000000  0.4805240000000 1.0
C      1  0.5439940000000  0.4490170000000  0.5557750000000 1.0
C      1  0.4560770000000  0.4490210000000  0.4442890000000 1.0
C      1  0.4727290000000  0.4574740000000  0.5611710000000 1.0
C      1  0.5273430000000  0.4574730000000  0.4388920000000 1.0
C      1  0.4358640000000  0.5176350000000  0.4413260000000 1.0
C      1  0.5642120000000  0.5176300000000  0.5587380000000 1.0
C      1  0.4712800000000  0.5530700000000  0.4289080000000 1.0
C      1  0.5287990000000  0.5530670000000  0.5711570000000 1.0
C      1  0.5001560000000  0.5330270000000  0.4210420000000 1.0
C      1  0.4999210000000  0.5330250000000  0.5790230000000 1.0
C      1  0.4542310000000  0.5774490000000  0.4695470000000 1.0
C      1  0.5458500000000  0.5774450000000  0.5305180000000 1.0
C      1  0.5839830000000  0.4910220000000  0.5133020000000 1.0
C      1  0.4160910000000  0.4910280000000  0.4867620000000 1.0
C      1  0.5076990000000  0.4547700000000  0.5291340000000 1.0
C      1  0.4923720000000  0.4547710000000  0.4709290000000 1.0
C      1  0.4386080000000  0.4506690000000  0.5256520000000 1.0
C      1  0.5614630000000  0.4506650000000  0.4744110000000 1.0
C      1  0.4452680000000  0.4929220000000  0.4302810000000 1.0
C      1  0.5548070000000  0.4929170000000  0.5697830000000 1.0
C      1  0.5000410000000  0.6022870000000  0.5000330000000 1.0
END
