TITL C-1413366-9091-21 -6.34581008612398e-06 125000 -216.896386731914 0 0 44 (C5) n - 1
REM
REM in /home/nfs/bkarasulu/CARBON/AIRSS/Generating-Clusters/TERSOFF/Higher-Symm/FIRE-HFTN
REM
REM
REM
REM
REM
REM ./C.cell (b20cbc046b6831c77cfcea5457e17084)
REM AIRSS Version 0.9.1 bugfix July 2018 build 013d7b7c2542+ Fri, 06 Jul 2018 19:26:36 +0100
REM compiler GCC version 9.2.1 20190827 (Red Hat 9.2.1-1)
REM options -cpp -mtune=generic -march=x86-64 -g -O0 -fpre-include=/usr/include/finclude/math-vector-fortran.h
REM seed -316174319 703328963 -1604380115 1451149000 1129449434 886575336 -1848305741 1522293392 -2137835296 -1574851055 1955000885 -204589327 -665252199 -764833580 -1061276155 1221279130 405790212 -844488060 -700143725 -936967705 -26653952 -1011984353 103727538 185700351 77321120 -536100678 -1783701959 -33653954 414336083 -877239147 1268930079 -922233228 -1618712189
REM
CELL 1.54180   50.00000   50.00000   50.00000   90.00000   90.00000   90.00000
LATT -1
SFAC C  
C      1  0.4352210000000  0.5044650000000  0.5351460000000 1.0
C      1  0.4352200000000  0.5339590000000  0.5052650000000 1.0
C      1  0.4352200000000  0.5146550000000  0.4679800000000 1.0
C      1  0.4352210000000  0.4732300000000  0.4748180000000 1.0
C      1  0.4352210000000  0.4669320000000  0.5163290000000 1.0
C      1  0.5582840000000  0.5044660000000  0.4646690000000 1.0
C      1  0.5582840000000  0.5339600000000  0.4945500000000 1.0
C      1  0.5582840000000  0.5146550000000  0.5318340000000 1.0
C      1  0.5582840000000  0.4732300000000  0.5249960000000 1.0
C      1  0.5582840000000  0.4669330000000  0.4834850000000 1.0
C      1  0.4749400000000  0.5253450000000  0.5236440000000 1.0
C      1  0.4749400000000  0.5294730000000  0.4818520000000 1.0
C      1  0.4749400000000  0.4910020000000  0.4650120000000 1.0
C      1  0.4749400000000  0.4630980000000  0.4963960000000 1.0
C      1  0.4749410000000  0.4843230000000  0.5326320000000 1.0
C      1  0.5185640000000  0.5253450000000  0.4761700000000 1.0
C      1  0.5185640000000  0.5294730000000  0.5179620000000 1.0
C      1  0.5185640000000  0.4910020000000  0.5348020000000 1.0
C      1  0.5185640000000  0.4630980000000  0.5034180000000 1.0
C      1  0.5185640000000  0.4843230000000  0.4671820000000 1.0
C      1  0.5343260000000  0.4483160000000  0.4824190000000 1.0
C      1  0.5343260000000  0.4664630000000  0.5423720000000 1.0
C      1  0.5343260000000  0.5290890000000  0.5436400000000 1.0
C      1  0.5343250000000  0.5496470000000  0.4844700000000 1.0
C      1  0.5343250000000  0.4997270000000  0.4466340000000 1.0
C      1  0.4591790000000  0.4483150000000  0.5173950000000 1.0
C      1  0.4591790000000  0.4664630000000  0.4574420000000 1.0
C      1  0.4591780000000  0.5290890000000  0.4561750000000 1.0
C      1  0.4591790000000  0.5496470000000  0.5153440000000 1.0
C      1  0.4591790000000  0.4997260000000  0.5531810000000 1.0
C      1  0.4827020000000  0.5553050000000  0.4952590000000 1.0
C      1  0.4827020000000  0.5117350000000  0.4445870000000 1.0
C      1  0.4827020000000  0.4500790000000  0.4703660000000 1.0
C      1  0.4827020000000  0.4555440000000  0.5369700000000 1.0
C      1  0.4827020000000  0.5205770000000  0.5523550000000 1.0
C      1  0.5108020000000  0.5553050000000  0.5045560000000 1.0
C      1  0.5108030000000  0.5117350000000  0.5552280000000 1.0
C      1  0.5108030000000  0.4500790000000  0.5294480000000 1.0
C      1  0.5108020000000  0.4555440000000  0.4628440000000 1.0
C      1  0.5108020000000  0.5205780000000  0.4474590000000 1.0
C      1  0.4365120000000  0.4986480000000  0.4999080000000 1.0
C      1  0.5569930000000  0.4986490000000  0.4999070000000 1.0
C      1  0.4734170000000  0.4986480000000  0.4999070000000 1.0
C      1  0.5200870000000  0.4986480000000  0.4999070000000 1.0
END
