TITL C-1413365-9085-9 0.00142848746590693 125000 -446.954656870809 0 0 84 (C3i) n - 1
REM
REM in /home/nfs/bkarasulu/CARBON/AIRSS/Generating-Clusters/TERSOFF/Higher-Symm/FIRE-HFTN
REM
REM
REM
REM
REM
REM ./C.cell (b20cbc046b6831c77cfcea5457e17084)
REM AIRSS Version 0.9.1 bugfix July 2018 build 013d7b7c2542+ Fri, 06 Jul 2018 19:26:36 +0100
REM compiler GCC version 9.2.1 20190827 (Red Hat 9.2.1-1)
REM options -cpp -mtune=generic -march=x86-64 -g -O0 -fpre-include=/usr/include/finclude/math-vector-fortran.h
REM seed 113105645 562836210 -1958511255 1892250379 1931727027 367796015 570482786 415822261 -1823584199 96382643 -1654172588 711432244 -492659873 -2078419896 1010577928 1023202258 1359218785 -1442453814 1309268055 -140584824 504226318 -1971151968 822922752 -665247918 1766088336 81972750 -489890211 1102958113 -141380794 -1898776682 358838443 -1361741092 -2075606890
REM
CELL 1.54180   50.00000   50.00000   50.00000   90.00000   90.00000   90.00000
LATT -1
SFAC C  
C      1  0.4471310000000  0.5108040000000  0.4370670000000 1.0
C      1  0.5809360000000  0.5108040000000  0.4856810000000 1.0
C      1  0.4719330000000  0.5108040000000  0.5772520000000 1.0
C      1  0.5528690000000  0.4891960000000  0.4370670000000 1.0
C      1  0.4190640000000  0.4891960000000  0.4856810000000 1.0
C      1  0.5280670000000  0.4891960000000  0.5772520000000 1.0
C      1  0.5528690000000  0.4891960000000  0.5629330000000 1.0
C      1  0.4190640000000  0.4891960000000  0.5143190000000 1.0
C      1  0.5280670000000  0.4891960000000  0.4227480000000 1.0
C      1  0.4471310000000  0.5108040000000  0.5629330000000 1.0
C      1  0.5809360000000  0.5108040000000  0.5143190000000 1.0
C      1  0.4719330000000  0.5108040000000  0.4227480000000 1.0
C      1  0.5260130000000  0.5710520000000  0.4851110000000 1.0
C      1  0.4998880000000  0.5710520000000  0.5299730000000 1.0
C      1  0.4740990000000  0.5710520000000  0.4849160000000 1.0
C      1  0.4739870000000  0.4289480000000  0.4851110000000 1.0
C      1  0.5001120000000  0.4289480000000  0.5299730000000 1.0
C      1  0.5259010000000  0.4289480000000  0.4849160000000 1.0
C      1  0.4739870000000  0.4289480000000  0.5148890000000 1.0
C      1  0.5001120000000  0.4289480000000  0.4700270000000 1.0
C      1  0.5259010000000  0.4289480000000  0.5150840000000 1.0
C      1  0.5260130000000  0.5710520000000  0.5148890000000 1.0
C      1  0.4998880000000  0.5710520000000  0.4700270000000 1.0
C      1  0.4740990000000  0.5710520000000  0.5150840000000 1.0
C      1  0.4532610000000  0.5516070000000  0.4727080000000 1.0
C      1  0.5470050000000  0.5516070000000  0.4731690000000 1.0
C      1  0.4997340000000  0.5516070000000  0.5541230000000 1.0
C      1  0.5467390000000  0.4483930000000  0.4727080000000 1.0
C      1  0.4529950000000  0.4483930000000  0.4731690000000 1.0
C      1  0.5002660000000  0.4483930000000  0.5541230000000 1.0
C      1  0.5467390000000  0.4483930000000  0.5272920000000 1.0
C      1  0.4529950000000  0.4483930000000  0.5268310000000 1.0
C      1  0.5002660000000  0.4483930000000  0.4458770000000 1.0
C      1  0.4532610000000  0.5516070000000  0.5272920000000 1.0
C      1  0.5470050000000  0.5516070000000  0.5268310000000 1.0
C      1  0.4997340000000  0.5516070000000  0.4458770000000 1.0
C      1  0.5302750000000  0.5209150000000  0.5180400000000 1.0
C      1  0.4692390000000  0.5209150000000  0.5171990000000 1.0
C      1  0.5004860000000  0.5209150000000  0.4647600000000 1.0
C      1  0.4697250000000  0.4790850000000  0.5180400000000 1.0
C      1  0.5307610000000  0.4790850000000  0.5171990000000 1.0
C      1  0.4995140000000  0.4790850000000  0.4647600000000 1.0
C      1  0.4697250000000  0.4790850000000  0.4819600000000 1.0
C      1  0.5307610000000  0.4790850000000  0.4828010000000 1.0
C      1  0.4995140000000  0.4790850000000  0.5352400000000 1.0
C      1  0.5302750000000  0.5209150000000  0.4819600000000 1.0
C      1  0.4692390000000  0.5209150000000  0.4828010000000 1.0
C      1  0.5004860000000  0.5209150000000  0.5352400000000 1.0
C      1  0.4428140000000  0.5394750000000  0.5542660000000 1.0
C      1  0.4815980000000  0.5394750000000  0.4233430000000 1.0
C      1  0.5755880000000  0.5394750000000  0.5223920000000 1.0
C      1  0.5571860000000  0.4605250000000  0.5542660000000 1.0
C      1  0.5184020000000  0.4605250000000  0.4233430000000 1.0
C      1  0.4244120000000  0.4605250000000  0.5223920000000 1.0
C      1  0.5571860000000  0.4605250000000  0.4457340000000 1.0
C      1  0.5184020000000  0.4605250000000  0.5766570000000 1.0
C      1  0.4244120000000  0.4605250000000  0.4776080000000 1.0
C      1  0.4428140000000  0.5394750000000  0.4457340000000 1.0
C      1  0.4815980000000  0.5394750000000  0.5766570000000 1.0
C      1  0.5755880000000  0.5394750000000  0.4776080000000 1.0
C      1  0.4745680000000  0.4556760000000  0.4266310000000 1.0
C      1  0.5762560000000  0.4556760000000  0.5146590000000 1.0
C      1  0.4491770000000  0.4556760000000  0.5587100000000 1.0
C      1  0.5254320000000  0.5443240000000  0.4266310000000 1.0
C      1  0.4237440000000  0.5443240000000  0.5146590000000 1.0
C      1  0.5508230000000  0.5443240000000  0.5587100000000 1.0
C      1  0.5254320000000  0.5443240000000  0.5733690000000 1.0
C      1  0.4237440000000  0.5443240000000  0.4853410000000 1.0
C      1  0.5508230000000  0.5443240000000  0.4412900000000 1.0
C      1  0.4745680000000  0.4556760000000  0.5733690000000 1.0
C      1  0.5762560000000  0.4556760000000  0.4853410000000 1.0
C      1  0.4491770000000  0.4556760000000  0.4412900000000 1.0
C      1  0.4337060000000  0.5150090000000  0.4786270000000 1.0
C      1  0.5516570000000  0.5150090000000  0.4532740000000 1.0
C      1  0.5146370000000  0.5150090000000  0.5680990000000 1.0
C      1  0.5662940000000  0.4849910000000  0.4786270000000 1.0
C      1  0.4483430000000  0.4849910000000  0.4532740000000 1.0
C      1  0.4853630000000  0.4849910000000  0.5680990000000 1.0
C      1  0.5662940000000  0.4849910000000  0.5213730000000 1.0
C      1  0.4483430000000  0.4849910000000  0.5467260000000 1.0
C      1  0.4853630000000  0.4849910000000  0.4319010000000 1.0
C      1  0.4337060000000  0.5150090000000  0.5213730000000 1.0
C      1  0.5516570000000  0.5150090000000  0.5467260000000 1.0
C      1  0.5146370000000  0.5150090000000  0.4319010000000 1.0
END
