TITL C-1413367-9598-10 0.000414357421771687 125000 -392.495452830652 0 0 82 (C2) n - 1
REM
REM in /home/nfs/bkarasulu/CARBON/AIRSS/Generating-Clusters/TERSOFF/Higher-Symm/FIRE-HFTN
REM
REM
REM
REM
REM
REM ./C.cell (b20cbc046b6831c77cfcea5457e17084)
REM AIRSS Version 0.9.1 bugfix July 2018 build 013d7b7c2542+ Fri, 06 Jul 2018 19:26:36 +0100
REM compiler GCC version 9.2.1 20190827 (Red Hat 9.2.1-1)
REM options -cpp -mtune=generic -march=x86-64 -g -O0 -fpre-include=/usr/include/finclude/math-vector-fortran.h
REM seed -353035215 -1328526151 -1655037498 1246583434 -1586128136 -681509365 372402679 1306458884 1695404594 1654481888 -1608414664 -1918020844 -1703701069 -175281894 -1938179995 1753158736 -1819429129 2089243516 -808938382 -777967502 1570209177 927246493 -1789005654 -1415401854 -1792330612 1582450861 149157267 -289399953 501116229 -1129689756 2023847503 -1967035966 527832412
REM
CELL 1.54180   50.00000   50.00000   50.00000   90.00000   90.00000   90.00000
LATT -1
SFAC C  
C      1  0.4439620000000  0.4970280000000  0.4678280000000 1.0
C      1  0.4439710000000  0.5029570000000  0.5321880000000 1.0
C      1  0.5534690000000  0.5010870000000  0.5329530000000 1.0
C      1  0.5534590000000  0.4989280000000  0.4670310000000 1.0
C      1  0.4443770000000  0.4669950000000  0.5016820000000 1.0
C      1  0.4443670000000  0.5329900000000  0.4983340000000 1.0
C      1  0.5551970000000  0.5330210000000  0.4967620000000 1.0
C      1  0.5552070000000  0.4669950000000  0.5032210000000 1.0
C      1  0.4535340000000  0.5751330000000  0.4866840000000 1.0
C      1  0.4535580000000  0.4248550000000  0.5133290000000 1.0
C      1  0.5424500000000  0.5785520000000  0.5144700000000 1.0
C      1  0.5424670000000  0.4214600000000  0.4855170000000 1.0
C      1  0.4550940000000  0.4851300000000  0.5783600000000 1.0
C      1  0.4550670000000  0.5148580000000  0.4216520000000 1.0
C      1  0.5441470000000  0.5136840000000  0.5773000000000 1.0
C      1  0.5441290000000  0.4863280000000  0.4226870000000 1.0
C      1  0.5513210000000  0.4376230000000  0.5165130000000 1.0
C      1  0.5512990000000  0.5623910000000  0.4834720000000 1.0
C      1  0.4449380000000  0.4409790000000  0.4817940000000 1.0
C      1  0.4449270000000  0.5590060000000  0.5182210000000 1.0
C      1  0.5519830000000  0.5170510000000  0.4399140000000 1.0
C      1  0.5520050000000  0.4829640000000  0.5600710000000 1.0
C      1  0.4471410000000  0.4837550000000  0.4385130000000 1.0
C      1  0.4471540000000  0.5162310000000  0.5615020000000 1.0
C      1  0.4726870000000  0.4143110000000  0.5345780000000 1.0
C      1  0.4726540000000  0.5856820000000  0.4654300000000 1.0
C      1  0.5232420000000  0.4173350000000  0.4624060000000 1.0
C      1  0.5232310000000  0.5826720000000  0.5375870000000 1.0
C      1  0.4721880000000  0.5390030000000  0.4148240000000 1.0
C      1  0.4722230000000  0.4609900000000  0.5851840000000 1.0
C      1  0.5234410000000  0.4646100000000  0.4179360000000 1.0
C      1  0.5234550000000  0.5353970000000  0.5820570000000 1.0
C      1  0.5041330000000  0.4614100000000  0.4384420000000 1.0
C      1  0.5041410000000  0.5385920000000  0.5615560000000 1.0
C      1  0.4930740000000  0.4556310000000  0.5657330000000 1.0
C      1  0.4930420000000  0.5443670000000  0.4342690000000 1.0
C      1  0.5044260000000  0.4387140000000  0.4605250000000 1.0
C      1  0.5044210000000  0.5612870000000  0.5394730000000 1.0
C      1  0.4934060000000  0.5673210000000  0.4574010000000 1.0
C      1  0.4934370000000  0.4326770000000  0.5426010000000 1.0
C      1  0.5262540000000  0.5640680000000  0.4624350000000 1.0
C      1  0.5262830000000  0.4359390000000  0.5375570000000 1.0
C      1  0.4714070000000  0.5620840000000  0.5385800000000 1.0
C      1  0.4714130000000  0.4379080000000  0.4614280000000 1.0
C      1  0.5261100000000  0.4620240000000  0.5628310000000 1.0
C      1  0.5260820000000  0.5379840000000  0.4371610000000 1.0
C      1  0.4720020000000  0.5370550000000  0.5650170000000 1.0
C      1  0.4719930000000  0.4629380000000  0.4349910000000 1.0
C      1  0.4759930000000  0.5314060000000  0.5028110000000 1.0
C      1  0.4760000000000  0.4685880000000  0.4971960000000 1.0
C      1  0.5235590000000  0.5315850000000  0.4901050000000 1.0
C      1  0.5235710000000  0.4684220000000  0.5098880000000 1.0
C      1  0.4750650000000  0.5067350000000  0.5280780000000 1.0
C      1  0.4750590000000  0.4932590000000  0.4719290000000 1.0
C      1  0.5222680000000  0.4933250000000  0.5323030000000 1.0
C      1  0.5222570000000  0.5066820000000  0.4676900000000 1.0
C      1  0.4915300000000  0.4802210000000  0.5440200000000 1.0
C      1  0.4915120000000  0.5197770000000  0.4559820000000 1.0
C      1  0.5045200000000  0.4807640000000  0.4631110000000 1.0
C      1  0.5045250000000  0.5192370000000  0.5368870000000 1.0
C      1  0.4937690000000  0.5412780000000  0.4761420000000 1.0
C      1  0.4937880000000  0.4587200000000  0.5238590000000 1.0
C      1  0.5058950000000  0.4604320000000  0.4839310000000 1.0
C      1  0.5058880000000  0.5395700000000  0.5160670000000 1.0
C      1  0.5573160000000  0.5489280000000  0.5233270000000 1.0
C      1  0.5573230000000  0.4510880000000  0.4766560000000 1.0
C      1  0.4395050000000  0.5477790000000  0.4707080000000 1.0
C      1  0.4395270000000  0.4522050000000  0.5293090000000 1.0
C      1  0.5572650000000  0.5287620000000  0.5475950000000 1.0
C      1  0.5572590000000  0.4712540000000  0.4523880000000 1.0
C      1  0.4408230000000  0.4768160000000  0.5485040000000 1.0
C      1  0.4408030000000  0.5231680000000  0.4515130000000 1.0
C      1  0.4843670000000  0.4949970000000  0.4228400000000 1.0
C      1  0.4843870000000  0.5049990000000  0.5771640000000 1.0
C      1  0.5148290000000  0.4937640000000  0.5762020000000 1.0
C      1  0.5148060000000  0.5062410000000  0.4237940000000 1.0
C      1  0.4824730000000  0.4271850000000  0.4943900000000 1.0
C      1  0.4824550000000  0.5728100000000  0.5056140000000 1.0
C      1  0.5127800000000  0.5748580000000  0.4943750000000 1.0
C      1  0.5128020000000  0.4251460000000  0.5056210000000 1.0
C      1  0.4323860000000  0.4999910000000  0.5000100000000 1.0
C      1  0.5647910000000  0.5000090000000  0.4999910000000 1.0
END
