TITL C-1413371-123-4 5.1132867813459e-08 125000 -844.92282180091 0 0 135 (Cs) n - 1
REM
REM in /home/nfs/bkarasulu/CARBON/AIRSS/Generating-Clusters/TERSOFF/Higher-Symm/FIRE-HFTN
REM
REM
REM
REM
REM
REM ./C.cell (b20cbc046b6831c77cfcea5457e17084)
REM AIRSS Version 0.9.1 bugfix July 2018 build 013d7b7c2542+ Fri, 06 Jul 2018 19:26:36 +0100
REM compiler GCC version 9.2.1 20190827 (Red Hat 9.2.1-1)
REM options -cpp -mtune=generic -march=x86-64 -g -O0 -fpre-include=/usr/include/finclude/math-vector-fortran.h
REM seed 171271577 1027978756 -1171641281 445895444 -1584215657 1738886082 1078622817 1236172681 385919617 1659987261 -717419817 -968443249 -1379847143 -612728955 912285316 1327964009 -1046955102 -565695848 -236534060 -877023959 1292495007 337609616 -767538444 1788659252 582988861 1138718659 73235855 -2053591583 -1829534344 -2000658287 383974959 1839686408 1765595201
REM
CELL 1.54180   50.00000   50.00000   50.00000   90.00000   90.00000   90.00000
LATT -1
SFAC C  
C      1  0.4998860000000  0.4716860000000  0.4676350000000 1.0
C      1  0.5278670000000  0.4716340000000  0.5162390000000 1.0
C      1  0.4718770000000  0.4716170000000  0.5161920000000 1.0
C      1  0.4994990000000  0.5284280000000  0.4671460000000 1.0
C      1  0.5279940000000  0.5280420000000  0.5164120000000 1.0
C      1  0.4718490000000  0.5282960000000  0.5162590000000 1.0
C      1  0.4998860000000  0.4716860000000  0.5323650000000 1.0
C      1  0.5278670000000  0.4716340000000  0.4837610000000 1.0
C      1  0.4718770000000  0.4716170000000  0.4838080000000 1.0
C      1  0.4994990000000  0.5284280000000  0.5328540000000 1.0
C      1  0.5279940000000  0.5280420000000  0.4835880000000 1.0
C      1  0.4718490000000  0.5282960000000  0.4837410000000 1.0
C      1  0.5731230000000  0.5776120000000  0.4854110000000 1.0
C      1  0.4754300000000  0.5776760000000  0.5704070000000 1.0
C      1  0.4503320000000  0.5781920000000  0.4437190000000 1.0
C      1  0.5733050000000  0.4213940000000  0.4855150000000 1.0
C      1  0.4755770000000  0.4213700000000  0.5709200000000 1.0
C      1  0.4504830000000  0.4214330000000  0.4435650000000 1.0
C      1  0.5731230000000  0.5776120000000  0.5145890000000 1.0
C      1  0.4754300000000  0.5776760000000  0.4295930000000 1.0
C      1  0.4503320000000  0.5781920000000  0.5562810000000 1.0
C      1  0.5733050000000  0.4213940000000  0.5144850000000 1.0
C      1  0.4755770000000  0.4213700000000  0.4290800000000 1.0
C      1  0.4504830000000  0.4214330000000  0.5564350000000 1.0
C      1  0.4492430000000  0.4714810000000  0.4421780000000 1.0
C      1  0.5751730000000  0.4714670000000  0.4849820000000 1.0
C      1  0.4752010000000  0.4713520000000  0.5727570000000 1.0
C      1  0.4488130000000  0.5285370000000  0.4423500000000 1.0
C      1  0.5765770000000  0.5274570000000  0.4821790000000 1.0
C      1  0.4730980000000  0.5258520000000  0.5762940000000 1.0
C      1  0.4492430000000  0.4714810000000  0.5578220000000 1.0
C      1  0.5751730000000  0.4714670000000  0.5150180000000 1.0
C      1  0.4752010000000  0.4713520000000  0.4272430000000 1.0
C      1  0.4488130000000  0.5285370000000  0.5576500000000 1.0
C      1  0.5765770000000  0.5274570000000  0.5178210000000 1.0
C      1  0.4730980000000  0.5258520000000  0.4237060000000 1.0
C      1  0.4481790000000  0.5148940000000  0.5299130000000 1.0
C      1  0.4993110000000  0.5150670000000  0.4395980000000 1.0
C      1  0.5516520000000  0.5147400000000  0.5305760000000 1.0
C      1  0.4481330000000  0.4850660000000  0.5299340000000 1.0
C      1  0.4999120000000  0.4849970000000  0.4401160000000 1.0
C      1  0.5515810000000  0.4849170000000  0.5301850000000 1.0
C      1  0.4481790000000  0.5148940000000  0.4700870000000 1.0
C      1  0.4993110000000  0.5150670000000  0.5604020000000 1.0
C      1  0.5516520000000  0.5147400000000  0.4694240000000 1.0
C      1  0.4481330000000  0.4850660000000  0.4700660000000 1.0
C      1  0.4999120000000  0.4849970000000  0.5598840000000 1.0
C      1  0.5515810000000  0.4849170000000  0.4698150000000 1.0
C      1  0.4997990000000  0.4371410000000  0.4688810000000 1.0
C      1  0.5267580000000  0.4371290000000  0.5155540000000 1.0
C      1  0.4728510000000  0.4371300000000  0.5155570000000 1.0
C      1  0.4996610000000  0.5626710000000  0.4689340000000 1.0
C      1  0.5265370000000  0.5624550000000  0.5155510000000 1.0
C      1  0.4727170000000  0.5627940000000  0.5155010000000 1.0
C      1  0.4997990000000  0.4371410000000  0.5311190000000 1.0
C      1  0.5267580000000  0.4371290000000  0.4844460000000 1.0
C      1  0.4728510000000  0.4371300000000  0.4844430000000 1.0
C      1  0.4996610000000  0.5626710000000  0.5310660000000 1.0
C      1  0.5265370000000  0.5624550000000  0.4844490000000 1.0
C      1  0.4727170000000  0.5627940000000  0.4844990000000 1.0
C      1  0.5259870000000  0.6057830000000  0.4848720000000 1.0
C      1  0.4997310000000  0.6059770000000  0.5302600000000 1.0
C      1  0.4735020000000  0.6060970000000  0.4848710000000 1.0
C      1  0.5259960000000  0.3937090000000  0.4848640000000 1.0
C      1  0.4997740000000  0.3937200000000  0.5302730000000 1.0
C      1  0.4735500000000  0.3937440000000  0.4848640000000 1.0
C      1  0.5259870000000  0.6057830000000  0.5151280000000 1.0
C      1  0.4997310000000  0.6059770000000  0.4697400000000 1.0
C      1  0.4735020000000  0.6060970000000  0.5151290000000 1.0
C      1  0.5259960000000  0.3937090000000  0.5151360000000 1.0
C      1  0.4997740000000  0.3937200000000  0.4697270000000 1.0
C      1  0.4735500000000  0.3937440000000  0.5151360000000 1.0
C      1  0.5242120000000  0.5282510000000  0.4266430000000 1.0
C      1  0.5501800000000  0.5282510000000  0.5585550000000 1.0
C      1  0.4245150000000  0.5283800000000  0.5149630000000 1.0
C      1  0.5246170000000  0.4714310000000  0.4270670000000 1.0
C      1  0.5505220000000  0.4713450000000  0.5579430000000 1.0
C      1  0.4245110000000  0.4715770000000  0.5149820000000 1.0
C      1  0.5242120000000  0.5282510000000  0.5733570000000 1.0
C      1  0.5501800000000  0.5282510000000  0.4414450000000 1.0
C      1  0.4245150000000  0.5283800000000  0.4850370000000 1.0
C      1  0.5246170000000  0.4714310000000  0.5729330000000 1.0
C      1  0.5505220000000  0.4713450000000  0.4420570000000 1.0
C      1  0.4245110000000  0.4715770000000  0.4850180000000 1.0
C      1  0.4996370000000  0.5849140000000  0.5539320000000 1.0
C      1  0.4527740000000  0.5851510000000  0.4729980000000 1.0
C      1  0.5464480000000  0.5846300000000  0.4729060000000 1.0
C      1  0.4997910000000  0.4147180000000  0.5540530000000 1.0
C      1  0.4529530000000  0.4147570000000  0.4729620000000 1.0
C      1  0.5466030000000  0.4147050000000  0.4729690000000 1.0
C      1  0.4996370000000  0.5849140000000  0.4460680000000 1.0
C      1  0.4527740000000  0.5851510000000  0.5270020000000 1.0
C      1  0.5464480000000  0.5846300000000  0.5270940000000 1.0
C      1  0.4997910000000  0.4147180000000  0.4459470000000 1.0
C      1  0.4529530000000  0.4147570000000  0.5270380000000 1.0
C      1  0.5466030000000  0.4147050000000  0.5270310000000 1.0
C      1  0.4842460000000  0.5532460000000  0.5856600000000 1.0
C      1  0.4328330000000  0.5538210000000  0.4435310000000 1.0
C      1  0.5824110000000  0.5536750000000  0.4692000000000 1.0
C      1  0.4843140000000  0.4460130000000  0.5860940000000 1.0
C      1  0.4330580000000  0.4461580000000  0.4435190000000 1.0
C      1  0.5821020000000  0.4460550000000  0.4703760000000 1.0
C      1  0.4842460000000  0.5532460000000  0.4143400000000 1.0
C      1  0.4328330000000  0.5538210000000  0.5564690000000 1.0
C      1  0.5824110000000  0.5536750000000  0.5308000000000 1.0
C      1  0.4843140000000  0.4460130000000  0.4139060000000 1.0
C      1  0.4330580000000  0.4461580000000  0.5564810000000 1.0
C      1  0.5821020000000  0.4460550000000  0.5296240000000 1.0
C      1  0.4260650000000  0.5784510000000  0.5144760000000 1.0
C      1  0.5236780000000  0.5782870000000  0.4290380000000 1.0
C      1  0.5487900000000  0.5782780000000  0.5565830000000 1.0
C      1  0.4262700000000  0.4215150000000  0.5144840000000 1.0
C      1  0.5240100000000  0.4213590000000  0.4290870000000 1.0
C      1  0.5490990000000  0.4213390000000  0.5564340000000 1.0
C      1  0.4260650000000  0.5784510000000  0.4855240000000 1.0
C      1  0.5236780000000  0.5782870000000  0.5709620000000 1.0
C      1  0.5487900000000  0.5782780000000  0.4434170000000 1.0
C      1  0.4262700000000  0.4215150000000  0.4855160000000 1.0
C      1  0.5240100000000  0.4213590000000  0.5709130000000 1.0
C      1  0.5490990000000  0.4213390000000  0.4435660000000 1.0
C      1  0.4173440000000  0.5537280000000  0.4704270000000 1.0
C      1  0.5663620000000  0.5538210000000  0.4426480000000 1.0
C      1  0.5149520000000  0.5535860000000  0.5861360000000 1.0
C      1  0.4175440000000  0.4462130000000  0.4704010000000 1.0
C      1  0.5666090000000  0.4459820000000  0.4434570000000 1.0
C      1  0.5153470000000  0.4460150000000  0.5861450000000 1.0
C      1  0.4173440000000  0.5537280000000  0.5295730000000 1.0
C      1  0.5663620000000  0.5538210000000  0.5573520000000 1.0
C      1  0.5149520000000  0.5535860000000  0.4138640000000 1.0
C      1  0.4175440000000  0.4462130000000  0.5295990000000 1.0
C      1  0.5666090000000  0.4459820000000  0.5565430000000 1.0
C      1  0.5153470000000  0.4460150000000  0.4138550000000 1.0
C      1  0.4670620000000  0.5082820000000  0.4004570000000 1.0
C      1  0.4670620000000  0.5082820000000  0.5995430000000 1.0
C      1  0.6003660000000  0.5091520000000  0.5000000000000 1.0
END
