TITL C-1413364-9095-1 0.716110753838299 125000 -215.503809908832 0 0 44 (C1) n - 1
REM
REM in /home/nfs/bkarasulu/CARBON/AIRSS/Generating-Clusters/TERSOFF/Higher-Symm/FIRE-HFTN
REM
REM
REM
REM
REM
REM ./C.cell (b20cbc046b6831c77cfcea5457e17084)
REM AIRSS Version 0.9.1 bugfix July 2018 build 013d7b7c2542+ Fri, 06 Jul 2018 19:26:36 +0100
REM compiler GCC version 9.2.1 20190827 (Red Hat 9.2.1-1)
REM options -cpp -mtune=generic -march=x86-64 -g -O0 -fpre-include=/usr/include/finclude/math-vector-fortran.h
REM seed 1163636110 -364171716 -2039806111 1282429585 822666461 -1065980883 -1323954014 1569531991 1966688349 416495982 -1964583420 -1180555763 1232376173 -206328601 -1542070001 -1572308786 -2122341842 -1412381083 -1931869364 1134012410 -1807187349 -148138174 1927478084 520087102 1569052832 1830858350 -1467908405 555464429 -551527829 721014417 1718446115 -1358729658 -844709802
REM
CELL 1.54180   50.00000   50.00000   50.00000   90.00000   90.00000   90.00000
LATT -1
SFAC C  
C      1  0.4495460000000  0.4932090000000  0.4573900000000 1.0
C      1  0.5108700000000  0.5003090000000  0.4344630000000 1.0
C      1  0.5587100000000  0.4984180000000  0.4736120000000 1.0
C      1  0.5475880000000  0.4897360000000  0.5379860000000 1.0
C      1  0.4905640000000  0.4840270000000  0.5589680000000 1.0
C      1  0.4397430000000  0.4855660000000  0.5175870000000 1.0
C      1  0.4895950000000  0.4961670000000  0.4717400000000 1.0
C      1  0.5160830000000  0.5108900000000  0.4773900000000 1.0
C      1  0.5265590000000  0.4957420000000  0.5016980000000 1.0
C      1  0.5082440000000  0.5069290000000  0.5244470000000 1.0
C      1  0.4816660000000  0.4921610000000  0.5182140000000 1.0
C      1  0.4708540000000  0.5076190000000  0.4940100000000 1.0
C      1  0.5348740000000  0.5079170000000  0.4543060000000 1.0
C      1  0.5567280000000  0.4977590000000  0.5068570000000 1.0
C      1  0.5188320000000  0.4960490000000  0.5503530000000 1.0
C      1  0.4623650000000  0.4887430000000  0.5418760000000 1.0
C      1  0.4429370000000  0.4981790000000  0.4883200000000 1.0
C      1  0.4787890000000  0.5005470000000  0.4430830000000 1.0
C      1  0.4488230000000  0.5830210000000  0.4859480000000 1.0
C      1  0.4881290000000  0.4132190000000  0.4534030000000 1.0
C      1  0.5432660000000  0.5714000000000  0.4662570000000 1.0
C      1  0.5536550000000  0.4355970000000  0.5215980000000 1.0
C      1  0.5208130000000  0.5836410000000  0.5451680000000 1.0
C      1  0.4627880000000  0.4262850000000  0.5330280000000 1.0
C      1  0.4363350000000  0.4262790000000  0.5212790000000 1.0
C      1  0.4360780000000  0.5814810000000  0.4600060000000 1.0
C      1  0.4991210000000  0.4146320000000  0.4266640000000 1.0
C      1  0.5676750000000  0.5711350000000  0.4818110000000 1.0
C      1  0.5518280000000  0.4287680000000  0.5496660000000 1.0
C      1  0.5070870000000  0.5890470000000  0.5700710000000 1.0
C      1  0.4932100000000  0.4631550000000  0.4737220000000 1.0
C      1  0.5085900000000  0.5380750000000  0.4871260000000 1.0
C      1  0.5194360000000  0.4667250000000  0.4962960000000 1.0
C      1  0.5033930000000  0.5384570000000  0.5218400000000 1.0
C      1  0.4883220000000  0.4647620000000  0.5078310000000 1.0
C      1  0.4757230000000  0.5385490000000  0.4990410000000 1.0
C      1  0.4953940000000  0.4308370000000  0.4752080000000 1.0
C      1  0.5169890000000  0.5651420000000  0.4766540000000 1.0
C      1  0.5309770000000  0.4395210000000  0.5040460000000 1.0
C      1  0.5092200000000  0.5696870000000  0.5226120000000 1.0
C      1  0.4864660000000  0.4371280000000  0.5203970000000 1.0
C      1  0.4733590000000  0.5694470000000  0.4931270000000 1.0
C      1  0.5008610000000  0.5832070000000  0.4960590000000 1.0
C      1  0.5061680000000  0.4208370000000  0.5026700000000 1.0
END
