TITL C-1413371-123-36 -5.44078286827576e-06 125000 -962.604811340267 0 0 171 (C1) n - 1
REM
REM in /home/nfs/bkarasulu/CARBON/AIRSS/Generating-Clusters/TERSOFF/Higher-Symm/FIRE-HFTN
REM
REM
REM
REM
REM
REM ./C.cell (b20cbc046b6831c77cfcea5457e17084)
REM AIRSS Version 0.9.1 bugfix July 2018 build 013d7b7c2542+ Fri, 06 Jul 2018 19:26:36 +0100
REM compiler GCC version 9.2.1 20190827 (Red Hat 9.2.1-1)
REM options -cpp -mtune=generic -march=x86-64 -g -O0 -fpre-include=/usr/include/finclude/math-vector-fortran.h
REM seed 482561876 1460418547 301046354 1743872830 -475180436 1413819170 1328118221 -1298788135 -595427287 -428531411 -821678161 1020947088 573936692 1897255303 -1370431688 -1827653361 1582880908 -791406786 1492894985 -768769409 1723744747 -1066886660 -1680190546 860918909 2123891344 -617182440 -107456921 -926915542 315491688 1690428050 1082671248 1080230274 95434552
REM
CELL 1.54180   50.00000   50.00000   50.00000   90.00000   90.00000   90.00000
LATT -1
SFAC C  
C      1  0.5727840000000  0.4454580000000  0.4482210000000 1.0
C      1  0.5735290000000  0.4329050000000  0.5357200000000 1.0
C      1  0.5701070000000  0.5128010000000  0.5735490000000 1.0
C      1  0.5729860000000  0.5743110000000  0.5100370000000 1.0
C      1  0.5729540000000  0.5332990000000  0.4321450000000 1.0
C      1  0.5459420000000  0.5669320000000  0.5639490000000 1.0
C      1  0.5485520000000  0.5869430000000  0.4549130000000 1.0
C      1  0.5476150000000  0.4847200000000  0.4111000000000 1.0
C      1  0.5483920000000  0.4035900000000  0.4861450000000 1.0
C      1  0.5490470000000  0.4572220000000  0.5841210000000 1.0
C      1  0.4382390000000  0.4989480000000  0.5258200000000 1.0
C      1  0.4355090000000  0.5249050000000  0.5099660000000 1.0
C      1  0.4370860000000  0.5176040000000  0.4797540000000 1.0
C      1  0.4337400000000  0.4871120000000  0.4770430000000 1.0
C      1  0.4385410000000  0.4742500000000  0.5066660000000 1.0
C      1  0.4497950000000  0.5125650000000  0.3973290000000 1.0
C      1  0.4437500000000  0.4039950000000  0.4487720000000 1.0
C      1  0.4481490000000  0.4284380000000  0.5769320000000 1.0
C      1  0.4474340000000  0.5470950000000  0.5929860000000 1.0
C      1  0.4433760000000  0.6082480000000  0.4844900000000 1.0
C      1  0.5452240000000  0.4028290000000  0.4557740000000 1.0
C      1  0.5458220000000  0.4285320000000  0.5790950000000 1.0
C      1  0.5422310000000  0.5537580000000  0.5898370000000 1.0
C      1  0.5451170000000  0.6048890000000  0.4794650000000 1.0
C      1  0.5452220000000  0.5096060000000  0.3956550000000 1.0
C      1  0.4511120000000  0.4305930000000  0.5147530000000 1.0
C      1  0.4536960000000  0.4923600000000  0.5710490000000 1.0
C      1  0.4514540000000  0.5659730000000  0.5288410000000 1.0
C      1  0.4511490000000  0.5482260000000  0.4472800000000 1.0
C      1  0.4529400000000  0.4652180000000  0.4386710000000 1.0
C      1  0.5791230000000  0.4196240000000  0.4907780000000 1.0
C      1  0.5776250000000  0.4665710000000  0.5729420000000 1.0
C      1  0.5758470000000  0.5582270000000  0.5535600000000 1.0
C      1  0.5793070000000  0.5707900000000  0.4602590000000 1.0
C      1  0.5765360000000  0.4843880000000  0.4235980000000 1.0
C      1  0.3866100000000  0.4941070000000  0.4746170000000 1.0
C      1  0.3875370000000  0.4746390000000  0.4977430000000 1.0
C      1  0.3878720000000  0.4904720000000  0.5233860000000 1.0
C      1  0.3870300000000  0.5198720000000  0.5163370000000 1.0
C      1  0.3868020000000  0.5221830000000  0.4862080000000 1.0
C      1  0.5172490000000  0.5150810000000  0.3903010000000 1.0
C      1  0.5176740000000  0.4030520000000  0.4463900000000 1.0
C      1  0.5176080000000  0.4216080000000  0.5794320000000 1.0
C      1  0.5142430000000  0.5519590000000  0.5975250000000 1.0
C      1  0.5174560000000  0.6106240000000  0.4869440000000 1.0
C      1  0.4569520000000  0.5618850000000  0.4754220000000 1.0
C      1  0.4637510000000  0.4963190000000  0.4418660000000 1.0
C      1  0.4565130000000  0.4356530000000  0.4841990000000 1.0
C      1  0.4633380000000  0.4671060000000  0.5519680000000 1.0
C      1  0.4623810000000  0.5407980000000  0.5466520000000 1.0
C      1  0.4785060000000  0.6132230000000  0.5220410000000 1.0
C      1  0.4757050000000  0.5455700000000  0.3976830000000 1.0
C      1  0.4796290000000  0.4220840000000  0.4164780000000 1.0
C      1  0.4754220000000  0.4026970000000  0.5561700000000 1.0
C      1  0.4772230000000  0.5133780000000  0.6090170000000 1.0
C      1  0.4585410000000  0.5465470000000  0.5046880000000 1.0
C      1  0.4625050000000  0.5216270000000  0.4604570000000 1.0
C      1  0.4578180000000  0.4656630000000  0.4704100000000 1.0
C      1  0.4632150000000  0.4590600000000  0.5209150000000 1.0
C      1  0.4613070000000  0.5083920000000  0.5446160000000 1.0
C      1  0.4138020000000  0.5669880000000  0.4911860000000 1.0
C      1  0.4165910000000  0.5112420000000  0.4353540000000 1.0
C      1  0.4146080000000  0.4416840000000  0.4675890000000 1.0
C      1  0.4167070000000  0.4533350000000  0.5452660000000 1.0
C      1  0.4165080000000  0.5291440000000  0.5580300000000 1.0
C      1  0.4216450000000  0.5004400000000  0.5643970000000 1.0
C      1  0.4193970000000  0.5632810000000  0.5203650000000 1.0
C      1  0.4206670000000  0.5384380000000  0.4469600000000 1.0
C      1  0.4204700000000  0.4617060000000  0.4462240000000 1.0
C      1  0.4208410000000  0.4381110000000  0.5201070000000 1.0
C      1  0.5642610000000  0.6008660000000  0.5006590000000 1.0
C      1  0.5632460000000  0.5308050000000  0.4040630000000 1.0
C      1  0.5644990000000  0.4182140000000  0.4407690000000 1.0
C      1  0.5637240000000  0.4173780000000  0.5591720000000 1.0
C      1  0.5597400000000  0.5309370000000  0.5949280000000 1.0
C      1  0.4778350000000  0.4584650000000  0.4158150000000 1.0
C      1  0.4668780000000  0.4064510000000  0.5258750000000 1.0
C      1  0.4796680000000  0.4809170000000  0.5934220000000 1.0
C      1  0.4762490000000  0.5842240000000  0.5441860000000 1.0
C      1  0.4669770000000  0.5610990000000  0.4238720000000 1.0
C      1  0.5324990000000  0.4719110000000  0.5606670000000 1.0
C      1  0.5331130000000  0.5480180000000  0.5414850000000 1.0
C      1  0.5390980000000  0.5596500000000  0.4649950000000 1.0
C      1  0.5292640000000  0.4897200000000  0.4383610000000 1.0
C      1  0.5390380000000  0.4317080000000  0.4940030000000 1.0
C      1  0.5028400000000  0.5622040000000  0.5019550000000 1.0
C      1  0.5002440000000  0.5328120000000  0.4325790000000 1.0
C      1  0.5017230000000  0.4521330000000  0.4640340000000 1.0
C      1  0.4995430000000  0.4366740000000  0.5389550000000 1.0
C      1  0.4980640000000  0.5175570000000  0.5657440000000 1.0
C      1  0.5897290000000  0.5031200000000  0.4726940000000 1.0
C      1  0.5899760000000  0.4743690000000  0.4891830000000 1.0
C      1  0.5898000000000  0.4813220000000  0.5210050000000 1.0
C      1  0.5901020000000  0.5140940000000  0.5244400000000 1.0
C      1  0.5905600000000  0.5274080000000  0.4939930000000 1.0
C      1  0.5841510000000  0.4457540000000  0.4758090000000 1.0
C      1  0.5842230000000  0.4597890000000  0.5440090000000 1.0
C      1  0.5818810000000  0.5288760000000  0.5512800000000 1.0
C      1  0.5847260000000  0.5583540000000  0.4877920000000 1.0
C      1  0.5836760000000  0.5068920000000  0.4420160000000 1.0
C      1  0.5068200000000  0.5829500000000  0.5277750000000 1.0
C      1  0.5024430000000  0.5642830000000  0.4240810000000 1.0
C      1  0.5082610000000  0.4497950000000  0.4293460000000 1.0
C      1  0.5016570000000  0.4051580000000  0.5235090000000 1.0
C      1  0.5119280000000  0.4971890000000  0.5922380000000 1.0
C      1  0.4709660000000  0.6123720000000  0.4912860000000 1.0
C      1  0.4794870000000  0.5156300000000  0.4084170000000 1.0
C      1  0.4714450000000  0.4047110000000  0.4413900000000 1.0
C      1  0.4783660000000  0.4316570000000  0.5685860000000 1.0
C      1  0.4762980000000  0.5382220000000  0.5861270000000 1.0
C      1  0.5164830000000  0.5823100000000  0.5586570000000 1.0
C      1  0.5149770000000  0.5864200000000  0.4434220000000 1.0
C      1  0.5207510000000  0.4667220000000  0.4045550000000 1.0
C      1  0.5144790000000  0.3976900000000  0.4955370000000 1.0
C      1  0.5222370000000  0.4675010000000  0.6009700000000 1.0
C      1  0.4090430000000  0.4892320000000  0.4547810000000 1.0
C      1  0.4101830000000  0.4544640000000  0.4953410000000 1.0
C      1  0.4109390000000  0.4828090000000  0.5413310000000 1.0
C      1  0.4097730000000  0.5352370000000  0.5290590000000 1.0
C      1  0.4092530000000  0.5402530000000  0.4760990000000 1.0
C      1  0.4353160000000  0.5818190000000  0.4781350000000 1.0
C      1  0.4406780000000  0.5020610000000  0.4223510000000 1.0
C      1  0.4352600000000  0.4211090000000  0.4696990000000 1.0
C      1  0.4397410000000  0.4517230000000  0.5626550000000 1.0
C      1  0.4387550000000  0.5456300000000  0.5657880000000 1.0
C      1  0.5489180000000  0.4438200000000  0.5198190000000 1.0
C      1  0.5464560000000  0.4997500000000  0.5564010000000 1.0
C      1  0.5492280000000  0.5536150000000  0.5146810000000 1.0
C      1  0.5483030000000  0.5345170000000  0.4509750000000 1.0
C      1  0.5486470000000  0.4646950000000  0.4555380000000 1.0
C      1  0.4880610000000  0.5356930000000  0.5120010000000 1.0
C      1  0.4921720000000  0.5352270000000  0.4626510000000 1.0
C      1  0.4855850000000  0.4807650000000  0.4758880000000 1.0
C      1  0.4939330000000  0.4500850000000  0.5092260000000 1.0
C      1  0.4913150000000  0.4960820000000  0.5402760000000 1.0
C      1  0.5511550000000  0.4986040000000  0.5266850000000 1.0
C      1  0.5508160000000  0.5244890000000  0.5071940000000 1.0
C      1  0.5501260000000  0.5166200000000  0.4763130000000 1.0
C      1  0.5507290000000  0.4847730000000  0.4785070000000 1.0
C      1  0.5506310000000  0.4726430000000  0.5085930000000 1.0
C      1  0.5105690000000  0.4195000000000  0.4231900000000 1.0
C      1  0.5069870000000  0.4005330000000  0.5591210000000 1.0
C      1  0.5076570000000  0.5249750000000  0.6106080000000 1.0
C      1  0.5098430000000  0.6112410000000  0.5154700000000 1.0
C      1  0.5072340000000  0.5451480000000  0.3930740000000 1.0
C      1  0.5297630000000  0.4489960000000  0.4719610000000 1.0
C      1  0.5292000000000  0.4477930000000  0.5408670000000 1.0
C      1  0.5280000000000  0.5218860000000  0.5576020000000 1.0
C      1  0.5303530000000  0.5585750000000  0.4931120000000 1.0
C      1  0.5270930000000  0.5198820000000  0.4372680000000 1.0
C      1  0.5895300000000  0.4181420000000  0.5170960000000 1.0
C      1  0.5868030000000  0.4914100000000  0.5826820000000 1.0
C      1  0.5879000000000  0.5750460000000  0.5344290000000 1.0
C      1  0.5890560000000  0.5562930000000  0.4378950000000 1.0
C      1  0.5881960000000  0.4592000000000  0.4284540000000 1.0
C      1  0.4953710000000  0.5989130000000  0.4684530000000 1.0
C      1  0.4950760000000  0.4871210000000  0.3988050000000 1.0
C      1  0.4954170000000  0.4018400000000  0.4679820000000 1.0
C      1  0.4958680000000  0.4476940000000  0.5926220000000 1.0
C      1  0.4911070000000  0.5694300000000  0.5754270000000 1.0
C      1  0.4965280000000  0.5449220000000  0.5422480000000 1.0
C      1  0.4875650000000  0.5684370000000  0.4758510000000 1.0
C      1  0.4957120000000  0.4875610000000  0.4423840000000 1.0
C      1  0.4868910000000  0.4304320000000  0.4803990000000 1.0
C      1  0.4963080000000  0.4685140000000  0.5565570000000 1.0
C      1  0.5158550000000  0.4717320000000  0.5046850000000 1.0
C      1  0.5181080000000  0.4957630000000  0.5234000000000 1.0
C      1  0.5170090000000  0.5216030000000  0.5078250000000 1.0
C      1  0.5149280000000  0.5192860000000  0.4776470000000 1.0
C      1  0.5170630000000  0.4884910000000  0.4783890000000 1.0
C      1  0.4805580000000  0.5008930000000  0.5055310000000 1.0
END
