TITL C-1413364-9095-14 0.000391586418687207 125000 -433.280231627455 0 0 72 (Ci) n - 1
REM
REM in /home/nfs/bkarasulu/CARBON/AIRSS/Generating-Clusters/TERSOFF/Higher-Symm/FIRE-HFTN
REM
REM
REM
REM
REM
REM ./C.cell (b20cbc046b6831c77cfcea5457e17084)
REM AIRSS Version 0.9.1 bugfix July 2018 build 013d7b7c2542+ Fri, 06 Jul 2018 19:26:36 +0100
REM compiler GCC version 9.2.1 20190827 (Red Hat 9.2.1-1)
REM options -cpp -mtune=generic -march=x86-64 -g -O0 -fpre-include=/usr/include/finclude/math-vector-fortran.h
REM seed -967116737 -2025091249 715123425 2117653393 2142708617 -142848246 -694098164 1210174303 1389092200 1553719088 1313235866 939455297 -184395398 803864283 359874133 1561350360 802078574 -591956466 -446324548 2139840150 2143623515 2017158335 -1507537959 -337446143 394202096 133488056 2003869756 420585206 198302720 -1124007053 1928784517 1452865606 610943563
REM
CELL 1.54180   50.00000   50.00000   50.00000   90.00000   90.00000   90.00000
LATT -1
SFAC C  
C      1  0.4745650000000  0.4948900000000  0.4936150000000 1.0
C      1  0.5254350000000  0.5051100000000  0.5063850000000 1.0
C      1  0.4518810000000  0.4397420000000  0.5421300000000 1.0
C      1  0.5481190000000  0.5602580000000  0.4578700000000 1.0
C      1  0.5283690000000  0.4972210000000  0.5613520000000 1.0
C      1  0.4716310000000  0.5027790000000  0.4386480000000 1.0
C      1  0.4921610000000  0.4805750000000  0.5141210000000 1.0
C      1  0.5078390000000  0.5194250000000  0.4858790000000 1.0
C      1  0.5774500000000  0.4999410000000  0.5354510000000 1.0
C      1  0.4225500000000  0.5000590000000  0.4645490000000 1.0
C      1  0.5246380000000  0.5239480000000  0.4251550000000 1.0
C      1  0.4753620000000  0.4760520000000  0.5748450000000 1.0
C      1  0.5012800000000  0.4255250000000  0.5453370000000 1.0
C      1  0.4987200000000  0.5744750000000  0.4546630000000 1.0
C      1  0.4574950000000  0.4513860000000  0.4844050000000 1.0
C      1  0.5425050000000  0.5486140000000  0.5155950000000 1.0
C      1  0.4923680000000  0.5447130000000  0.4934600000000 1.0
C      1  0.5076320000000  0.4552870000000  0.5065400000000 1.0
C      1  0.5000970000000  0.5405340000000  0.4271360000000 1.0
C      1  0.4999030000000  0.4594660000000  0.5728640000000 1.0
C      1  0.4738380000000  0.5306120000000  0.4360290000000 1.0
C      1  0.5261620000000  0.4693880000000  0.5639710000000 1.0
C      1  0.4921790000000  0.5252960000000  0.5472060000000 1.0
C      1  0.5078210000000  0.4747040000000  0.4527940000000 1.0
C      1  0.4500910000000  0.4888150000000  0.4265350000000 1.0
C      1  0.5499090000000  0.5111850000000  0.5734650000000 1.0
C      1  0.4452450000000  0.4513700000000  0.4578000000000 1.0
C      1  0.5547550000000  0.5486300000000  0.5422000000000 1.0
C      1  0.5342820000000  0.4846100000000  0.4559300000000 1.0
C      1  0.4657180000000  0.5153900000000  0.5440700000000 1.0
C      1  0.4773090000000  0.5628740000000  0.4729000000000 1.0
C      1  0.5226910000000  0.4371260000000  0.5271000000000 1.0
C      1  0.4605770000000  0.4873580000000  0.5516280000000 1.0
C      1  0.5394230000000  0.5126420000000  0.4483720000000 1.0
C      1  0.4848340000000  0.4905530000000  0.4616900000000 1.0
C      1  0.5151660000000  0.5094470000000  0.5383100000000 1.0
C      1  0.4889530000000  0.4298130000000  0.4412570000000 1.0
C      1  0.5110470000000  0.5701870000000  0.5587430000000 1.0
C      1  0.4523030000000  0.5630660000000  0.5401600000000 1.0
C      1  0.5476970000000  0.4369340000000  0.4598400000000 1.0
C      1  0.4988930000000  0.4228320000000  0.4682390000000 1.0
C      1  0.5011070000000  0.5771680000000  0.5317610000000 1.0
C      1  0.5166800000000  0.5649490000000  0.5097710000000 1.0
C      1  0.4833200000000  0.4350510000000  0.4902290000000 1.0
C      1  0.4373360000000  0.5266330000000  0.4735860000000 1.0
C      1  0.5626640000000  0.4733670000000  0.5264140000000 1.0
C      1  0.4393770000000  0.5311010000000  0.5042630000000 1.0
C      1  0.5606230000000  0.4688990000000  0.4957370000000 1.0
C      1  0.4524210000000  0.4737440000000  0.5024900000000 1.0
C      1  0.5475790000000  0.5262560000000  0.4975100000000 1.0
C      1  0.5282810000000  0.4213170000000  0.4756190000000 1.0
C      1  0.4717190000000  0.5786830000000  0.5243810000000 1.0
C      1  0.4688940000000  0.5231110000000  0.5010750000000 1.0
C      1  0.5311060000000  0.4768890000000  0.4989250000000 1.0
C      1  0.5034400000000  0.4533890000000  0.4337710000000 1.0
C      1  0.4965600000000  0.5466110000000  0.5662290000000 1.0
C      1  0.5492150000000  0.5322330000000  0.4678380000000 1.0
C      1  0.4507850000000  0.4677670000000  0.5321620000000 1.0
C      1  0.5263510000000  0.5793150000000  0.4637550000000 1.0
C      1  0.4736490000000  0.4206850000000  0.5362450000000 1.0
C      1  0.4595630000000  0.4331540000000  0.4394470000000 1.0
C      1  0.5404370000000  0.5668460000000  0.5605530000000 1.0
C      1  0.4457060000000  0.5348950000000  0.5340510000000 1.0
C      1  0.5542940000000  0.4651050000000  0.4659490000000 1.0
C      1  0.5412980000000  0.4561080000000  0.5425020000000 1.0
C      1  0.4587020000000  0.5438920000000  0.4574980000000 1.0
C      1  0.5252940000000  0.5860970000000  0.4913550000000 1.0
C      1  0.4747060000000  0.4139030000000  0.5086450000000 1.0
C      1  0.4337390000000  0.4775260000000  0.4470490000000 1.0
C      1  0.5662610000000  0.5224740000000  0.5529510000000 1.0
C      1  0.4658850000000  0.5816670000000  0.4948230000000 1.0
C      1  0.5341150000000  0.4183330000000  0.5051770000000 1.0
END
