TITL C-1412439-915-25 1.5925918608916e-05 125000 -211.416557052818 0 0 36 (Td) n - 1
REM
REM in /home/nfs/bkarasulu/CARBON/AIRSS/Generating-Clusters/TERSOFF/Higher-Symm/FIRE-HFTN
REM
REM
REM
REM
REM
REM ./C.cell (b20cbc046b6831c77cfcea5457e17084)
REM AIRSS Version 0.9.1 bugfix July 2018 build 013d7b7c2542+ Fri, 06 Jul 2018 19:26:36 +0100
REM compiler GCC version 9.2.1 20190827 (Red Hat 9.2.1-1)
REM options -cpp -mtune=generic -march=x86-64 -g -O0 -fpre-include=/usr/include/finclude/math-vector-fortran.h
REM seed -1166522902 512782775 -1551496154 1475919803 569803623 1161738796 -662357886 -668558636 -546627175 -376024735 1741088797 -1046850048 187588488 -645075886 228394355 -2034143286 -1476812886 788013670 -871574402 202716444 -1222849404 -246737807 -1401989212 116150011 1091876995 1824152718 739854688 489094123 646836094 2100559199 1397817912 344602928 -821008530
REM
CELL 1.54180   50.00000   50.00000   50.00000   90.00000   90.00000   90.00000
LATT -1
SFAC C  
C      1  0.5381130000000  0.5025700000000  0.5585820000000 1.0
C      1  0.5025700000000  0.5585820000000  0.5381130000000 1.0
C      1  0.5585820000000  0.5381130000000  0.5025700000000 1.0
C      1  0.4618870000000  0.4974300000000  0.5585820000000 1.0
C      1  0.5381130000000  0.4974300000000  0.4414180000000 1.0
C      1  0.4618870000000  0.5025700000000  0.4414180000000 1.0
C      1  0.4974300000000  0.4414180000000  0.5381130000000 1.0
C      1  0.5025700000000  0.4414180000000  0.4618870000000 1.0
C      1  0.4974300000000  0.5585820000000  0.4618870000000 1.0
C      1  0.4414180000000  0.4618870000000  0.5025700000000 1.0
C      1  0.5585820000000  0.4618870000000  0.4974300000000 1.0
C      1  0.4414180000000  0.5381130000000  0.4974300000000 1.0
C      1  0.5025700000000  0.5381130000000  0.5585820000000 1.0
C      1  0.5585820000000  0.5025700000000  0.5381130000000 1.0
C      1  0.5381130000000  0.5585820000000  0.5025700000000 1.0
C      1  0.4974300000000  0.4618870000000  0.5585820000000 1.0
C      1  0.4974300000000  0.5381130000000  0.4414180000000 1.0
C      1  0.5025700000000  0.4618870000000  0.4414180000000 1.0
C      1  0.4414180000000  0.4974300000000  0.5381130000000 1.0
C      1  0.4414180000000  0.5025700000000  0.4618870000000 1.0
C      1  0.5585820000000  0.4974300000000  0.4618870000000 1.0
C      1  0.4618870000000  0.4414180000000  0.5025700000000 1.0
C      1  0.4618870000000  0.5585820000000  0.4974300000000 1.0
C      1  0.5381130000000  0.4414180000000  0.4974300000000 1.0
C      1  0.4896420000000  0.4454920000000  0.5103580000000 1.0
C      1  0.4454920000000  0.5103580000000  0.4896420000000 1.0
C      1  0.5103580000000  0.4896420000000  0.4454920000000 1.0
C      1  0.5103580000000  0.5545080000000  0.5103580000000 1.0
C      1  0.4896420000000  0.5545080000000  0.4896420000000 1.0
C      1  0.5103580000000  0.4454920000000  0.4896420000000 1.0
C      1  0.5545080000000  0.4896420000000  0.4896420000000 1.0
C      1  0.4454920000000  0.4896420000000  0.5103580000000 1.0
C      1  0.5545080000000  0.5103580000000  0.5103580000000 1.0
C      1  0.4896420000000  0.5103580000000  0.4454920000000 1.0
C      1  0.4896420000000  0.4896420000000  0.5545080000000 1.0
C      1  0.5103580000000  0.5103580000000  0.5545080000000 1.0
END
