TITL C-1413364-9095-25 0.00275011800807893 125000 -835.787373768112 0 0 153 (C1) n - 1
REM
REM in /home/nfs/bkarasulu/CARBON/AIRSS/Generating-Clusters/TERSOFF/Higher-Symm/FIRE-HFTN
REM
REM
REM
REM
REM
REM ./C.cell (b20cbc046b6831c77cfcea5457e17084)
REM AIRSS Version 0.9.1 bugfix July 2018 build 013d7b7c2542+ Fri, 06 Jul 2018 19:26:36 +0100
REM compiler GCC version 9.2.1 20190827 (Red Hat 9.2.1-1)
REM options -cpp -mtune=generic -march=x86-64 -g -O0 -fpre-include=/usr/include/finclude/math-vector-fortran.h
REM seed 1774695124 2058925540 949663328 989873863 -2101508247 1739156288 1376072229 -898884128 6829087 2063841716 1965049436 1866176627 638760773 1516322852 74787727 1329709178 1315456668 -26384711 -1034071829 30292791 -194051299 976536718 2056578208 1276472559 -1608640701 -1948353208 892070915 -633495321 -1449868436 889288108 -68135455 683381192 -74444661
REM
CELL 1.54180   50.00000   50.00000   50.00000   90.00000   90.00000   90.00000
LATT -1
SFAC C  
C      1  0.4091270000000  0.5151060000000  0.4689850000000 1.0
C      1  0.5911060000000  0.4828460000000  0.4681970000000 1.0
C      1  0.4042570000000  0.4792940000000  0.4693930000000 1.0
C      1  0.5924720000000  0.5189120000000  0.4676280000000 1.0
C      1  0.5898970000000  0.4713940000000  0.4972520000000 1.0
C      1  0.4104470000000  0.5294690000000  0.4962940000000 1.0
C      1  0.5886340000000  0.5294410000000  0.4958190000000 1.0
C      1  0.4053050000000  0.4669570000000  0.4984370000000 1.0
C      1  0.4487650000000  0.4770740000000  0.4581280000000 1.0
C      1  0.5535630000000  0.5205110000000  0.4520480000000 1.0
C      1  0.4555600000000  0.5215650000000  0.4591570000000 1.0
C      1  0.5496810000000  0.4783520000000  0.4526960000000 1.0
C      1  0.5213990000000  0.4882250000000  0.5112250000000 1.0
C      1  0.4853600000000  0.5175930000000  0.5094170000000 1.0
C      1  0.5096570000000  0.5096260000000  0.5253570000000 1.0
C      1  0.4785310000000  0.4892210000000  0.5059440000000 1.0
C      1  0.5521410000000  0.4530860000000  0.4971100000000 1.0
C      1  0.4491950000000  0.5476620000000  0.4972950000000 1.0
C      1  0.5501810000000  0.5494040000000  0.4950710000000 1.0
C      1  0.4463650000000  0.4505310000000  0.4972220000000 1.0
C      1  0.5927740000000  0.4574360000000  0.5421980000000 1.0
C      1  0.4076620000000  0.5429250000000  0.5395650000000 1.0
C      1  0.5914050000000  0.5358680000000  0.5372290000000 1.0
C      1  0.4064950000000  0.4549740000000  0.5412130000000 1.0
C      1  0.5280100000000  0.5924430000000  0.5013340000000 1.0
C      1  0.4725800000000  0.4082790000000  0.5018940000000 1.0
C      1  0.5286860000000  0.4089210000000  0.5013760000000 1.0
C      1  0.4725810000000  0.5918640000000  0.5006460000000 1.0
C      1  0.5294250000000  0.5263410000000  0.3979190000000 1.0
C      1  0.4687670000000  0.4760550000000  0.4037840000000 1.0
C      1  0.5261890000000  0.4720800000000  0.3986160000000 1.0
C      1  0.4722420000000  0.5267640000000  0.4032690000000 1.0
C      1  0.5320520000000  0.4209800000000  0.4613070000000 1.0
C      1  0.4688210000000  0.5808850000000  0.4602950000000 1.0
C      1  0.5331710000000  0.5799070000000  0.4615840000000 1.0
C      1  0.4675910000000  0.4194880000000  0.4617460000000 1.0
C      1  0.4943390000000  0.5301000000000  0.4830050000000 1.0
C      1  0.5177300000000  0.4849690000000  0.4790120000000 1.0
C      1  0.4896720000000  0.4755570000000  0.4810430000000 1.0
C      1  0.5179970000000  0.5163620000000  0.4737780000000 1.0
C      1  0.5168380000000  0.5149370000000  0.4214800000000 1.0
C      1  0.4838020000000  0.4855320000000  0.4269130000000 1.0
C      1  0.5143960000000  0.4844770000000  0.4221850000000 1.0
C      1  0.4865780000000  0.5167000000000  0.4267330000000 1.0
C      1  0.4653560000000  0.5273040000000  0.5323160000000 1.0
C      1  0.5369650000000  0.4723940000000  0.5311620000000 1.0
C      1  0.4649620000000  0.4746430000000  0.5299420000000 1.0
C      1  0.5331140000000  0.5264850000000  0.5339680000000 1.0
C      1  0.5707080000000  0.5469210000000  0.4194960000000 1.0
C      1  0.4293170000000  0.4549230000000  0.4223840000000 1.0
C      1  0.5703660000000  0.4552730000000  0.4183940000000 1.0
C      1  0.4307220000000  0.5399000000000  0.4220250000000 1.0
C      1  0.4152300000000  0.4820140000000  0.5526430000000 1.0
C      1  0.5844000000000  0.5175670000000  0.5589760000000 1.0
C      1  0.4173140000000  0.5170600000000  0.5523260000000 1.0
C      1  0.5838910000000  0.4849980000000  0.5536730000000 1.0
C      1  0.5620550000000  0.5279260000000  0.5754050000000 1.0
C      1  0.4370380000000  0.4724420000000  0.5719830000000 1.0
C      1  0.5624400000000  0.4730950000000  0.5731120000000 1.0
C      1  0.4383310000000  0.5271730000000  0.5722570000000 1.0
C      1  0.5621670000000  0.5148840000000  0.5155780000000 1.0
C      1  0.4304490000000  0.4820260000000  0.5198430000000 1.0
C      1  0.5692630000000  0.4854100000000  0.5215650000000 1.0
C      1  0.4332120000000  0.5160870000000  0.5198310000000 1.0
C      1  0.5158160000000  0.6012750000000  0.4759470000000 1.0
C      1  0.4855120000000  0.3992880000000  0.4769080000000 1.0
C      1  0.5154680000000  0.3998280000000  0.4765350000000 1.0
C      1  0.4856910000000  0.6012220000000  0.4759480000000 1.0
C      1  0.4744060000000  0.5622540000000  0.5048260000000 1.0
C      1  0.5266990000000  0.4385820000000  0.5044830000000 1.0
C      1  0.4729140000000  0.4381950000000  0.5046230000000 1.0
C      1  0.5254140000000  0.5628170000000  0.5041700000000 1.0
C      1  0.4852950000000  0.5539820000000  0.5303340000000 1.0
C      1  0.5152870000000  0.4475050000000  0.5295070000000 1.0
C      1  0.4842520000000  0.4482980000000  0.5294080000000 1.0
C      1  0.5160260000000  0.5534120000000  0.5298290000000 1.0
C      1  0.4279330000000  0.4233950000000  0.5649750000000 1.0
C      1  0.5725910000000  0.5759330000000  0.5661170000000 1.0
C      1  0.4275780000000  0.5756470000000  0.5636180000000 1.0
C      1  0.5728000000000  0.4245250000000  0.5642110000000 1.0
C      1  0.5595710000000  0.4080900000000  0.5034720000000 1.0
C      1  0.4417660000000  0.5923850000000  0.5023110000000 1.0
C      1  0.5589860000000  0.5916110000000  0.5049950000000 1.0
C      1  0.4418320000000  0.4061660000000  0.5040770000000 1.0
C      1  0.5606390000000  0.5563810000000  0.5849180000000 1.0
C      1  0.4390470000000  0.4443420000000  0.5826810000000 1.0
C      1  0.5613410000000  0.4445510000000  0.5827100000000 1.0
C      1  0.4394620000000  0.5556270000000  0.5818740000000 1.0
C      1  0.4661370000000  0.4359450000000  0.5930380000000 1.0
C      1  0.5336200000000  0.5658670000000  0.5942190000000 1.0
C      1  0.4658820000000  0.5651500000000  0.5926160000000 1.0
C      1  0.5344810000000  0.4352650000000  0.5928600000000 1.0
C      1  0.5682860000000  0.4851850000000  0.4311450000000 1.0
C      1  0.4404780000000  0.5132510000000  0.4357210000000 1.0
C      1  0.5750560000000  0.5154900000000  0.4296900000000 1.0
C      1  0.4302180000000  0.4851040000000  0.4350790000000 1.0
C      1  0.5131620000000  0.4777230000000  0.5837260000000 1.0
C      1  0.4862180000000  0.5199520000000  0.5848640000000 1.0
C      1  0.5160240000000  0.5109190000000  0.5856620000000 1.0
C      1  0.4823540000000  0.4858790000000  0.5857320000000 1.0
C      1  0.5902960000000  0.5610930000000  0.4974180000000 1.0
C      1  0.4076200000000  0.4346850000000  0.4963270000000 1.0
C      1  0.5915380000000  0.4391180000000  0.4959920000000 1.0
C      1  0.4098300000000  0.5614610000000  0.4939250000000 1.0
C      1  0.5646600000000  0.4294030000000  0.4743490000000 1.0
C      1  0.4368830000000  0.5704350000000  0.4735310000000 1.0
C      1  0.5657680000000  0.5720430000000  0.4748080000000 1.0
C      1  0.4347830000000  0.4268750000000  0.4748770000000 1.0
C      1  0.5496690000000  0.5182180000000  0.4851040000000 1.0
C      1  0.4422480000000  0.4824400000000  0.4865020000000 1.0
C      1  0.5519470000000  0.4822740000000  0.4830690000000 1.0
C      1  0.4490290000000  0.5150920000000  0.4883420000000 1.0
C      1  0.5185810000000  0.5609090000000  0.4442930000000 1.0
C      1  0.4823640000000  0.4395440000000  0.4461360000000 1.0
C      1  0.5161480000000  0.4396430000000  0.4448410000000 1.0
C      1  0.4847540000000  0.5619560000000  0.4447970000000 1.0
C      1  0.5282100000000  0.5742010000000  0.5467040000000 1.0
C      1  0.4722240000000  0.4267120000000  0.5461750000000 1.0
C      1  0.5276490000000  0.4258370000000  0.5457890000000 1.0
C      1  0.4727330000000  0.5757570000000  0.5460420000000 1.0
C      1  0.5820140000000  0.4516700000000  0.4522720000000 1.0
C      1  0.4204030000000  0.5456210000000  0.4532230000000 1.0
C      1  0.5830230000000  0.5501770000000  0.4519850000000 1.0
C      1  0.4173770000000  0.4496480000000  0.4534540000000 1.0
C      1  0.5715020000000  0.5559210000000  0.5234580000000 1.0
C      1  0.4242450000000  0.4390230000000  0.5233990000000 1.0
C      1  0.5749270000000  0.4420690000000  0.5233030000000 1.0
C      1  0.4253210000000  0.5591610000000  0.5219840000000 1.0
C      1  0.5158770000000  0.4230640000000  0.5731690000000 1.0
C      1  0.4844050000000  0.5784590000000  0.5736030000000 1.0
C      1  0.5157760000000  0.5776770000000  0.5737130000000 1.0
C      1  0.4845480000000  0.4234870000000  0.5732900000000 1.0
C      1  0.4809070000000  0.5331710000000  0.4539550000000 1.0
C      1  0.5224590000000  0.4694700000000  0.4468770000000 1.0
C      1  0.4761310000000  0.4695950000000  0.4531230000000 1.0
C      1  0.5257980000000  0.5296700000000  0.4455440000000 1.0
C      1  0.4639440000000  0.5159600000000  0.5621280000000 1.0
C      1  0.5370410000000  0.4834440000000  0.5618910000000 1.0
C      1  0.4619060000000  0.4840840000000  0.5614250000000 1.0
C      1  0.5375850000000  0.5166860000000  0.5638060000000 1.0
C      1  0.4828830000000  0.5678090000000  0.4139710000000 1.0
C      1  0.5169700000000  0.4311880000000  0.4144730000000 1.0
C      1  0.4808160000000  0.4324320000000  0.4153710000000 1.0
C      1  0.5190590000000  0.5692140000000  0.4138350000000 1.0
C      1  0.5580590000000  0.4186100000000  0.5376980000000 1.0
C      1  0.4420240000000  0.5826860000000  0.5370390000000 1.0
C      1  0.5586570000000  0.5801090000000  0.5392390000000 1.0
C      1  0.4424080000000  0.4172190000000  0.5383080000000 1.0
C      1  0.5431010000000  0.5516620000000  0.4031410000000 1.0
C      1  0.4561980000000  0.4499940000000  0.4058200000000 1.0
C      1  0.5424020000000  0.4477770000000  0.4027820000000 1.0
C      1  0.4557930000000  0.5511790000000  0.4047290000000 1.0
C      1  0.4995860000000  0.4977590000000  0.5494160000000 1.0
END
