TITL C-1412436-1289-10 0.00045884489051001 125000 -607.474730615832 0 0 108 (C5) n - 1
REM
REM in /home/nfs/bkarasulu/CARBON/AIRSS/Generating-Clusters/TERSOFF/Higher-Symm/FIRE-HFTN
REM
REM
REM
REM
REM
REM ./C.cell (b20cbc046b6831c77cfcea5457e17084)
REM AIRSS Version 0.9.1 bugfix July 2018 build 013d7b7c2542+ Fri, 06 Jul 2018 19:26:36 +0100
REM compiler GCC version 9.2.1 20190827 (Red Hat 9.2.1-1)
REM options -cpp -mtune=generic -march=x86-64 -g -O0 -fpre-include=/usr/include/finclude/math-vector-fortran.h
REM seed 1271801483 -135048424 283525823 -491425727 328688383 -2110995146 1549918210 367243258 -1421899771 -2075499936 -1415717792 -886577507 -350670281 -1243825667 -974112877 -1148723772 960912829 -1164136911 -1055516362 1235128627 -636439137 -1013579264 352546193 -650334347 893341873 808684447 353084481 2136085606 -1909358468 -261755705 -255477869 -2140989709 -1495457745
REM
CELL 1.54180   50.00000   50.00000   50.00000   90.00000   90.00000   90.00000
LATT -1
SFAC C  
C      1  0.4828110000000  0.4886360000000  0.4109600000000 1.0
C      1  0.4103680000000  0.4886350000000  0.4894170000000 1.0
C      1  0.4625990000000  0.4886360000000  0.5825590000000 1.0
C      1  0.5673220000000  0.4886360000000  0.5616670000000 1.0
C      1  0.5798140000000  0.4886360000000  0.4556130000000 1.0
C      1  0.4744640000000  0.4113490000000  0.4931690000000 1.0
C      1  0.4859740000000  0.4113500000000  0.5227600000000 1.0
C      1  0.5176740000000  0.4113500000000  0.5209570000000 1.0
C      1  0.5257540000000  0.4113500000000  0.4902520000000 1.0
C      1  0.4990490000000  0.4113500000000  0.4730780000000 1.0
C      1  0.5932140000000  0.5286130000000  0.4963650000000 1.0
C      1  0.5257090000000  0.5286130000000  0.4108090000000 1.0
C      1  0.4234800000000  0.5286120000000  0.4485720000000 1.0
C      1  0.4278040000000  0.5286120000000  0.5574670000000 1.0
C      1  0.5327050000000  0.5286130000000  0.5870040000000 1.0
C      1  0.5191240000000  0.5234720000000  0.4689830000000 1.0
C      1  0.4767720000000  0.5234720000000  0.4728110000000 1.0
C      1  0.4673250000000  0.5234710000000  0.5142730000000 1.0
C      1  0.5038390000000  0.5234720000000  0.5360700000000 1.0
C      1  0.5358520000000  0.5234720000000  0.5080790000000 1.0
C      1  0.4134600000000  0.4641830000000  0.4718380000000 1.0
C      1  0.4468350000000  0.4641830000000  0.5741860000000 1.0
C      1  0.5544880000000  0.4641840000000  0.5740710000000 1.0
C      1  0.5876450000000  0.4641840000000  0.4716520000000 1.0
C      1  0.5004850000000  0.4641830000000  0.4084690000000 1.0
C      1  0.5814970000000  0.4602660000000  0.5216920000000 1.0
C      1  0.5461750000000  0.4602660000000  0.4297790000000 1.0
C      1  0.4478470000000  0.4602650000000  0.4349690000000 1.0
C      1  0.4223970000000  0.4602650000000  0.5300890000000 1.0
C      1  0.5049980000000  0.4602660000000  0.5836870000000 1.0
C      1  0.5857260000000  0.4998240000000  0.5082700000000 1.0
C      1  0.5347170000000  0.4998240000000  0.4216090000000 1.0
C      1  0.4365350000000  0.4998230000000  0.4433420000000 1.0
C      1  0.4268640000000  0.4998230000000  0.5434340000000 1.0
C      1  0.5190700000000  0.4998240000000  0.5835620000000 1.0
C      1  0.4960270000000  0.5949180000000  0.5253410000000 1.0
C      1  0.5232340000000  0.5949190000000  0.5121920000000 1.0
C      1  0.5191360000000  0.5949180000000  0.4822540000000 1.0
C      1  0.4893970000000  0.5949180000000  0.4769000000000 1.0
C      1  0.4751150000000  0.5949180000000  0.5035290000000 1.0
C      1  0.4935240000000  0.5682740000000  0.5391530000000 1.0
C      1  0.5355960000000  0.5682740000000  0.5188410000000 1.0
C      1  0.5292800000000  0.5682740000000  0.4725520000000 1.0
C      1  0.4833040000000  0.5682740000000  0.4642550000000 1.0
C      1  0.4612060000000  0.5682740000000  0.5054160000000 1.0
C      1  0.4583370000000  0.4988020000000  0.4665220000000 1.0
C      1  0.4556470000000  0.4988020000000  0.5298620000000 1.0
C      1  0.5150560000000  0.4988030000000  0.5519940000000 1.0
C      1  0.5544630000000  0.4988030000000  0.5023320000000 1.0
C      1  0.5194090000000  0.4988030000000  0.4495070000000 1.0
C      1  0.5117910000000  0.5527660000000  0.4261130000000 1.0
C      1  0.4337340000000  0.5527650000000  0.4665370000000 1.0
C      1  0.4480580000000  0.5527650000000  0.5532660000000 1.0
C      1  0.5349690000000  0.5527660000000  0.5664430000000 1.0
C      1  0.5743580000000  0.5527660000000  0.4878580000000 1.0
C      1  0.4649360000000  0.4586510000000  0.5007190000000 1.0
C      1  0.4902100000000  0.4586520000000  0.5341540000000 1.0
C      1  0.5298190000000  0.4586520000000  0.5204490000000 1.0
C      1  0.5290240000000  0.4586520000000  0.4785440000000 1.0
C      1  0.4889240000000  0.4586520000000  0.4663500000000 1.0
C      1  0.4771210000000  0.5300700000000  0.4397720000000 1.0
C      1  0.4360110000000  0.5300700000000  0.5037320000000 1.0
C      1  0.4841370000000  0.5300700000000  0.5625940000000 1.0
C      1  0.5549900000000  0.5300700000000  0.5350140000000 1.0
C      1  0.5506540000000  0.5300700000000  0.4591050000000 1.0
C      1  0.4542450000000  0.4848140000000  0.4157760000000 1.0
C      1  0.4061210000000  0.4848130000000  0.5180730000000 1.0
C      1  0.4885400000000  0.4848140000000  0.5954540000000 1.0
C      1  0.5876020000000  0.4848150000000  0.5409800000000 1.0
C      1  0.5664060000000  0.4848140000000  0.4299330000000 1.0
C      1  0.4499140000000  0.5376130000000  0.4308840000000 1.0
C      1  0.4191500000000  0.5376120000000  0.5268610000000 1.0
C      1  0.5009230000000  0.5376130000000  0.5857770000000 1.0
C      1  0.5822250000000  0.5376140000000  0.5262120000000 1.0
C      1  0.5506990000000  0.5376130000000  0.4304830000000 1.0
C      1  0.4233950000000  0.4715480000000  0.5593650000000 1.0
C      1  0.5331480000000  0.4715480000000  0.5917840000000 1.0
C      1  0.5978970000000  0.4715490000000  0.4974210000000 1.0
C      1  0.5281600000000  0.4715480000000  0.4066820000000 1.0
C      1  0.4203120000000  0.4715480000000  0.4449650000000 1.0
C      1  0.5087490000000  0.5528640000000  0.4553670000000 1.0
C      1  0.4606160000000  0.5528640000000  0.4784710000000 1.0
C      1  0.4677150000000  0.5528640000000  0.5313870000000 1.0
C      1  0.5202350000000  0.5528640000000  0.5409870000000 1.0
C      1  0.5455950000000  0.5528640000000  0.4940050000000 1.0
C      1  0.4547480000000  0.4348710000000  0.4890260000000 1.0
C      1  0.4759410000000  0.4348720000000  0.5402300000000 1.0
C      1  0.5311880000000  0.4348720000000  0.5358970000000 1.0
C      1  0.5441400000000  0.4348720000000  0.4820150000000 1.0
C      1  0.4968970000000  0.4348720000000  0.4530480000000 1.0
C      1  0.4227330000000  0.5151270000000  0.4815560000000 1.0
C      1  0.4589430000000  0.5151270000000  0.5683700000000 1.0
C      1  0.5526980000000  0.5151280000000  0.5607590000000 1.0
C      1  0.5744310000000  0.5151280000000  0.4692410000000 1.0
C      1  0.4941080000000  0.5151280000000  0.4202910000000 1.0
C      1  0.5536660000000  0.4715110000000  0.5138910000000 1.0
C      1  0.5301560000000  0.4715110000000  0.4538370000000 1.0
C      1  0.4657760000000  0.4715100000000  0.4576390000000 1.0
C      1  0.4494980000000  0.4715100000000  0.5200420000000 1.0
C      1  0.5038170000000  0.4715100000000  0.5548080000000 1.0
C      1  0.4599270000000  0.4378960000000  0.5655310000000 1.0
C      1  0.5503020000000  0.4378970000000  0.5589460000000 1.0
C      1  0.5719670000000  0.4378970000000  0.4709600000000 1.0
C      1  0.4949810000000  0.4378960000000  0.4231660000000 1.0
C      1  0.4257370000000  0.4378960000000  0.4816140000000 1.0
C      1  0.5005820000000  0.5218970000000  0.5000430000000 1.0
C      1  0.5005820000000  0.5543780000000  0.5000430000000 1.0
C      1  0.5005830000000  0.4638700000000  0.5000430000000 1.0
END
