TITL C-1413371-123-11 0.0470950544705455 125000 -567.767209445763 0 0 98 (C3) n - 1
REM
REM in /home/nfs/bkarasulu/CARBON/AIRSS/Generating-Clusters/TERSOFF/Higher-Symm/FIRE-HFTN
REM
REM
REM
REM
REM
REM ./C.cell (b20cbc046b6831c77cfcea5457e17084)
REM AIRSS Version 0.9.1 bugfix July 2018 build 013d7b7c2542+ Fri, 06 Jul 2018 19:26:36 +0100
REM compiler GCC version 9.2.1 20190827 (Red Hat 9.2.1-1)
REM options -cpp -mtune=generic -march=x86-64 -g -O0 -fpre-include=/usr/include/finclude/math-vector-fortran.h
REM seed 1902247728 98474977 1157878693 -335556324 -946003749 -97710036 -580069947 -632657103 600021958 -411979780 387788122 -402822842 -545241506 -774773389 1658918772 1993851522 307064659 -1032651196 1562443375 1994561277 746257080 -280415752 -1762445978 1334758946 1990284166 -1531568933 2144601776 -1652730103 -1675030885 -102716155 -327670372 495592053 776309443
REM
CELL 1.54180   50.00000   50.00000   50.00000   90.00000   90.00000   90.00000
LATT -1
SFAC C  
C      1  0.5569340000000  0.4332380000000  0.5298240000000 1.0
C      1  0.4983740000000  0.4332380000000  0.4349850000000 1.0
C      1  0.4455210000000  0.4332370000000  0.5331190000000 1.0
C      1  0.4808830000000  0.4784190000000  0.5869380000000 1.0
C      1  0.5858610000000  0.4784200000000  0.4722900000000 1.0
C      1  0.4340840000000  0.4784200000000  0.4387000000000 1.0
C      1  0.5555680000000  0.4401240000000  0.5595280000000 1.0
C      1  0.5247820000000  0.4401250000000  0.4213160000000 1.0
C      1  0.4204800000000  0.4401240000000  0.5170840000000 1.0
C      1  0.4589300000000  0.5781560000000  0.4656400000000 1.0
C      1  0.4917900000000  0.5781560000000  0.5519510000000 1.0
C      1  0.5501070000000  0.5781570000000  0.4803380000000 1.0
C      1  0.4682570000000  0.5330100000000  0.5833400000000 1.0
C      1  0.5890580000000  0.5330100000000  0.4850230000000 1.0
C      1  0.4435130000000  0.5330100000000  0.4295650000000 1.0
C      1  0.5389620000000  0.4826440000000  0.5592530000000 1.0
C      1  0.5328460000000  0.4826440000000  0.4358350000000 1.0
C      1  0.4290210000000  0.4826430000000  0.5028400000000 1.0
C      1  0.5701680000000  0.5720680000000  0.4594590000000 1.0
C      1  0.4308180000000  0.5720670000000  0.4587070000000 1.0
C      1  0.4998410000000  0.5720670000000  0.5797640000000 1.0
C      1  0.4910030000000  0.4732860000000  0.4644430000000 1.0
C      1  0.4747170000000  0.4732860000000  0.5247730000000 1.0
C      1  0.5351080000000  0.4732860000000  0.5087120000000 1.0
C      1  0.5028840000000  0.4066850000000  0.5189980000000 1.0
C      1  0.5160240000000  0.4066850000000  0.4872060000000 1.0
C      1  0.4819210000000  0.4066850000000  0.4917230000000 1.0
C      1  0.4655400000000  0.5665850000000  0.5433080000000 1.0
C      1  0.5557470000000  0.5665850000000  0.5073930000000 1.0
C      1  0.4795400000000  0.5665850000000  0.4472280000000 1.0
C      1  0.5605080000000  0.4568600000000  0.5100310000000 1.0
C      1  0.4794450000000  0.4568600000000  0.4417860000000 1.0
C      1  0.4608750000000  0.4568590000000  0.5461110000000 1.0
C      1  0.4353580000000  0.4737630000000  0.5501690000000 1.0
C      1  0.5767810000000  0.4737630000000  0.5301000000000 1.0
C      1  0.4886890000000  0.4737630000000  0.4176590000000 1.0
C      1  0.5526980000000  0.5123430000000  0.4811870000000 1.0
C      1  0.4583700000000  0.5123430000000  0.4629710000000 1.0
C      1  0.4897590000000  0.5123430000000  0.5537700000000 1.0
C      1  0.4691100000000  0.4325170000000  0.4872390000000 1.0
C      1  0.5054060000000  0.4325170000000  0.5323360000000 1.0
C      1  0.5263130000000  0.4325180000000  0.4783540000000 1.0
C      1  0.5162630000000  0.4883750000000  0.4597620000000 1.0
C      1  0.4580330000000  0.4883740000000  0.5052380000000 1.0
C      1  0.5265320000000  0.4883750000000  0.5329290000000 1.0
C      1  0.4553330000000  0.5142960000000  0.5194550000000 1.0
C      1  0.5401940000000  0.5142960000000  0.5281580000000 1.0
C      1  0.5053010000000  0.5142960000000  0.4503150000000 1.0
C      1  0.5881360000000  0.4990330000000  0.5202730000000 1.0
C      1  0.4745010000000  0.4990330000000  0.4127390000000 1.0
C      1  0.4381910000000  0.4990320000000  0.5649170000000 1.0
C      1  0.4904870000000  0.5485130000000  0.5940910000000 1.0
C      1  0.5872530000000  0.5485140000000  0.4603970000000 1.0
C      1  0.4230870000000  0.5485130000000  0.4434410000000 1.0
C      1  0.4654380000000  0.5829560000000  0.4939280000000 1.0
C      1  0.5130330000000  0.5829560000000  0.5321710000000 1.0
C      1  0.5223550000000  0.5829570000000  0.4718310000000 1.0
C      1  0.5930800000000  0.5019350000000  0.4900920000000 1.0
C      1  0.4458910000000  0.5019350000000  0.4235480000000 1.0
C      1  0.4618570000000  0.5019340000000  0.5842890000000 1.0
C      1  0.5077270000000  0.5640580000000  0.4553340000000 1.0
C      1  0.4584660000000  0.5640580000000  0.5148440000000 1.0
C      1  0.5346340000000  0.5640580000000  0.5277510000000 1.0
C      1  0.5145900000000  0.5313170000000  0.4038840000000 1.0
C      1  0.4104780000000  0.5313160000000  0.5346260000000 1.0
C      1  0.5757600000000  0.5313170000000  0.5594190000000 1.0
C      1  0.5282000000000  0.4960480000000  0.5822580000000 1.0
C      1  0.5581500000000  0.4960490000000  0.4336530000000 1.0
C      1  0.4144790000000  0.4960480000000  0.4820180000000 1.0
C      1  0.5291930000000  0.4947950000000  0.4869150000000 1.0
C      1  0.4750830000000  0.4947950000000  0.4804640000000 1.0
C      1  0.4965510000000  0.4947950000000  0.5305500000000 1.0
C      1  0.4324400000000  0.5259140000000  0.5526940000000 1.0
C      1  0.5804260000000  0.5259150000000  0.5313660000000 1.0
C      1  0.4879620000000  0.5259140000000  0.4138700000000 1.0
C      1  0.5652370000000  0.4690890000000  0.5584230000000 1.0
C      1  0.5189900000000  0.4690890000000  0.4134950000000 1.0
C      1  0.4166020000000  0.4690880000000  0.5260100000000 1.0
C      1  0.5299970000000  0.4361460000000  0.5742440000000 1.0
C      1  0.5503110000000  0.4361470000000  0.4361040000000 1.0
C      1  0.4205210000000  0.4361460000000  0.4875810000000 1.0
C      1  0.4799910000000  0.4540970000000  0.5691480000000 1.0
C      1  0.5709010000000  0.4540980000000  0.4819580000000 1.0
C      1  0.4499370000000  0.4540970000000  0.4468220000000 1.0
C      1  0.5046150000000  0.5120850000000  0.5787660000000 1.0
C      1  0.5669170000000  0.5120860000000  0.4558240000000 1.0
C      1  0.4292950000000  0.5120850000000  0.4633390000000 1.0
C      1  0.5333450000000  0.5387750000000  0.5408000000000 1.0
C      1  0.5196730000000  0.5387760000000  0.4499250000000 1.0
C      1  0.4478090000000  0.5387750000000  0.5072030000000 1.0
C      1  0.4451120000000  0.4374020000000  0.4717760000000 1.0
C      1  0.5040140000000  0.4374020000000  0.5608500000000 1.0
C      1  0.5517030000000  0.4374030000000  0.4653020000000 1.0
C      1  0.5782030000000  0.5464220000000  0.5095170000000 1.0
C      1  0.4701520000000  0.5464220000000  0.4267190000000 1.0
C      1  0.4524720000000  0.5464210000000  0.5616930000000 1.0
C      1  0.5002760000000  0.5082770000000  0.4993100000000 1.0
C      1  0.5002760000000  0.5378590000000  0.4993100000000 1.0
END
