TITL C-1413371-123-3 -0.0284115365621067 125000 -576.790590289111 0 0 108 (C1) n - 1
REM
REM in /home/nfs/bkarasulu/CARBON/AIRSS/Generating-Clusters/TERSOFF/Higher-Symm/FIRE-HFTN
REM
REM
REM
REM
REM
REM ./C.cell (b20cbc046b6831c77cfcea5457e17084)
REM AIRSS Version 0.9.1 bugfix July 2018 build 013d7b7c2542+ Fri, 06 Jul 2018 19:26:36 +0100
REM compiler GCC version 9.2.1 20190827 (Red Hat 9.2.1-1)
REM options -cpp -mtune=generic -march=x86-64 -g -O0 -fpre-include=/usr/include/finclude/math-vector-fortran.h
REM seed -761777290 -1378388427 -365724979 -370633792 -1003231265 -1432336752 413220658 -1065663873 1836317002 638700847 -467206674 -1830115711 -1193811219 655632352 -1953781399 1051633086 1660912415 296563902 1801597755 697554349 445117583 847002797 -87518657 -50792939 305606251 -1234599554 -682878498 1823826122 -531486817 914083503 -215159731 -160906034 -1767074574
REM
CELL 1.54180   50.00000   50.00000   50.00000   90.00000   90.00000   90.00000
LATT -1
SFAC C  
C      1  0.5493150000000  0.4146450000000  0.4990850000000 1.0
C      1  0.5480660000000  0.5428820000000  0.5736500000000 1.0
C      1  0.5494270000000  0.5422980000000  0.4256880000000 1.0
C      1  0.4988870000000  0.5059200000000  0.4506730000000 1.0
C      1  0.4998810000000  0.4547480000000  0.5204520000000 1.0
C      1  0.4989550000000  0.5396930000000  0.5282560000000 1.0
C      1  0.5270280000000  0.5883060000000  0.4723220000000 1.0
C      1  0.5258190000000  0.4318010000000  0.4374390000000 1.0
C      1  0.5269430000000  0.4813710000000  0.5897050000000 1.0
C      1  0.5050810000000  0.4721330000000  0.4065590000000 1.0
C      1  0.5082130000000  0.4334160000000  0.5709890000000 1.0
C      1  0.5057060000000  0.5955700000000  0.5227010000000 1.0
C      1  0.5557250000000  0.4926730000000  0.5526890000000 1.0
C      1  0.5573050000000  0.5494580000000  0.4792370000000 1.0
C      1  0.5561490000000  0.4574690000000  0.4670480000000 1.0
C      1  0.4377700000000  0.4294830000000  0.4657580000000 1.0
C      1  0.4388870000000  0.5013450000000  0.5774870000000 1.0
C      1  0.4408550000000  0.5715450000000  0.4571630000000 1.0
C      1  0.4272570000000  0.5191700000000  0.5203230000000 1.0
C      1  0.4308320000000  0.5117010000000  0.4717640000000 1.0
C      1  0.4200600000000  0.4578260000000  0.5121260000000 1.0
C      1  0.5122080000000  0.5795100000000  0.4403430000000 1.0
C      1  0.5100850000000  0.4090630000000  0.4606700000000 1.0
C      1  0.5097920000000  0.5120570000000  0.5978890000000 1.0
C      1  0.5700680000000  0.4680260000000  0.4431640000000 1.0
C      1  0.5688710000000  0.4662530000000  0.5556830000000 1.0
C      1  0.5711860000000  0.5641460000000  0.5008810000000 1.0
C      1  0.4564490000000  0.4146720000000  0.4908140000000 1.0
C      1  0.4508660000000  0.5320220000000  0.5744850000000 1.0
C      1  0.4526350000000  0.5507880000000  0.4348100000000 1.0
C      1  0.5250720000000  0.6028260000000  0.5003830000000 1.0
C      1  0.5236600000000  0.4485490000000  0.4109060000000 1.0
C      1  0.5267630000000  0.4499520000000  0.5882870000000 1.0
C      1  0.5475500000000  0.5057170000000  0.4814330000000 1.0
C      1  0.5474920000000  0.4806630000000  0.5042020000000 1.0
C      1  0.5478090000000  0.5133150000000  0.5146600000000 1.0
C      1  0.4712930000000  0.5165070000000  0.5544000000000 1.0
C      1  0.4741210000000  0.5401800000000  0.4571840000000 1.0
C      1  0.4715600000000  0.4430910000000  0.4865360000000 1.0
C      1  0.5238480000000  0.4730400000000  0.5209380000000 1.0
C      1  0.5250320000000  0.5328300000000  0.5144630000000 1.0
C      1  0.5226960000000  0.4961030000000  0.4674800000000 1.0
C      1  0.5931120000000  0.5075880000000  0.5190620000000 1.0
C      1  0.5930160000000  0.5120880000000  0.4832260000000 1.0
C      1  0.5929030000000  0.4788880000000  0.4972090000000 1.0
C      1  0.4667130000000  0.4804800000000  0.5216320000000 1.0
C      1  0.4665230000000  0.5305470000000  0.5032510000000 1.0
C      1  0.4695130000000  0.4900470000000  0.4760180000000 1.0
C      1  0.4912290000000  0.5627990000000  0.4726590000000 1.0
C      1  0.4893070000000  0.4455430000000  0.4596230000000 1.0
C      1  0.4892920000000  0.4924880000000  0.5665380000000 1.0
C      1  0.5158540000000  0.5323520000000  0.4875260000000 1.0
C      1  0.5142850000000  0.4722120000000  0.4800910000000 1.0
C      1  0.5138960000000  0.4968310000000  0.5329070000000 1.0
C      1  0.5628370000000  0.5416410000000  0.5475410000000 1.0
C      1  0.5633240000000  0.5199240000000  0.4397600000000 1.0
C      1  0.5633460000000  0.4375140000000  0.5119410000000 1.0
C      1  0.5165380000000  0.4189480000000  0.5460210000000 1.0
C      1  0.5133420000000  0.5806730000000  0.5476540000000 1.0
C      1  0.5139300000000  0.5008630000000  0.4061810000000 1.0
C      1  0.4850350000000  0.5091380000000  0.5257240000000 1.0
C      1  0.4882910000000  0.5200320000000  0.4795660000000 1.0
C      1  0.4866710000000  0.4699020000000  0.4952940000000 1.0
C      1  0.4722370000000  0.4156760000000  0.5186230000000 1.0
C      1  0.4686730000000  0.5576100000000  0.5626020000000 1.0
C      1  0.4696510000000  0.5265790000000  0.4177550000000 1.0
C      1  0.4355500000000  0.4805100000000  0.5540920000000 1.0
C      1  0.4331110000000  0.5616850000000  0.4855050000000 1.0
C      1  0.4352330000000  0.4605080000000  0.4611480000000 1.0
C      1  0.4323920000000  0.4885110000000  0.5205350000000 1.0
C      1  0.4344450000000  0.5320990000000  0.4921160000000 1.0
C      1  0.4379990000000  0.4836440000000  0.4846950000000 1.0
C      1  0.4541500000000  0.4327110000000  0.5380640000000 1.0
C      1  0.4485690000000  0.5644790000000  0.5373290000000 1.0
C      1  0.4512950000000  0.5004680000000  0.4266660000000 1.0
C      1  0.4517250000000  0.5336940000000  0.5325460000000 1.0
C      1  0.4556140000000  0.5120310000000  0.4545460000000 1.0
C      1  0.4515670000000  0.4518490000000  0.5133190000000 1.0
C      1  0.5010070000000  0.5231810000000  0.4247040000000 1.0
C      1  0.5024500000000  0.4235680000000  0.5180250000000 1.0
C      1  0.4996150000000  0.5534210000000  0.5564570000000 1.0
C      1  0.4824880000000  0.5588500000000  0.5024380000000 1.0
C      1  0.4813230000000  0.4743080000000  0.4488670000000 1.0
C      1  0.4816410000000  0.4678650000000  0.5487600000000 1.0
C      1  0.4391600000000  0.5776050000000  0.5104560000000 1.0
C      1  0.4398110000000  0.4717010000000  0.4329860000000 1.0
C      1  0.4415750000000  0.4517480000000  0.5590930000000 1.0
C      1  0.4802190000000  0.5856250000000  0.5140300000000 1.0
C      1  0.4796070000000  0.4703060000000  0.4196320000000 1.0
C      1  0.4822120000000  0.4446310000000  0.5669190000000 1.0
C      1  0.4832320000000  0.4200600000000  0.4440720000000 1.0
C      1  0.4842010000000  0.4911370000000  0.5964700000000 1.0
C      1  0.4869500000000  0.5898390000000  0.4595760000000 1.0
C      1  0.5613500000000  0.4414730000000  0.5412320000000 1.0
C      1  0.5627080000000  0.5648510000000  0.5292370000000 1.0
C      1  0.5626390000000  0.4926200000000  0.4285090000000 1.0
C      1  0.4586860000000  0.5947060000000  0.4548930000000 1.0
C      1  0.4545830000000  0.4141110000000  0.4457150000000 1.0
C      1  0.4553090000000  0.4928040000000  0.6007210000000 1.0
C      1  0.5680510000000  0.4614190000000  0.4949240000000 1.0
C      1  0.5685200000000  0.5145790000000  0.5358340000000 1.0
C      1  0.5682820000000  0.5230090000000  0.4690090000000 1.0
C      1  0.5202600000000  0.5489460000000  0.4286560000000 1.0
C      1  0.5200550000000  0.4138670000000  0.4930700000000 1.0
C      1  0.5185930000000  0.5371480000000  0.5771330000000 1.0
C      1  0.5253510000000  0.4477960000000  0.4656480000000 1.0
C      1  0.5248400000000  0.4976500000000  0.5615100000000 1.0
C      1  0.5268920000000  0.5558620000000  0.4717330000000 1.0
END
