TITL C-1412434-1681-18 -6.32410253149347e-07 125000 -282.258593639801 0 0 56 (Oh) n - 1
REM
REM in /home/nfs/bkarasulu/CARBON/AIRSS/Generating-Clusters/TERSOFF/Higher-Symm/FIRE-HFTN
REM
REM
REM
REM
REM
REM ./C.cell (b20cbc046b6831c77cfcea5457e17084)
REM AIRSS Version 0.9.1 bugfix July 2018 build 013d7b7c2542+ Fri, 06 Jul 2018 19:26:36 +0100
REM compiler GCC version 9.2.1 20190827 (Red Hat 9.2.1-1)
REM options -cpp -mtune=generic -march=x86-64 -g -O0 -fpre-include=/usr/include/finclude/math-vector-fortran.h
REM seed 609861303 -874477790 -809606431 49753746 976358266 1232563547 1378553536 -524686044 -252671865 1155175203 -662935554 730754181 -226174678 334091160 -188645679 -23062718 -1616387936 1364124794 1479006880 702815001 -1038420983 -124196380 -1547465357 1019682367 -1516305481 -656820068 -211671748 226294808 1894042271 1936065116 -644657460 -1919816700 145089499
REM
CELL 1.54180   50.00000   50.00000   50.00000   90.00000   90.00000   90.00000
LATT -1
SFAC C  
C      1  0.4835800000000  0.5506110000000  0.5154150000000 1.0
C      1  0.5516120000000  0.5154100000000  0.4825830000000 1.0
C      1  0.5164110000000  0.4825780000000  0.5506150000000 1.0
C      1  0.5164110000000  0.5506110000000  0.4825830000000 1.0
C      1  0.5164110000000  0.4473780000000  0.5154150000000 1.0
C      1  0.4835800000000  0.4473780000000  0.4825830000000 1.0
C      1  0.4483790000000  0.5154100000000  0.5154150000000 1.0
C      1  0.4483790000000  0.4825780000000  0.4825830000000 1.0
C      1  0.5516120000000  0.4825780000000  0.5154150000000 1.0
C      1  0.4835800000000  0.4825780000000  0.4473820000000 1.0
C      1  0.4835800000000  0.5154100000000  0.5506150000000 1.0
C      1  0.5164110000000  0.5154100000000  0.4473820000000 1.0
C      1  0.4835800000000  0.4473780000000  0.5154150000000 1.0
C      1  0.5516120000000  0.4825780000000  0.4825830000000 1.0
C      1  0.5164110000000  0.5154100000000  0.5506150000000 1.0
C      1  0.5164110000000  0.4473780000000  0.4825830000000 1.0
C      1  0.5164110000000  0.5506110000000  0.5154150000000 1.0
C      1  0.4835800000000  0.5506110000000  0.4825830000000 1.0
C      1  0.4483790000000  0.4825780000000  0.5154150000000 1.0
C      1  0.4483790000000  0.5154100000000  0.4825830000000 1.0
C      1  0.5516120000000  0.5154100000000  0.5154150000000 1.0
C      1  0.4835800000000  0.5154100000000  0.4473820000000 1.0
C      1  0.4835800000000  0.4825780000000  0.5506150000000 1.0
C      1  0.5164110000000  0.4825780000000  0.4473820000000 1.0
C      1  0.5171040000000  0.5840420000000  0.4818900000000 1.0
C      1  0.5850430000000  0.4818860000000  0.5161070000000 1.0
C      1  0.4828870000000  0.5161030000000  0.5840470000000 1.0
C      1  0.4828870000000  0.5840420000000  0.5161070000000 1.0
C      1  0.4828870000000  0.4139460000000  0.4818900000000 1.0
C      1  0.5171040000000  0.4139460000000  0.5161070000000 1.0
C      1  0.4149470000000  0.4818860000000  0.4818900000000 1.0
C      1  0.4149470000000  0.5161030000000  0.5161070000000 1.0
C      1  0.5850430000000  0.5161030000000  0.4818900000000 1.0
C      1  0.5171040000000  0.5161030000000  0.4139510000000 1.0
C      1  0.5171040000000  0.4818860000000  0.5840470000000 1.0
C      1  0.4828870000000  0.4818860000000  0.4139510000000 1.0
C      1  0.5171040000000  0.4139460000000  0.4818900000000 1.0
C      1  0.5850430000000  0.5161030000000  0.5161070000000 1.0
C      1  0.4828870000000  0.4818860000000  0.5840470000000 1.0
C      1  0.4828870000000  0.4139460000000  0.5161070000000 1.0
C      1  0.4828870000000  0.5840420000000  0.4818900000000 1.0
C      1  0.5171040000000  0.5840420000000  0.5161070000000 1.0
C      1  0.4149470000000  0.5161030000000  0.4818900000000 1.0
C      1  0.4149470000000  0.4818860000000  0.5161070000000 1.0
C      1  0.5850430000000  0.4818860000000  0.4818900000000 1.0
C      1  0.5171040000000  0.4818860000000  0.4139510000000 1.0
C      1  0.5171040000000  0.5161030000000  0.5840470000000 1.0
C      1  0.4828870000000  0.5161030000000  0.4139510000000 1.0
C      1  0.5318330000000  0.4671570000000  0.5308360000000 1.0
C      1  0.5318330000000  0.5308320000000  0.4671610000000 1.0
C      1  0.4681580000000  0.5308320000000  0.5308360000000 1.0
C      1  0.4681580000000  0.5308320000000  0.4671610000000 1.0
C      1  0.4681580000000  0.4671570000000  0.5308360000000 1.0
C      1  0.5318330000000  0.4671570000000  0.4671610000000 1.0
C      1  0.4681580000000  0.4671570000000  0.4671610000000 1.0
C      1  0.5318330000000  0.5308320000000  0.5308360000000 1.0
END
