TITL C-1413365-9085-14 0.00072756983194671 125000 -790.714961961254 0 0 144 (C1) n - 1
REM
REM in /home/nfs/bkarasulu/CARBON/AIRSS/Generating-Clusters/TERSOFF/Higher-Symm/FIRE-HFTN
REM
REM
REM
REM
REM
REM ./C.cell (b20cbc046b6831c77cfcea5457e17084)
REM AIRSS Version 0.9.1 bugfix July 2018 build 013d7b7c2542+ Fri, 06 Jul 2018 19:26:36 +0100
REM compiler GCC version 9.2.1 20190827 (Red Hat 9.2.1-1)
REM options -cpp -mtune=generic -march=x86-64 -g -O0 -fpre-include=/usr/include/finclude/math-vector-fortran.h
REM seed 169646954 792587674 -464245617 -318081700 -1956936524 -867807470 211973512 -998092255 -762534382 101928019 1829346580 1210498962 -1795822241 399835115 849121507 -1752893333 1106205095 1003856791 -970268230 -449105820 681404795 1390217409 -1657275043 291258503 -1978442065 -300783286 -1751853378 1968137351 -1880299751 1028190984 1144274263 421814308 -2010762887
REM
CELL 1.54180   50.00000   50.00000   50.00000   90.00000   90.00000   90.00000
LATT -1
SFAC C  
C      1  0.5100450000000  0.4042500000000  0.4803350000000 1.0
C      1  0.5101200000000  0.4507910000000  0.5841470000000 1.0
C      1  0.5106520000000  0.5655420000000  0.5731710000000 1.0
C      1  0.5107490000000  0.5907550000000  0.4601380000000 1.0
C      1  0.5098320000000  0.4892280000000  0.4034630000000 1.0
C      1  0.4941130000000  0.4557970000000  0.5097630000000 1.0
C      1  0.4902210000000  0.4988160000000  0.5374640000000 1.0
C      1  0.4915340000000  0.5408260000000  0.5143360000000 1.0
C      1  0.4913180000000  0.5254740000000  0.4710610000000 1.0
C      1  0.4946160000000  0.4755070000000  0.4614810000000 1.0
C      1  0.4677620000000  0.4416010000000  0.5572760000000 1.0
C      1  0.4672000000000  0.5367880000000  0.5752310000000 1.0
C      1  0.4663650000000  0.5853900000000  0.4892820000000 1.0
C      1  0.4682290000000  0.5135800000000  0.4201340000000 1.0
C      1  0.4675250000000  0.4268270000000  0.4618790000000 1.0
C      1  0.5199290000000  0.5182310000000  0.6036590000000 1.0
C      1  0.5199470000000  0.6060010000000  0.5149480000000 1.0
C      1  0.5198220000000  0.5459240000000  0.4056580000000 1.0
C      1  0.5197690000000  0.4224010000000  0.4277670000000 1.0
C      1  0.5193770000000  0.4075720000000  0.5513670000000 1.0
C      1  0.4721230000000  0.4272490000000  0.4111510000000 1.0
C      1  0.4720010000000  0.3931610000000  0.5416950000000 1.0
C      1  0.4731890000000  0.5044870000000  0.6138390000000 1.0
C      1  0.4729320000000  0.6115820000000  0.5321200000000 1.0
C      1  0.4727490000000  0.5625720000000  0.4056130000000 1.0
C      1  0.5381170000000  0.4504270000000  0.4829900000000 1.0
C      1  0.5369950000000  0.4692960000000  0.5418090000000 1.0
C      1  0.5371180000000  0.5308930000000  0.5423930000000 1.0
C      1  0.5375990000000  0.5508900000000  0.4837010000000 1.0
C      1  0.5379860000000  0.5006880000000  0.4473260000000 1.0
C      1  0.4821090000000  0.5005120000000  0.4507000000000 1.0
C      1  0.4824300000000  0.4529650000000  0.4817890000000 1.0
C      1  0.4819240000000  0.4683830000000  0.5375580000000 1.0
C      1  0.4814270000000  0.5325520000000  0.5431880000000 1.0
C      1  0.4820240000000  0.5538560000000  0.4840760000000 1.0
C      1  0.4898050000000  0.5343090000000  0.3997540000000 1.0
C      1  0.4887720000000  0.4116410000000  0.4366830000000 1.0
C      1  0.4887570000000  0.4127890000000  0.5638530000000 1.0
C      1  0.4901040000000  0.5308460000000  0.6025560000000 1.0
C      1  0.4892060000000  0.6101570000000  0.5025910000000 1.0
C      1  0.4636750000000  0.4212920000000  0.5299840000000 1.0
C      1  0.4646910000000  0.5034160000000  0.5834630000000 1.0
C      1  0.4649760000000  0.5823610000000  0.5232260000000 1.0
C      1  0.4648640000000  0.5463650000000  0.4313090000000 1.0
C      1  0.4636770000000  0.4468230000000  0.4343420000000 1.0
C      1  0.5909070000000  0.5105610000000  0.4709860000000 1.0
C      1  0.5910100000000  0.4758310000000  0.4814070000000 1.0
C      1  0.5907810000000  0.4750680000000  0.5176490000000 1.0
C      1  0.5905400000000  0.5093280000000  0.5293760000000 1.0
C      1  0.5906760000000  0.5313640000000  0.5006330000000 1.0
C      1  0.4611070000000  0.4846990000000  0.4058740000000 1.0
C      1  0.4612270000000  0.4056130000000  0.4861170000000 1.0
C      1  0.4613910000000  0.4571130000000  0.5855420000000 1.0
C      1  0.4614990000000  0.5685540000000  0.5686940000000 1.0
C      1  0.4612440000000  0.5863260000000  0.4568260000000 1.0
C      1  0.5562370000000  0.5265730000000  0.5666390000000 1.0
C      1  0.5563840000000  0.5726780000000  0.4956160000000 1.0
C      1  0.5570030000000  0.5179040000000  0.4300490000000 1.0
C      1  0.5571310000000  0.4387600000000  0.4615360000000 1.0
C      1  0.5560510000000  0.4449060000000  0.5456640000000 1.0
C      1  0.5757250000000  0.4246600000000  0.5108250000000 1.0
C      1  0.5754240000000  0.4868300000000  0.5746240000000 1.0
C      1  0.5757710000000  0.5674660000000  0.5361060000000 1.0
C      1  0.5760440000000  0.5555520000000  0.4471450000000 1.0
C      1  0.5758790000000  0.4667360000000  0.4313390000000 1.0
C      1  0.4382130000000  0.4539610000000  0.5508410000000 1.0
C      1  0.4391530000000  0.5343830000000  0.5593510000000 1.0
C      1  0.4397230000000  0.5666180000000  0.4868880000000 1.0
C      1  0.4392400000000  0.5072910000000  0.4335290000000 1.0
C      1  0.4374600000000  0.4367030000000  0.4712690000000 1.0
C      1  0.4284610000000  0.5080870000000  0.5533070000000 1.0
C      1  0.4295530000000  0.5526660000000  0.5105900000000 1.0
C      1  0.4288920000000  0.5264640000000  0.4534570000000 1.0
C      1  0.4254590000000  0.4602500000000  0.4585980000000 1.0
C      1  0.4273300000000  0.4514240000000  0.5243780000000 1.0
C      1  0.4861300000000  0.4585100000000  0.6002930000000 1.0
C      1  0.4864260000000  0.5830710000000  0.5712120000000 1.0
C      1  0.4860100000000  0.5930390000000  0.4432360000000 1.0
C      1  0.4855820000000  0.4737110000000  0.3952230000000 1.0
C      1  0.4857280000000  0.3921340000000  0.4930110000000 1.0
C      1  0.5197830000000  0.4897400000000  0.6120840000000 1.0
C      1  0.5198020000000  0.6042870000000  0.5447330000000 1.0
C      1  0.5194140000000  0.5741250000000  0.4151100000000 1.0
C      1  0.5189550000000  0.4411440000000  0.4046350000000 1.0
C      1  0.5189260000000  0.3911050000000  0.5266680000000 1.0
C      1  0.5821110000000  0.5624930000000  0.5081360000000 1.0
C      1  0.5822360000000  0.5272820000000  0.4436710000000 1.0
C      1  0.5826390000000  0.4545840000000  0.4569720000000 1.0
C      1  0.5821390000000  0.4455650000000  0.5301530000000 1.0
C      1  0.5820220000000  0.5117730000000  0.5610030000000 1.0
C      1  0.5493020000000  0.5625400000000  0.4555190000000 1.0
C      1  0.5490350000000  0.4767590000000  0.4279230000000 1.0
C      1  0.5489290000000  0.4244110000000  0.5001030000000 1.0
C      1  0.5484820000000  0.4768830000000  0.5717350000000 1.0
C      1  0.5489130000000  0.5616430000000  0.5448060000000 1.0
C      1  0.5101600000000  0.5724000000000  0.4860200000000 1.0
C      1  0.5089650000000  0.5087110000000  0.4291080000000 1.0
C      1  0.5093770000000  0.4340210000000  0.4686940000000 1.0
C      1  0.5089120000000  0.4506100000000  0.5523330000000 1.0
C      1  0.5093700000000  0.5354820000000  0.5625320000000 1.0
C      1  0.4944270000000  0.4300630000000  0.5261610000000 1.0
C      1  0.4939650000000  0.5037900000000  0.5706910000000 1.0
C      1  0.4954260000000  0.5721880000000  0.5191620000000 1.0
C      1  0.4941570000000  0.5393670000000  0.4411600000000 1.0
C      1  0.4943320000000  0.4528100000000  0.4415960000000 1.0
C      1  0.5219900000000  0.5344390000000  0.5116710000000 1.0
C      1  0.5221750000000  0.5220160000000  0.4717010000000 1.0
C      1  0.5225260000000  0.4801520000000  0.4698320000000 1.0
C      1  0.5221380000000  0.4658490000000  0.5091920000000 1.0
C      1  0.5214640000000  0.4992990000000  0.5344320000000 1.0
C      1  0.4406850000000  0.4711720000000  0.4324090000000 1.0
C      1  0.4403510000000  0.4274650000000  0.5060940000000 1.0
C      1  0.4411580000000  0.4834910000000  0.5707990000000 1.0
C      1  0.4421080000000  0.5625890000000  0.5386210000000 1.0
C      1  0.4421800000000  0.5556940000000  0.4532940000000 1.0
C      1  0.4148800000000  0.5271650000000  0.5068540000000 1.0
C      1  0.4167700000000  0.5149130000000  0.4772980000000 1.0
C      1  0.4115080000000  0.4788750000000  0.4764370000000 1.0
C      1  0.4161860000000  0.4753480000000  0.5124550000000 1.0
C      1  0.4144350000000  0.5042310000000  0.5278720000000 1.0
C      1  0.4907130000000  0.3824330000000  0.5208330000000 1.0
C      1  0.4914680000000  0.4814620000000  0.6183970000000 1.0
C      1  0.4916240000000  0.6076250000000  0.5549940000000 1.0
C      1  0.4909560000000  0.5841820000000  0.4151440000000 1.0
C      1  0.4906860000000  0.4441040000000  0.3946910000000 1.0
C      1  0.5585930000000  0.4754350000000  0.4907410000000 1.0
C      1  0.5581120000000  0.4841510000000  0.5206830000000 1.0
C      1  0.5580450000000  0.5153950000000  0.5216600000000 1.0
C      1  0.5583850000000  0.5260990000000  0.4925000000000 1.0
C      1  0.5586080000000  0.5012870000000  0.4734220000000 1.0
C      1  0.5448060000000  0.5309340000000  0.5935630000000 1.0
C      1  0.5449110000000  0.5999680000000  0.4994940000000 1.0
C      1  0.5451090000000  0.5302670000000  0.4059530000000 1.0
C      1  0.5453290000000  0.4186810000000  0.4429520000000 1.0
C      1  0.5445810000000  0.4212650000000  0.5593810000000 1.0
C      1  0.5314020000000  0.4686940000000  0.4064180000000 1.0
C      1  0.5314210000000  0.4013220000000  0.5010340000000 1.0
C      1  0.5317590000000  0.4691280000000  0.5939200000000 1.0
C      1  0.5321130000000  0.5806010000000  0.5587080000000 1.0
C      1  0.5322330000000  0.5812830000000  0.4413980000000 1.0
C      1  0.4849140000000  0.5088860000000  0.5028430000000 1.0
C      1  0.4645900000000  0.4902980000000  0.4912090000000 1.0
C      1  0.5253380000000  0.5004250000000  0.4994730000000 1.0
C      1  0.4366680000000  0.4937270000000  0.4939150000000 1.0
END
