TITL C-862502-1143-371 -4.73738929263086e-06 125000 -86.6393225942767 0 0 16 (D4h) n - 1
REM
REM in /home/nfs/bkarasulu/CARBON/AIRSS/Generating-Clusters/TERSOFF/Higher-Symm/FIRE-HFTN
REM
REM
REM
REM
REM
REM ./C.cell (b20cbc046b6831c77cfcea5457e17084)
REM AIRSS Version 0.9.1 bugfix July 2018 build 013d7b7c2542+ Fri, 06 Jul 2018 19:26:36 +0100
REM compiler GCC version 9.2.1 20190827 (Red Hat 9.2.1-1)
REM options -cpp -mtune=generic -march=x86-64 -g -O0 -fpre-include=/usr/include/finclude/math-vector-fortran.h
REM seed -536339955 1939034381 673072329 1342847922 1494584698 971423060 -744592000 -749351129 1193285600 85793286 154668817 -890597064 -663363227 1536511043 -903803077 2087477392 432372789 -829302174 1436825497 336875886 -1174398156 1445021968 -1950008766 1568899200 811105025 -402575982 548757767 -1700339312 -312959324 -116823905 -280809641 -2116769059 591178581
REM
CELL 1.54180   50.00000   50.00000   50.00000   90.00000   90.00000   90.00000
LATT -1
SFAC C  
C      1  0.4672650000000  0.4672650000000  0.5144720000000 1.0
C      1  0.5327350000000  0.4672650000000  0.4855280000000 1.0
C      1  0.4672650000000  0.5327350000000  0.5144720000000 1.0
C      1  0.5327350000000  0.5327350000000  0.4855280000000 1.0
C      1  0.4672650000000  0.4672650000000  0.4855280000000 1.0
C      1  0.5327350000000  0.4672650000000  0.5144720000000 1.0
C      1  0.4672650000000  0.5327350000000  0.4855280000000 1.0
C      1  0.5327350000000  0.5327350000000  0.5144720000000 1.0
C      1  0.5159450000000  0.4840550000000  0.5310370000000 1.0
C      1  0.4840550000000  0.4840550000000  0.4689630000000 1.0
C      1  0.5159450000000  0.5159450000000  0.5310370000000 1.0
C      1  0.4840550000000  0.5159450000000  0.4689630000000 1.0
C      1  0.5159450000000  0.4840550000000  0.4689630000000 1.0
C      1  0.4840550000000  0.4840550000000  0.5310370000000 1.0
C      1  0.5159450000000  0.5159450000000  0.4689630000000 1.0
C      1  0.4840550000000  0.5159450000000  0.5310370000000 1.0
END
