TITL C-862504-1170-68 1.04563377731038 125000 -1103.72005619556 0 0 192 (C1) n - 1
REM
REM in /home/nfs/bkarasulu/CARBON/AIRSS/Generating-Clusters/TERSOFF/Higher-Symm/FIRE-HFTN
REM
REM
REM
REM
REM
REM ./C.cell (b20cbc046b6831c77cfcea5457e17084)
REM AIRSS Version 0.9.1 bugfix July 2018 build 013d7b7c2542+ Fri, 06 Jul 2018 19:26:36 +0100
REM compiler GCC version 9.2.1 20190827 (Red Hat 9.2.1-1)
REM options -cpp -mtune=generic -march=x86-64 -g -O0 -fpre-include=/usr/include/finclude/math-vector-fortran.h
REM seed -885898221 1443803753 -1094218654 -1798373422 -32147042 -1834905990 946386283 -404043074 -465368544 -1737760861 1582897434 -1090912275 1469705581 -1600052761 -813288335 309175192 -1378136313 1313130493 -107931359 641597338 418552954 485731494 993854925 -2051877855 -309831034 -51935485 -1583361533 -1916963750 -911528735 -1798511387 566244297 755155219 931013708
REM
CELL 1.54180   50.00000   50.00000   50.00000   90.00000   90.00000   90.00000
LATT -1
SFAC C  
C      1  0.5680530000000  0.4627260000000  0.4854760000000 1.0
C      1  0.5568600000000  0.5560510000000  0.4855660000000 1.0
C      1  0.4652420000000  0.5721900000000  0.4856030000000 1.0
C      1  0.4212700000000  0.4892500000000  0.4856150000000 1.0
C      1  0.4856410000000  0.4208620000000  0.4856080000000 1.0
C      1  0.5685710000000  0.4626200000000  0.5152350000000 1.0
C      1  0.5569330000000  0.5560110000000  0.5151710000000 1.0
C      1  0.4655780000000  0.5719000000000  0.5153050000000 1.0
C      1  0.4215330000000  0.4893570000000  0.5152420000000 1.0
C      1  0.4856970000000  0.4208340000000  0.5151710000000 1.0
C      1  0.4444720000000  0.4715990000000  0.4743460000000 1.0
C      1  0.5093770000000  0.4372060000000  0.4743110000000 1.0
C      1  0.5596330000000  0.4904820000000  0.4737990000000 1.0
C      1  0.5281050000000  0.5569120000000  0.4740340000000 1.0
C      1  0.4557880000000  0.5446330000000  0.4741080000000 1.0
C      1  0.4446010000000  0.4715580000000  0.5264470000000 1.0
C      1  0.5094660000000  0.4371860000000  0.5264780000000 1.0
C      1  0.5598830000000  0.4903750000000  0.5269220000000 1.0
C      1  0.5282310000000  0.5568370000000  0.5267460000000 1.0
C      1  0.4559080000000  0.5444880000000  0.5267120000000 1.0
C      1  0.4714170000000  0.6279920000000  0.5396410000000 1.0
C      1  0.3705010000000  0.5131040000000  0.5397170000000 1.0
C      1  0.4472240000000  0.3803950000000  0.5402100000000 1.0
C      1  0.5972860000000  0.4138110000000  0.5410140000000 1.0
C      1  0.6124340000000  0.5653880000000  0.5397010000000 1.0
C      1  0.4711280000000  0.6282860000000  0.4601490000000 1.0
C      1  0.3702640000000  0.5130820000000  0.4604200000000 1.0
C      1  0.4471260000000  0.3804700000000  0.4605130000000 1.0
C      1  0.5970750000000  0.4139620000000  0.4614660000000 1.0
C      1  0.6123380000000  0.5655160000000  0.4611180000000 1.0
C      1  0.5181790000000  0.4501620000000  0.4247960000000 1.0
C      1  0.5530200000000  0.5021050000000  0.4239910000000 1.0
C      1  0.5147870000000  0.5513750000000  0.4245010000000 1.0
C      1  0.4557890000000  0.5303600000000  0.4247710000000 1.0
C      1  0.4579700000000  0.4672710000000  0.4250060000000 1.0
C      1  0.5182420000000  0.4501350000000  0.5759190000000 1.0
C      1  0.5529980000000  0.5020620000000  0.5767610000000 1.0
C      1  0.5148390000000  0.5513280000000  0.5762620000000 1.0
C      1  0.4558060000000  0.5303090000000  0.5760090000000 1.0
C      1  0.4580020000000  0.4671970000000  0.5757640000000 1.0
C      1  0.5067080000000  0.5238830000000  0.4145180000000 1.0
C      1  0.4798640000000  0.5138760000000  0.4167500000000 1.0
C      1  0.4805990000000  0.4852950000000  0.4164880000000 1.0
C      1  0.5079690000000  0.4767120000000  0.4141040000000 1.0
C      1  0.5247050000000  0.5008230000000  0.4127690000000 1.0
C      1  0.5067350000000  0.5238340000000  0.5862370000000 1.0
C      1  0.4799050000000  0.5138170000000  0.5839640000000 1.0
C      1  0.4806380000000  0.4852380000000  0.5842400000000 1.0
C      1  0.5080050000000  0.4766500000000  0.5866750000000 1.0
C      1  0.5247290000000  0.5007740000000  0.5880380000000 1.0
C      1  0.5814070000000  0.5110350000000  0.5177040000000 1.0
C      1  0.5155830000000  0.5840070000000  0.5183460000000 1.0
C      1  0.4262870000000  0.5405390000000  0.5179730000000 1.0
C      1  0.4388690000000  0.4421450000000  0.5179360000000 1.0
C      1  0.5358330000000  0.4229160000000  0.5182020000000 1.0
C      1  0.5813810000000  0.5110530000000  0.4829550000000 1.0
C      1  0.5154290000000  0.5840960000000  0.4824690000000 1.0
C      1  0.4262210000000  0.5404640000000  0.4828870000000 1.0
C      1  0.4388760000000  0.4421790000000  0.4828560000000 1.0
C      1  0.5356930000000  0.4229020000000  0.4826220000000 1.0
C      1  0.4133190000000  0.4377910000000  0.4676460000000 1.0
C      1  0.5321950000000  0.3973790000000  0.4672490000000 1.0
C      1  0.6054400000000  0.5003560000000  0.4683650000000 1.0
C      1  0.5335260000000  0.6024300000000  0.4669420000000 1.0
C      1  0.4138200000000  0.5632910000000  0.4677580000000 1.0
C      1  0.4132740000000  0.4374660000000  0.5330270000000 1.0
C      1  0.5322960000000  0.3974090000000  0.5336050000000 1.0
C      1  0.6051450000000  0.4998860000000  0.5324240000000 1.0
C      1  0.5336750000000  0.6023700000000  0.5338190000000 1.0
C      1  0.4134520000000  0.5632630000000  0.5329210000000 1.0
C      1  0.4298330000000  0.5863660000000  0.4591730000000 1.0
C      1  0.3966290000000  0.4603830000000  0.4590260000000 1.0
C      1  0.5054500000000  0.3886790000000  0.4586260000000 1.0
C      1  0.6066480000000  0.4723980000000  0.4592990000000 1.0
C      1  0.5603660000000  0.5936720000000  0.4585430000000 1.0
C      1  0.4292710000000  0.5864660000000  0.5418030000000 1.0
C      1  0.3964520000000  0.4599540000000  0.5418530000000 1.0
C      1  0.5055360000000  0.3886930000000  0.5421460000000 1.0
C      1  0.6059750000000  0.4719470000000  0.5412760000000 1.0
C      1  0.5605040000000  0.5936000000000  0.5422480000000 1.0
C      1  0.5122360000000  0.4702560000000  0.4770320000000 1.0
C      1  0.5266010000000  0.5032660000000  0.4713660000000 1.0
C      1  0.5056120000000  0.5322660000000  0.4752900000000 1.0
C      1  0.4737910000000  0.5154760000000  0.4743040000000 1.0
C      1  0.4775370000000  0.4796650000000  0.4750540000000 1.0
C      1  0.5123130000000  0.4702020000000  0.5237030000000 1.0
C      1  0.5266750000000  0.5032080000000  0.5293690000000 1.0
C      1  0.5056540000000  0.5322010000000  0.5254770000000 1.0
C      1  0.4738400000000  0.5153740000000  0.5265020000000 1.0
C      1  0.4776110000000  0.4795690000000  0.5257520000000 1.0
C      1  0.5578970000000  0.4392230000000  0.5291600000000 1.0
C      1  0.5746520000000  0.5374120000000  0.5287960000000 1.0
C      1  0.4881550000000  0.5841420000000  0.5293020000000 1.0
C      1  0.4174380000000  0.5147010000000  0.5291340000000 1.0
C      1  0.4603900000000  0.4252270000000  0.5289660000000 1.0
C      1  0.5575920000000  0.4392680000000  0.4715640000000 1.0
C      1  0.5745660000000  0.5374680000000  0.4718950000000 1.0
C      1  0.4878850000000  0.5844700000000  0.4716840000000 1.0
C      1  0.4171820000000  0.5146560000000  0.4718050000000 1.0
C      1  0.4603490000000  0.4252690000000  0.4718160000000 1.0
C      1  0.4621850000000  0.3687520000000  0.4835020000000 1.0
C      1  0.6112110000000  0.4262660000000  0.4845780000000 1.0
C      1  0.6067550000000  0.5841360000000  0.4836650000000 1.0
C      1  0.4520990000000  0.6292540000000  0.4831270000000 1.0
C      1  0.3634300000000  0.4951540000000  0.4832660000000 1.0
C      1  0.4623300000000  0.3687380000000  0.5172420000000 1.0
C      1  0.6133200000000  0.4238070000000  0.5178710000000 1.0
C      1  0.6069770000000  0.5840720000000  0.5171490000000 1.0
C      1  0.4525420000000  0.6270510000000  0.5166020000000 1.0
C      1  0.3649010000000  0.4948950000000  0.5168090000000 1.0
C      1  0.4944400000000  0.5495820000000  0.4480700000000 1.0
C      1  0.4522790000000  0.5102500000000  0.4482120000000 1.0
C      1  0.4758830000000  0.4576960000000  0.4483130000000 1.0
C      1  0.5326890000000  0.4637250000000  0.4482140000000 1.0
C      1  0.5441120000000  0.5204990000000  0.4473950000000 1.0
C      1  0.4944550000000  0.5495840000000  0.5527180000000 1.0
C      1  0.4522450000000  0.5101770000000  0.5525700000000 1.0
C      1  0.4759370000000  0.4576470000000  0.5524610000000 1.0
C      1  0.5327820000000  0.4635960000000  0.5524520000000 1.0
C      1  0.5441650000000  0.5204490000000  0.5533620000000 1.0
C      1  0.5026150000000  0.4407770000000  0.3763650000000 1.0
C      1  0.5576080000000  0.4831630000000  0.3761910000000 1.0
C      1  0.5343040000000  0.5486820000000  0.3760220000000 1.0
C      1  0.4653950000000  0.5467740000000  0.3758950000000 1.0
C      1  0.4459950000000  0.4804820000000  0.3759550000000 1.0
C      1  0.5027520000000  0.4406970000000  0.6243470000000 1.0
C      1  0.5577590000000  0.4830720000000  0.6244970000000 1.0
C      1  0.5344010000000  0.5486060000000  0.6247280000000 1.0
C      1  0.4655000000000  0.5466760000000  0.6248990000000 1.0
C      1  0.4461200000000  0.4803900000000  0.6248360000000 1.0
C      1  0.5620830000000  0.5066400000000  0.3945890000000 1.0
C      1  0.5134790000000  0.5602240000000  0.3946230000000 1.0
C      1  0.4483510000000  0.5304150000000  0.3944600000000 1.0
C      1  0.4557850000000  0.4593050000000  0.3947660000000 1.0
C      1  0.5259160000000  0.4438830000000  0.3950730000000 1.0
C      1  0.5621610000000  0.5065720000000  0.6061140000000 1.0
C      1  0.5135610000000  0.5601570000000  0.6061460000000 1.0
C      1  0.4484380000000  0.5303240000000  0.6063430000000 1.0
C      1  0.4558900000000  0.4592240000000  0.6060080000000 1.0
C      1  0.5260340000000  0.4438130000000  0.6056150000000 1.0
C      1  0.4086020000000  0.4826320000000  0.5597290000000 1.0
C      1  0.4880260000000  0.4074420000000  0.5599410000000 1.0
C      1  0.5836360000000  0.4609390000000  0.5596020000000 1.0
C      1  0.5638810000000  0.5681000000000  0.5599800000000 1.0
C      1  0.4545930000000  0.5822690000000  0.5599220000000 1.0
C      1  0.4086930000000  0.4827590000000  0.4411620000000 1.0
C      1  0.4879660000000  0.4074750000000  0.4408240000000 1.0
C      1  0.5838150000000  0.4608360000000  0.4410960000000 1.0
C      1  0.5637880000000  0.5681950000000  0.4407960000000 1.0
C      1  0.4546580000000  0.5821700000000  0.4410360000000 1.0
C      1  0.4889700000000  0.3865440000000  0.5167740000000 1.0
C      1  0.6038260000000  0.4546980000000  0.5165200000000 1.0
C      1  0.5749150000000  0.5855040000000  0.5168040000000 1.0
C      1  0.4428610000000  0.5965950000000  0.5167720000000 1.0
C      1  0.3905180000000  0.4757280000000  0.5167410000000 1.0
C      1  0.4888280000000  0.3866130000000  0.4839600000000 1.0
C      1  0.6007830000000  0.4563650000000  0.4841530000000 1.0
C      1  0.5747450000000  0.5855810000000  0.4840080000000 1.0
C      1  0.4414400000000  0.5988800000000  0.4842320000000 1.0
C      1  0.3887830000000  0.4753860000000  0.4841530000000 1.0
C      1  0.4862370000000  0.5667330000000  0.6166340000000 1.0
C      1  0.4336430000000  0.5064130000000  0.6167490000000 1.0
C      1  0.4740260000000  0.4373410000000  0.6159570000000 1.0
C      1  0.5523950000000  0.4546510000000  0.6156560000000 1.0
C      1  0.5599430000000  0.5347790000000  0.6165000000000 1.0
C      1  0.4861490000000  0.5668170000000  0.3841550000000 1.0
C      1  0.4335360000000  0.5065110000000  0.3840610000000 1.0
C      1  0.4738990000000  0.4374230000000  0.3847810000000 1.0
C      1  0.5522630000000  0.4547340000000  0.3850110000000 1.0
C      1  0.5598510000000  0.5348580000000  0.3842340000000 1.0
C      1  0.3975390000000  0.5115880000000  0.4492050000000 1.0
C      1  0.4570130000000  0.4059030000000  0.4490140000000 1.0
C      1  0.5759130000000  0.4307260000000  0.4491700000000 1.0
C      1  0.5893890000000  0.5510180000000  0.4494050000000 1.0
C      1  0.4784380000000  0.6019150000000  0.4490800000000 1.0
C      1  0.3975650000000  0.5116070000000  0.5516110000000 1.0
C      1  0.4570720000000  0.4058320000000  0.5517520000000 1.0
C      1  0.5758930000000  0.4310000000000  0.5517770000000 1.0
C      1  0.5894500000000  0.5508970000000  0.5513300000000 1.0
C      1  0.4786350000000  0.6019230000000  0.5517350000000 1.0
C      1  0.4642280000000  0.5533420000000  0.5570690000000 1.0
C      1  0.4390330000000  0.4825840000000  0.5566800000000 1.0
C      1  0.4978230000000  0.4364260000000  0.5567890000000 1.0
C      1  0.5589940000000  0.4787060000000  0.5571070000000 1.0
C      1  0.5390700000000  0.5504520000000  0.5570710000000 1.0
C      1  0.4642630000000  0.5533100000000  0.4437600000000 1.0
C      1  0.4390810000000  0.4826900000000  0.4441270000000 1.0
C      1  0.4977770000000  0.4364620000000  0.4439770000000 1.0
C      1  0.5590700000000  0.4786820000000  0.4436180000000 1.0
C      1  0.5390070000000  0.5505160000000  0.4437000000000 1.0
C      1  0.5032790000000  0.4998000000000  0.5520240000000 1.0
C      1  0.5031780000000  0.4998740000000  0.4487390000000 1.0
END
