TITL C-862502-1143-141 1.7062412438279e-05 125000 -235.54112766953 0 0 45 (C4) n - 1
REM
REM in /home/nfs/bkarasulu/CARBON/AIRSS/Generating-Clusters/TERSOFF/Higher-Symm/FIRE-HFTN
REM
REM
REM
REM
REM
REM ./C.cell (b20cbc046b6831c77cfcea5457e17084)
REM AIRSS Version 0.9.1 bugfix July 2018 build 013d7b7c2542+ Fri, 06 Jul 2018 19:26:36 +0100
REM compiler GCC version 9.2.1 20190827 (Red Hat 9.2.1-1)
REM options -cpp -mtune=generic -march=x86-64 -g -O0 -fpre-include=/usr/include/finclude/math-vector-fortran.h
REM seed -806590144 1185972544 -580171350 940692773 717614456 -345689942 -347620000 -1211020030 631497920 415811564 -1486638350 -1061796751 -1417068301 -210257485 11442021 257846231 -1413350512 -552108873 -621694005 -1976459215 904866361 252580550 1115030492 636140905 1458440788 -1578284636 1543884290 505139189 -822798691 2094504106 1207352368 1133073281 -214899225
REM
CELL 1.54180   50.00000   50.00000   50.00000   90.00000   90.00000   90.00000
LATT -1
SFAC C  
C      1  0.5544890000000  0.4975370000000  0.5329780000000 1.0
C      1  0.5338000000000  0.4975390000000  0.4443850000000 1.0
C      1  0.4452070000000  0.4975380000000  0.4650740000000 1.0
C      1  0.4658960000000  0.4975370000000  0.5536670000000 1.0
C      1  0.4446650000000  0.4984890000000  0.5333360000000 1.0
C      1  0.4655390000000  0.4984900000000  0.4438420000000 1.0
C      1  0.5550320000000  0.4984890000000  0.4647170000000 1.0
C      1  0.5341580000000  0.4984880000000  0.5542100000000 1.0
C      1  0.5151220000000  0.5509170000000  0.4615320000000 1.0
C      1  0.4623530000000  0.5509170000000  0.4837540000000 1.0
C      1  0.4845750000000  0.5509160000000  0.5365230000000 1.0
C      1  0.5373440000000  0.5509160000000  0.5143000000000 1.0
C      1  0.4838830000000  0.5537660000000  0.4627200000000 1.0
C      1  0.5361560000000  0.5537660000000  0.4830620000000 1.0
C      1  0.5158130000000  0.5537650000000  0.5353350000000 1.0
C      1  0.4635410000000  0.5537650000000  0.5149920000000 1.0
C      1  0.4620780000000  0.4525180000000  0.5131690000000 1.0
C      1  0.5139920000000  0.4525180000000  0.5367960000000 1.0
C      1  0.5376180000000  0.4525180000000  0.4848820000000 1.0
C      1  0.4857050000000  0.4525190000000  0.4612560000000 1.0
C      1  0.5351710000000  0.4493590000000  0.5165820000000 1.0
C      1  0.4822920000000  0.4493590000000  0.5343490000000 1.0
C      1  0.4645250000000  0.4493590000000  0.4814700000000 1.0
C      1  0.5174040000000  0.4493600000000  0.4637030000000 1.0
C      1  0.5595490000000  0.4749940000000  0.4822420000000 1.0
C      1  0.4830650000000  0.4749950000000  0.4393250000000 1.0
C      1  0.4401470000000  0.4749940000000  0.5158090000000 1.0
C      1  0.5166320000000  0.4749930000000  0.5587270000000 1.0
C      1  0.4428320000000  0.4736760000000  0.4824340000000 1.0
C      1  0.5164410000000  0.4736760000000  0.4420090000000 1.0
C      1  0.5568650000000  0.4736750000000  0.5156180000000 1.0
C      1  0.4832560000000  0.4736750000000  0.5560420000000 1.0
C      1  0.5547370000000  0.5245290000000  0.5190520000000 1.0
C      1  0.5198730000000  0.5245300000000  0.4441380000000 1.0
C      1  0.4449590000000  0.5245300000000  0.4790020000000 1.0
C      1  0.4798230000000  0.5245290000000  0.5539160000000 1.0
C      1  0.4450860000000  0.5271120000000  0.5209180000000 1.0
C      1  0.4779570000000  0.5271130000000  0.4442640000000 1.0
C      1  0.5546110000000  0.5271120000000  0.4771350000000 1.0
C      1  0.5217400000000  0.5271110000000  0.5537890000000 1.0
C      1  0.5012140000000  0.5126040000000  0.5323310000000 1.0
C      1  0.4984830000000  0.5126050000000  0.4657220000000 1.0
C      1  0.4665440000000  0.5126050000000  0.5003920000000 1.0
C      1  0.5331520000000  0.5126050000000  0.4976610000000 1.0
C      1  0.4998480000000  0.5166370000000  0.4990270000000 1.0
END
