TITL C-862506-1665-233 0.200786892844764 125000 -1028.62163438804 0 0 180 (C3) n - 1
REM
REM in /home/nfs/bkarasulu/CARBON/AIRSS/Generating-Clusters/TERSOFF/Higher-Symm/FIRE-HFTN
REM
REM
REM
REM
REM
REM ./C.cell (b20cbc046b6831c77cfcea5457e17084)
REM AIRSS Version 0.9.1 bugfix July 2018 build 013d7b7c2542+ Fri, 06 Jul 2018 19:26:36 +0100
REM compiler GCC version 9.2.1 20190827 (Red Hat 9.2.1-1)
REM options -cpp -mtune=generic -march=x86-64 -g -O0 -fpre-include=/usr/include/finclude/math-vector-fortran.h
REM seed 1170938650 -630666602 -410575502 1917420802 -1968061885 885048039 2094593611 -829754880 776222388 453710259 -1433228788 1253999590 98529554 126300251 1880581290 -237124758 1222464578 1988665348 -32598314 -1394140078 1349268073 1767280871 1303558773 1042764824 111502822 -1317508497 1609197131 -765545484 455601276 -2054264340 1368510054 397383264 -1721890898
REM
CELL 1.54180   50.00000   50.00000   50.00000   90.00000   90.00000   90.00000
LATT -1
SFAC C  
C      1  0.4330570000000  0.5477350000000  0.5446450000000 1.0
C      1  0.4330560000000  0.5147960000000  0.4363390000000 1.0
C      1  0.4330570000000  0.4374700000000  0.5190180000000 1.0
C      1  0.4356350000000  0.5331540000000  0.4111310000000 1.0
C      1  0.4356350000000  0.4064600000000  0.5157230000000 1.0
C      1  0.4356360000000  0.5603860000000  0.5731470000000 1.0
C      1  0.4212830000000  0.5776650000000  0.5356660000000 1.0
C      1  0.4212830000000  0.4920550000000  0.4149070000000 1.0
C      1  0.4212830000000  0.4302800000000  0.5494270000000 1.0
C      1  0.5263270000000  0.5483810000000  0.5374140000000 1.0
C      1  0.5263270000000  0.5082110000000  0.4393930000000 1.0
C      1  0.5263270000000  0.4434070000000  0.5231920000000 1.0
C      1  0.5238720000000  0.5180900000000  0.4695040000000 1.0
C      1  0.5238720000000  0.4645450000000  0.4995810000000 1.0
C      1  0.5238720000000  0.5173650000000  0.5309150000000 1.0
C      1  0.4688370000000  0.4397190000000  0.4871930000000 1.0
C      1  0.4688380000000  0.5190490000000  0.5586090000000 1.0
C      1  0.4688370000000  0.5412320000000  0.4541990000000 1.0
C      1  0.4794750000000  0.5915620000000  0.4641640000000 1.0
C      1  0.4794750000000  0.4231850000000  0.4386230000000 1.0
C      1  0.4794760000000  0.4852540000000  0.5972130000000 1.0
C      1  0.4278000000000  0.4901030000000  0.4574280000000 1.0
C      1  0.4278000000000  0.4680800000000  0.5298580000000 1.0
C      1  0.4278000000000  0.5418180000000  0.5127160000000 1.0
C      1  0.4528560000000  0.4605030000000  0.3998790000000 1.0
C      1  0.4528570000000  0.4330410000000  0.5842660000000 1.0
C      1  0.4528570000000  0.6064560000000  0.5158550000000 1.0
C      1  0.5586260000000  0.3935970000000  0.5080140000000 1.0
C      1  0.5586270000000  0.5601410000000  0.5881400000000 1.0
C      1  0.5586260000000  0.5462610000000  0.4038460000000 1.0
C      1  0.5229400000000  0.4298090000000  0.4044580000000 1.0
C      1  0.5229410000000  0.4523540000000  0.6085580000000 1.0
C      1  0.5229410000000  0.6178370000000  0.4869840000000 1.0
C      1  0.4014890000000  0.4705230000000  0.4913960000000 1.0
C      1  0.4014890000000  0.5072880000000  0.5298310000000 1.0
C      1  0.4014890000000  0.5221900000000  0.4787740000000 1.0
C      1  0.5635660000000  0.4659280000000  0.4397750000000 1.0
C      1  0.5635660000000  0.4648790000000  0.5596190000000 1.0
C      1  0.5635660000000  0.5691920000000  0.5006050000000 1.0
C      1  0.5789010000000  0.4594990000000  0.4939800000000 1.0
C      1  0.5789010000000  0.5150370000000  0.5380840000000 1.0
C      1  0.5789010000000  0.5254630000000  0.4679350000000 1.0
C      1  0.4763150000000  0.4365700000000  0.5674040000000 1.0
C      1  0.4763150000000  0.5900890000000  0.5212300000000 1.0
C      1  0.4763140000000  0.4733410000000  0.4113660000000 1.0
C      1  0.4853850000000  0.3945150000000  0.4371440000000 1.0
C      1  0.4853860000000  0.4983080000000  0.6227810000000 1.0
C      1  0.4853850000000  0.6071770000000  0.4400750000000 1.0
C      1  0.4800970000000  0.5682000000000  0.5926580000000 1.0
C      1  0.4800960000000  0.5461440000000  0.3946080000000 1.0
C      1  0.4800960000000  0.3856560000000  0.5127340000000 1.0
C      1  0.5481820000000  0.5335680000000  0.4766630000000 1.0
C      1  0.5481820000000  0.4630050000000  0.4825970000000 1.0
C      1  0.5481820000000  0.5034260000000  0.5407390000000 1.0
C      1  0.4970870000000  0.5002200000000  0.5338920000000 1.0
C      1  0.4970860000000  0.5292410000000  0.4828630000000 1.0
C      1  0.4970860000000  0.4705380000000  0.4832450000000 1.0
C      1  0.5402170000000  0.4782820000000  0.5733860000000 1.0
C      1  0.5402170000000  0.5744130000000  0.4821150000000 1.0
C      1  0.5402160000000  0.4473040000000  0.4444980000000 1.0
C      1  0.4793700000000  0.4968470000000  0.3594550000000 1.0
C      1  0.4793710000000  0.3798610000000  0.5730030000000 1.0
C      1  0.4793720000000  0.6232920000000  0.5675420000000 1.0
C      1  0.4776190000000  0.4545330000000  0.5446400000000 1.0
C      1  0.4776190000000  0.5613930000000  0.5170560000000 1.0
C      1  0.4776180000000  0.4840750000000  0.4383040000000 1.0
C      1  0.5145740000000  0.4663380000000  0.5679140000000 1.0
C      1  0.5145740000000  0.5756460000000  0.4951950000000 1.0
C      1  0.5145730000000  0.4580160000000  0.4368910000000 1.0
C      1  0.5251910000000  0.5791100000000  0.4260810000000 1.0
C      1  0.5251910000000  0.3964290000000  0.4684480000000 1.0
C      1  0.5251920000000  0.5244610000000  0.6054700000000 1.0
C      1  0.4880160000000  0.4307600000000  0.4677740000000 1.0
C      1  0.4880170000000  0.5067110000000  0.5760770000000 1.0
C      1  0.4880160000000  0.5625290000000  0.4561500000000 1.0
C      1  0.4148180000000  0.4537810000000  0.5671190000000 1.0
C      1  0.4148180000000  0.5812360000000  0.5064680000000 1.0
C      1  0.4148170000000  0.4649830000000  0.4264140000000 1.0
C      1  0.5411830000000  0.4742560000000  0.6166600000000 1.0
C      1  0.5411830000000  0.6139020000000  0.4639640000000 1.0
C      1  0.5411820000000  0.4118410000000  0.4193750000000 1.0
C      1  0.6082450000000  0.5033310000000  0.5205750000000 1.0
C      1  0.6082450000000  0.5161530000000  0.4868270000000 1.0
C      1  0.6082450000000  0.4805160000000  0.4925970000000 1.0
C      1  0.5584000000000  0.5622360000000  0.5356020000000 1.0
C      1  0.5583990000000  0.4997150000000  0.4283010000000 1.0
C      1  0.5584000000000  0.4380490000000  0.5360960000000 1.0
C      1  0.4276200000000  0.4468690000000  0.4871350000000 1.0
C      1  0.4276200000000  0.5154240000000  0.5524450000000 1.0
C      1  0.4276200000000  0.5377070000000  0.4604200000000 1.0
C      1  0.5732020000000  0.4214060000000  0.4653040000000 1.0
C      1  0.5732030000000  0.5092490000000  0.5854120000000 1.0
C      1  0.5732020000000  0.5693450000000  0.4492830000000 1.0
C      1  0.5494830000000  0.5163610000000  0.3974230000000 1.0
C      1  0.5494840000000  0.4029850000000  0.5371190000000 1.0
C      1  0.5494840000000  0.5806530000000  0.5654570000000 1.0
C      1  0.5707260000000  0.4983580000000  0.4806060000000 1.0
C      1  0.5707260000000  0.4840250000000  0.5111190000000 1.0
C      1  0.5707260000000  0.5176160000000  0.5082750000000 1.0
C      1  0.4560910000000  0.5794350000000  0.5809030000000 1.0
C      1  0.4560900000000  0.5303460000000  0.3907560000000 1.0
C      1  0.4560900000000  0.3902190000000  0.5283410000000 1.0
C      1  0.5765550000000  0.4129020000000  0.4950670000000 1.0
C      1  0.5765560000000  0.5392760000000  0.5778950000000 1.0
C      1  0.5765550000000  0.5478210000000  0.4270370000000 1.0
C      1  0.5786230000000  0.5212530000000  0.4390050000000 1.0
C      1  0.5786230000000  0.4365500000000  0.5120910000000 1.0
C      1  0.5786240000000  0.5421960000000  0.5489030000000 1.0
C      1  0.4497150000000  0.4296060000000  0.4403120000000 1.0
C      1  0.4497150000000  0.4835060000000  0.5908080000000 1.0
C      1  0.4497150000000  0.5868890000000  0.4688810000000 1.0
C      1  0.5131650000000  0.5321420000000  0.4281930000000 1.0
C      1  0.5131650000000  0.4217430000000  0.5080680000000 1.0
C      1  0.5131660000000  0.5461150000000  0.5637390000000 1.0
C      1  0.5833900000000  0.4519210000000  0.4590260000000 1.0
C      1  0.5833900000000  0.4885550000000  0.5621240000000 1.0
C      1  0.5833900000000  0.5595230000000  0.4788490000000 1.0
C      1  0.4363750000000  0.5965970000000  0.4929100000000 1.0
C      1  0.4363750000000  0.4455610000000  0.4198900000000 1.0
C      1  0.4363750000000  0.4578430000000  0.5872010000000 1.0
C      1  0.4388590000000  0.4848340000000  0.3895700000000 1.0
C      1  0.4388590000000  0.4119480000000  0.5683490000000 1.0
C      1  0.4388600000000  0.6032180000000  0.5420810000000 1.0
C      1  0.4987820000000  0.5520620000000  0.5001900000000 1.0
C      1  0.4987810000000  0.4741330000000  0.4548180000000 1.0
C      1  0.4987820000000  0.4738050000000  0.5449920000000 1.0
C      1  0.4448790000000  0.4722870000000  0.4759450000000 1.0
C      1  0.4448790000000  0.4930240000000  0.5360290000000 1.0
C      1  0.4448790000000  0.5346890000000  0.4880270000000 1.0
C      1  0.4367790000000  0.4225340000000  0.4662230000000 1.0
C      1  0.4367800000000  0.5094810000000  0.5839770000000 1.0
C      1  0.4367800000000  0.5679850000000  0.4498010000000 1.0
C      1  0.5323420000000  0.6086860000000  0.5149800000000 1.0
C      1  0.5323410000000  0.4586300000000  0.3983850000000 1.0
C      1  0.5323410000000  0.4326830000000  0.5866340000000 1.0
C      1  0.5081430000000  0.3865530000000  0.5693210000000 1.0
C      1  0.5081430000000  0.6167570000000  0.5635870000000 1.0
C      1  0.5081420000000  0.4966890000000  0.3670920000000 1.0
C      1  0.5221590000000  0.4384980000000  0.5572850000000 1.0
C      1  0.5221590000000  0.5803610000000  0.5246200000000 1.0
C      1  0.5221580000000  0.4811410000000  0.4180950000000 1.0
C      1  0.4019450000000  0.5284540000000  0.5081820000000 1.0
C      1  0.4019450000000  0.4928590000000  0.4712680000000 1.0
C      1  0.4019450000000  0.4786880000000  0.5205510000000 1.0
C      1  0.4568210000000  0.3913730000000  0.5571520000000 1.0
C      1  0.4568210000000  0.6038090000000  0.5654980000000 1.0
C      1  0.4568200000000  0.5048180000000  0.3773500000000 1.0
C      1  0.5453810000000  0.5859330000000  0.4512160000000 1.0
C      1  0.5453800000000  0.4147860000000  0.4499720000000 1.0
C      1  0.5453810000000  0.4992810000000  0.5988120000000 1.0
C      1  0.5123970000000  0.5217870000000  0.5784420000000 1.0
C      1  0.5123970000000  0.5570400000000  0.4419110000000 1.0
C      1  0.5123960000000  0.4211740000000  0.4796470000000 1.0
C      1  0.4738900000000  0.5710600000000  0.4096300000000 1.0
C      1  0.4738900000000  0.3862070000000  0.4836460000000 1.0
C      1  0.4738910000000  0.5427330000000  0.6067250000000 1.0
C      1  0.4451270000000  0.3949560000000  0.4764640000000 1.0
C      1  0.4451280000000  0.5321400000000  0.6027390000000 1.0
C      1  0.4451280000000  0.5729050000000  0.4207970000000 1.0
C      1  0.6100870000000  0.4875880000000  0.5472090000000 1.0
C      1  0.6100870000000  0.5470900000000  0.4871430000000 1.0
C      1  0.6100860000000  0.4653200000000  0.4656460000000 1.0
C      1  0.4978050000000  0.5989970000000  0.4862650000000 1.0
C      1  0.4978040000000  0.4386060000000  0.4211340000000 1.0
C      1  0.4978050000000  0.4623970000000  0.5926010000000 1.0
C      1  0.5395130000000  0.5682240000000  0.4022600000000 1.0
C      1  0.5395130000000  0.3812430000000  0.4897860000000 1.0
C      1  0.5395140000000  0.5505330000000  0.6079540000000 1.0
C      1  0.4958920000000  0.5248470000000  0.6188590000000 1.0
C      1  0.4958920000000  0.5905110000000  0.4190520000000 1.0
C      1  0.4958910000000  0.3846410000000  0.4620890000000 1.0
C      1  0.5207170000000  0.3920610000000  0.5435470000000 1.0
C      1  0.5207180000000  0.5916820000000  0.5717040000000 1.0
C      1  0.5207170000000  0.5162560000000  0.3847490000000 1.0
C      1  0.5041250000000  0.3992320000000  0.5215390000000 1.0
C      1  0.5041250000000  0.5690370000000  0.5764980000000 1.0
C      1  0.5041240000000  0.5317300000000  0.4019630000000 1.0
C      1  0.4700500000000  0.4824370000000  0.4906560000000 1.0
C      1  0.4700500000000  0.5006900000000  0.5198820000000 1.0
C      1  0.4700500000000  0.5168740000000  0.4894620000000 1.0
END
