TITL C-862130-1496-1166 16.9584484465199 125000 -904.950125234707 0 0 155 (C1) n - 1
REM
REM in /home/nfs/bkarasulu/CARBON/AIRSS/Generating-Clusters/TERSOFF/Higher-Symm/FIRE-HFTN
REM
REM
REM
REM
REM
REM ./C.cell (b20cbc046b6831c77cfcea5457e17084)
REM AIRSS Version 0.9.1 bugfix July 2018 build 013d7b7c2542+ Fri, 06 Jul 2018 19:26:36 +0100
REM compiler GCC version 9.2.1 20190827 (Red Hat 9.2.1-1)
REM options -cpp -mtune=generic -march=x86-64 -g -O0 -fpre-include=/usr/include/finclude/math-vector-fortran.h
REM seed -1472560255 -611033499 266167546 1368516302 1582192059 -921755514 -179668311 1216952405 -1406448678 -1226610424 -412154646 -204807327 -2136258404 2042607497 -1239969893 1500378155 -1217363076 -1037893555 -1787739358 1665268750 1249772878 1451618864 2057318408 -1965448867 -803902443 1655750830 2032668642 1511720194 1985030067 -1041589979 -2095194093 -1451642318 -2030190544
REM
CELL 1.54180   50.00000   50.00000   50.00000   90.00000   90.00000   90.00000
LATT -1
SFAC C  
C      1  0.5982090000000  0.4756570000000  0.5689330000000 1.0
C      1  0.4440390000000  0.5106170000000  0.4487440000000 1.0
C      1  0.5573030000000  0.4410490000000  0.4329540000000 1.0
C      1  0.4592590000000  0.5189920000000  0.6025190000000 1.0
C      1  0.4829500000000  0.5738550000000  0.5093490000000 1.0
C      1  0.4830080000000  0.5639550000000  0.5790100000000 1.0
C      1  0.4882390000000  0.4273240000000  0.5761100000000 1.0
C      1  0.5317620000000  0.4585980000000  0.4613010000000 1.0
C      1  0.5497630000000  0.5074220000000  0.4586600000000 1.0
C      1  0.5972750000000  0.4771720000000  0.4738750000000 1.0
C      1  0.3914890000000  0.4550100000000  0.4635870000000 1.0
C      1  0.5679420000000  0.4811290000000  0.5137580000000 1.0
C      1  0.4667730000000  0.5926220000000  0.4482610000000 1.0
C      1  0.5628590000000  0.4209340000000  0.5087170000000 1.0
C      1  0.4183850000000  0.4504850000000  0.5362140000000 1.0
C      1  0.4039200000000  0.5265370000000  0.5435030000000 1.0
C      1  0.5937440000000  0.5752260000000  0.5081630000000 1.0
C      1  0.4647540000000  0.4347090000000  0.5132900000000 1.0
C      1  0.4843450000000  0.5274880000000  0.3905060000000 1.0
C      1  0.4422220000000  0.5302870000000  0.5812110000000 1.0
C      1  0.4079370000000  0.5654660000000  0.4889340000000 1.0
C      1  0.5004400000000  0.4878240000000  0.4907740000000 1.0
C      1  0.5256010000000  0.4146390000000  0.5458230000000 1.0
C      1  0.5328440000000  0.4056270000000  0.5178720000000 1.0
C      1  0.5528800000000  0.5774680000000  0.4803200000000 1.0
C      1  0.5737550000000  0.5861180000000  0.5275730000000 1.0
C      1  0.5406780000000  0.4176970000000  0.5958550000000 1.0
C      1  0.5304450000000  0.5565850000000  0.4704920000000 1.0
C      1  0.4351960000000  0.4288600000000  0.4500590000000 1.0
C      1  0.4818690000000  0.4129760000000  0.4726890000000 1.0
C      1  0.4925070000000  0.5792250000000  0.5533320000000 1.0
C      1  0.4111870000000  0.4765630000000  0.4567100000000 1.0
C      1  0.5141880000000  0.3859410000000  0.5029220000000 1.0
C      1  0.4964200000000  0.4456340000000  0.5963250000000 1.0
C      1  0.4234950000000  0.4195610000000  0.4769960000000 1.0
C      1  0.5009080000000  0.5965760000000  0.5031030000000 1.0
C      1  0.5308860000000  0.5312710000000  0.4533970000000 1.0
C      1  0.5235500000000  0.4397500000000  0.6060330000000 1.0
C      1  0.4323340000000  0.3936400000000  0.4901300000000 1.0
C      1  0.4359280000000  0.4704870000000  0.5822040000000 1.0
C      1  0.6187100000000  0.5150630000000  0.5058070000000 1.0
C      1  0.5466330000000  0.4123380000000  0.5671010000000 1.0
C      1  0.5772350000000  0.4337830000000  0.5331470000000 1.0
C      1  0.4855090000000  0.3916770000000  0.4925270000000 1.0
C      1  0.4434430000000  0.5767010000000  0.5560430000000 1.0
C      1  0.6015480000000  0.4514570000000  0.5272350000000 1.0
C      1  0.4828720000000  0.4574990000000  0.4046070000000 1.0
C      1  0.4572450000000  0.3905660000000  0.5077890000000 1.0
C      1  0.5409260000000  0.4734600000000  0.5138170000000 1.0
C      1  0.4926660000000  0.5548080000000  0.5315170000000 1.0
C      1  0.6117550000000  0.5209230000000  0.4769720000000 1.0
C      1  0.4911590000000  0.4520580000000  0.4529410000000 1.0
C      1  0.4650250000000  0.4312560000000  0.4388860000000 1.0
C      1  0.4701090000000  0.5758760000000  0.4248040000000 1.0
C      1  0.5043410000000  0.4959470000000  0.6007960000000 1.0
C      1  0.4799920000000  0.5560410000000  0.4640970000000 1.0
C      1  0.4629750000000  0.4795310000000  0.5742970000000 1.0
C      1  0.3985000000000  0.5138590000000  0.5157650000000 1.0
C      1  0.5813710000000  0.4934050000000  0.4916400000000 1.0
C      1  0.5050210000000  0.5704740000000  0.4666850000000 1.0
C      1  0.4640910000000  0.5288110000000  0.4111670000000 1.0
C      1  0.5058490000000  0.5028850000000  0.5594450000000 1.0
C      1  0.4214630000000  0.5735730000000  0.5378620000000 1.0
C      1  0.4122820000000  0.4925780000000  0.4822990000000 1.0
C      1  0.5384090000000  0.4840170000000  0.4732780000000 1.0
C      1  0.5016910000000  0.4755890000000  0.4374220000000 1.0
C      1  0.5021950000000  0.5491690000000  0.5968240000000 1.0
C      1  0.4236230000000  0.5522400000000  0.4414740000000 1.0
C      1  0.5491610000000  0.4332320000000  0.4608760000000 1.0
C      1  0.4633680000000  0.4337760000000  0.4847180000000 1.0
C      1  0.6003680000000  0.5039460000000  0.5275820000000 1.0
C      1  0.5953170000000  0.4471460000000  0.4754000000000 1.0
C      1  0.3986330000000  0.4566120000000  0.5135600000000 1.0
C      1  0.5494720000000  0.6256320000000  0.4567440000000 1.0
C      1  0.4664230000000  0.5944810000000  0.5494130000000 1.0
C      1  0.4005310000000  0.5552380000000  0.5452510000000 1.0
C      1  0.5700120000000  0.5165480000000  0.4776700000000 1.0
C      1  0.4214480000000  0.5145650000000  0.5652340000000 1.0
C      1  0.4952190000000  0.4608990000000  0.4818510000000 1.0
C      1  0.4949170000000  0.5764480000000  0.4087510000000 1.0
C      1  0.5298650000000  0.4120590000000  0.4590960000000 1.0
C      1  0.5049610000000  0.5191940000000  0.4597720000000 1.0
C      1  0.4312240000000  0.4855860000000  0.4107530000000 1.0
C      1  0.4536500000000  0.4125580000000  0.5280970000000 1.0
C      1  0.5191920000000  0.5913580000000  0.5506070000000 1.0
C      1  0.5093800000000  0.5641020000000  0.6213730000000 1.0
C      1  0.5067120000000  0.5080610000000  0.3913210000000 1.0
C      1  0.5371500000000  0.6027060000000  0.4694060000000 1.0
C      1  0.5251710000000  0.5479740000000  0.5768110000000 1.0
C      1  0.4990530000000  0.4781330000000  0.3861160000000 1.0
C      1  0.5215600000000  0.5678190000000  0.4181500000000 1.0
C      1  0.5388810000000  0.5732720000000  0.5641550000000 1.0
C      1  0.6095610000000  0.4969310000000  0.4514960000000 1.0
C      1  0.4418950000000  0.5409460000000  0.4918940000000 1.0
C      1  0.5900960000000  0.5412160000000  0.4399530000000 1.0
C      1  0.5213420000000  0.5386640000000  0.5297070000000 1.0
C      1  0.4218020000000  0.5741280000000  0.4626290000000 1.0
C      1  0.4004370000000  0.5349300000000  0.4888840000000 1.0
C      1  0.4509000000000  0.5536290000000  0.4210430000000 1.0
C      1  0.5536600000000  0.4926300000000  0.5799840000000 1.0
C      1  0.4952750000000  0.4566550000000  0.5375090000000 1.0
C      1  0.4544380000000  0.4590370000000  0.4720260000000 1.0
C      1  0.5600970000000  0.4918310000000  0.4341010000000 1.0
C      1  0.5293120000000  0.5400470000000  0.4247980000000 1.0
C      1  0.4082820000000  0.5299220000000  0.4592270000000 1.0
C      1  0.5325560000000  0.4474250000000  0.5205170000000 1.0
C      1  0.3993360000000  0.4387600000000  0.4873040000000 1.0
C      1  0.6066700000000  0.4775050000000  0.5411070000000 1.0
C      1  0.4274290000000  0.4216630000000  0.5382710000000 1.0
C      1  0.5512060000000  0.5123200000000  0.5592900000000 1.0
C      1  0.5344080000000  0.4932600000000  0.6031440000000 1.0
C      1  0.5701040000000  0.4698400000000  0.5734530000000 1.0
C      1  0.4364660000000  0.4604560000000  0.4485080000000 1.0
C      1  0.5189400000000  0.4926320000000  0.5126420000000 1.0
C      1  0.5593050000000  0.4521610000000  0.5525380000000 1.0
C      1  0.4201740000000  0.4971120000000  0.4360730000000 1.0
C      1  0.4911760000000  0.5017410000000  0.4424150000000 1.0
C      1  0.5339300000000  0.4443060000000  0.4138220000000 1.0
C      1  0.4483610000000  0.5856590000000  0.4695470000000 1.0
C      1  0.4703720000000  0.5384530000000  0.5437900000000 1.0
C      1  0.5615950000000  0.5661480000000  0.5455560000000 1.0
C      1  0.4680040000000  0.4612460000000  0.5261980000000 1.0
C      1  0.5505870000000  0.5923910000000  0.5096490000000 1.0
C      1  0.5238010000000  0.4717180000000  0.4194010000000 1.0
C      1  0.3851430000000  0.4850080000000  0.5134170000000 1.0
C      1  0.4491590000000  0.5164270000000  0.4772130000000 1.0
C      1  0.4269940000000  0.5759040000000  0.5097360000000 1.0
C      1  0.5722790000000  0.4656950000000  0.4358400000000 1.0
C      1  0.4141730000000  0.4633500000000  0.5631940000000 1.0
C      1  0.5250510000000  0.5253530000000  0.5577350000000 1.0
C      1  0.4314580000000  0.4902590000000  0.5048200000000 1.0
C      1  0.4665230000000  0.4861730000000  0.5455210000000 1.0
C      1  0.4874660000000  0.4735750000000  0.5920210000000 1.0
C      1  0.4566190000000  0.5703700000000  0.4959090000000 1.0
C      1  0.5716730000000  0.5168510000000  0.5355270000000 1.0
C      1  0.4614840000000  0.5127590000000  0.5333540000000 1.0
C      1  0.5037260000000  0.4332990000000  0.4176190000000 1.0
C      1  0.5034700000000  0.4191420000000  0.4502250000000 1.0
C      1  0.5744150000000  0.4132010000000  0.5566500000000 1.0
C      1  0.5697650000000  0.4317090000000  0.4810550000000 1.0
C      1  0.5817340000000  0.5666210000000  0.4825860000000 1.0
C      1  0.5934180000000  0.5157100000000  0.4252620000000 1.0
C      1  0.4387410000000  0.4668480000000  0.5206580000000 1.0
C      1  0.5630200000000  0.5063670000000  0.4082090000000 1.0
C      1  0.5072150000000  0.5994500000000  0.4741150000000 1.0
C      1  0.4566480000000  0.5513230000000  0.5671180000000 1.0
C      1  0.4524460000000  0.4644370000000  0.4165040000000 1.0
C      1  0.5242360000000  0.5987460000000  0.5215700000000 1.0
C      1  0.5881950000000  0.5408040000000  0.4697340000000 1.0
C      1  0.5086260000000  0.4830770000000  0.5388540000000 1.0
C      1  0.4893270000000  0.5216240000000  0.6030980000000 1.0
C      1  0.4660750000000  0.5099340000000  0.4318740000000 1.0
C      1  0.5341880000000  0.5196820000000  0.4040430000000 1.0
C      1  0.5014280000000  0.4307410000000  0.5510730000000 1.0
C      1  0.5541970000000  0.5422950000000  0.5298280000000 1.0
END
