TITL C-862128-1543-1369 0.0232887692661107 125000 -896.34433643532 0 0 152 (C1) n - 1
REM
REM in /home/nfs/bkarasulu/CARBON/AIRSS/Generating-Clusters/TERSOFF/Higher-Symm/FIRE-HFTN
REM
REM
REM
REM
REM
REM ./C.cell (b20cbc046b6831c77cfcea5457e17084)
REM AIRSS Version 0.9.1 bugfix July 2018 build 013d7b7c2542+ Fri, 06 Jul 2018 19:26:36 +0100
REM compiler GCC version 9.2.1 20190827 (Red Hat 9.2.1-1)
REM options -cpp -mtune=generic -march=x86-64 -g -O0 -fpre-include=/usr/include/finclude/math-vector-fortran.h
REM seed 891105793 638640575 -171828961 503915487 -53379290 -2058489009 -681437278 -515866662 1365846433 -1506676445 -1541742767 -912943024 -1259784361 -1063484135 1545627448 2134513958 1755384447 446981441 -1980932866 804089773 1220824247 1044413293 -505015820 2126717481 -911862949 -958386877 548930141 -605193201 -1942988556 -240649112 1913922476 1828743329 1111221561
REM
CELL 1.54180   50.00000   50.00000   50.00000   90.00000   90.00000   90.00000
LATT -1
SFAC C  
C      1  0.5325030000000  0.4657310000000  0.5641170000000 1.0
C      1  0.4397440000000  0.4658220000000  0.5548170000000 1.0
C      1  0.4324610000000  0.4665190000000  0.4616920000000 1.0
C      1  0.5158150000000  0.4654510000000  0.4249290000000 1.0
C      1  0.5752700000000  0.4622690000000  0.4890880000000 1.0
C      1  0.5335790000000  0.5374790000000  0.5670020000000 1.0
C      1  0.4429160000000  0.5344410000000  0.5536230000000 1.0
C      1  0.4309300000000  0.5341150000000  0.4599190000000 1.0
C      1  0.5141500000000  0.5352820000000  0.4271520000000 1.0
C      1  0.5745470000000  0.5340520000000  0.4924290000000 1.0
C      1  0.4835690000000  0.5591090000000  0.4109950000000 1.0
C      1  0.5804460000000  0.5573640000000  0.4566310000000 1.0
C      1  0.5687820000000  0.5601940000000  0.5640730000000 1.0
C      1  0.4635530000000  0.5590850000000  0.5832140000000 1.0
C      1  0.4105970000000  0.5574120000000  0.4889650000000 1.0
C      1  0.4834000000000  0.4429010000000  0.4106210000000 1.0
C      1  0.5823510000000  0.4391880000000  0.4547290000000 1.0
C      1  0.5687520000000  0.4423850000000  0.5613810000000 1.0
C      1  0.4639420000000  0.4426470000000  0.5834770000000 1.0
C      1  0.4105220000000  0.4422790000000  0.4903240000000 1.0
C      1  0.4776420000000  0.5170950000000  0.6106120000000 1.0
C      1  0.3889350000000  0.5154270000000  0.5103980000000 1.0
C      1  0.4570470000000  0.5170660000000  0.3938850000000 1.0
C      1  0.5826620000000  0.5141130000000  0.4275400000000 1.0
C      1  0.5973430000000  0.5162910000000  0.5563610000000 1.0
C      1  0.4793190000000  0.4861100000000  0.6082060000000 1.0
C      1  0.3853550000000  0.4842360000000  0.5099550000000 1.0
C      1  0.4569990000000  0.4858120000000  0.3969520000000 1.0
C      1  0.5842720000000  0.4830120000000  0.4266340000000 1.0
C      1  0.5973690000000  0.4852040000000  0.5553870000000 1.0
C      1  0.4442220000000  0.5367900000000  0.4172550000000 1.0
C      1  0.5549550000000  0.5272510000000  0.4328080000000 1.0
C      1  0.5816050000000  0.5301710000000  0.5335740000000 1.0
C      1  0.5000410000000  0.5355440000000  0.5967320000000 1.0
C      1  0.4137980000000  0.5269810000000  0.5243560000000 1.0
C      1  0.4510610000000  0.4739900000000  0.4248420000000 1.0
C      1  0.5573980000000  0.4674640000000  0.4304310000000 1.0
C      1  0.5858820000000  0.4707310000000  0.5297920000000 1.0
C      1  0.4987390000000  0.4744000000000  0.5874570000000 1.0
C      1  0.4035350000000  0.4643200000000  0.5298010000000 1.0
C      1  0.5066010000000  0.4866710000000  0.4714110000000 1.0
C      1  0.5349930000000  0.4917330000000  0.4907450000000 1.0
C      1  0.5211810000000  0.4887930000000  0.5201120000000 1.0
C      1  0.4712640000000  0.4853970000000  0.5196120000000 1.0
C      1  0.4590410000000  0.4919410000000  0.4941770000000 1.0
C      1  0.4915810000000  0.5097000000000  0.4632270000000 1.0
C      1  0.5261050000000  0.5201850000000  0.4875090000000 1.0
C      1  0.5076860000000  0.5133350000000  0.5299410000000 1.0
C      1  0.4794620000000  0.5085720000000  0.5344890000000 1.0
C      1  0.4714390000000  0.5154340000000  0.4843130000000 1.0
C      1  0.5120580000000  0.4422820000000  0.5208910000000 1.0
C      1  0.4804210000000  0.4424990000000  0.5174840000000 1.0
C      1  0.4749060000000  0.4452460000000  0.4867490000000 1.0
C      1  0.5017260000000  0.4416150000000  0.4715410000000 1.0
C      1  0.5249200000000  0.4415210000000  0.4926090000000 1.0
C      1  0.5104200000000  0.5590040000000  0.5230580000000 1.0
C      1  0.4788520000000  0.5559350000000  0.5193780000000 1.0
C      1  0.4728940000000  0.5585860000000  0.4890860000000 1.0
C      1  0.5000670000000  0.5579650000000  0.4737520000000 1.0
C      1  0.5228060000000  0.5615070000000  0.4942090000000 1.0
C      1  0.5522430000000  0.4852080000000  0.5764050000000 1.0
C      1  0.4398550000000  0.4848010000000  0.5778590000000 1.0
C      1  0.4084330000000  0.4845730000000  0.4642750000000 1.0
C      1  0.5062060000000  0.4849190000000  0.4042110000000 1.0
C      1  0.5940120000000  0.4830350000000  0.4764770000000 1.0
C      1  0.5523750000000  0.5164390000000  0.5783410000000 1.0
C      1  0.4392670000000  0.5158220000000  0.5772160000000 1.0
C      1  0.4077610000000  0.5153480000000  0.4638840000000 1.0
C      1  0.5069040000000  0.5158340000000  0.4047430000000 1.0
C      1  0.5917460000000  0.5145270000000  0.4762810000000 1.0
C      1  0.5786860000000  0.4404550000000  0.5311440000000 1.0
C      1  0.4945930000000  0.4454250000000  0.5784720000000 1.0
C      1  0.4163360000000  0.4361310000000  0.5210850000000 1.0
C      1  0.4600030000000  0.4448330000000  0.4315280000000 1.0
C      1  0.5563670000000  0.4375040000000  0.4360550000000 1.0
C      1  0.5763840000000  0.5600540000000  0.5334830000000 1.0
C      1  0.4947690000000  0.5645330000000  0.5861890000000 1.0
C      1  0.4232310000000  0.5559650000000  0.5176690000000 1.0
C      1  0.4561300000000  0.5649960000000  0.4259380000000 1.0
C      1  0.5535940000000  0.5569620000000  0.4402270000000 1.0
C      1  0.5598250000000  0.5133430000000  0.5258350000000 1.0
C      1  0.4951690000000  0.5211020000000  0.5713470000000 1.0
C      1  0.4333900000000  0.5058570000000  0.5243790000000 1.0
C      1  0.4624250000000  0.5212500000000  0.4353240000000 1.0
C      1  0.5391310000000  0.5096070000000  0.4490510000000 1.0
C      1  0.5630470000000  0.4860460000000  0.5214600000000 1.0
C      1  0.5019700000000  0.4943980000000  0.5669900000000 1.0
C      1  0.4264030000000  0.4794990000000  0.5174420000000 1.0
C      1  0.4575610000000  0.4948830000000  0.4435790000000 1.0
C      1  0.5441090000000  0.4824290000000  0.4508730000000 1.0
C      1  0.5773630000000  0.4699680000000  0.5728870000000 1.0
C      1  0.4555030000000  0.4698320000000  0.5978670000000 1.0
C      1  0.3951480000000  0.4687420000000  0.4853610000000 1.0
C      1  0.4829270000000  0.4698340000000  0.3937970000000 1.0
C      1  0.5958260000000  0.4673340000000  0.4507510000000 1.0
C      1  0.5777990000000  0.5318470000000  0.5753640000000 1.0
C      1  0.4552040000000  0.5320630000000  0.5961330000000 1.0
C      1  0.3935350000000  0.5311510000000  0.4845710000000 1.0
C      1  0.4837650000000  0.5320980000000  0.3958090000000 1.0
C      1  0.5946970000000  0.5298100000000  0.4511200000000 1.0
C      1  0.4505920000000  0.4269080000000  0.4568950000000 1.0
C      1  0.5279130000000  0.4237060000000  0.4369210000000 1.0
C      1  0.5696760000000  0.4240000000000  0.5054610000000 1.0
C      1  0.5163480000000  0.4269740000000  0.5648960000000 1.0
C      1  0.4416800000000  0.4240930000000  0.5362850000000 1.0
C      1  0.4491160000000  0.5767780000000  0.4545420000000 1.0
C      1  0.5271610000000  0.5743760000000  0.4392100000000 1.0
C      1  0.5684840000000  0.5751940000000  0.5071280000000 1.0
C      1  0.5168430000000  0.5776000000000  0.5681230000000 1.0
C      1  0.4440510000000  0.5742660000000  0.5345940000000 1.0
C      1  0.5249580000000  0.4649770000000  0.5361130000000 1.0
C      1  0.4627510000000  0.4621220000000  0.5350320000000 1.0
C      1  0.4561770000000  0.4683600000000  0.4782760000000 1.0
C      1  0.5062500000000  0.4643840000000  0.4531190000000 1.0
C      1  0.5461840000000  0.4640240000000  0.4885550000000 1.0
C      1  0.5214760000000  0.5366140000000  0.5403950000000 1.0
C      1  0.4648010000000  0.5328130000000  0.5346200000000 1.0
C      1  0.4535690000000  0.5375700000000  0.4791600000000 1.0
C      1  0.5034790000000  0.5341350000000  0.4541320000000 1.0
C      1  0.5459190000000  0.5416310000000  0.4860420000000 1.0
C      1  0.5451870000000  0.4067770000000  0.5045710000000 1.0
C      1  0.5100380000000  0.4070350000000  0.5435030000000 1.0
C      1  0.4614710000000  0.4055600000000  0.5232850000000 1.0
C      1  0.4683190000000  0.4069580000000  0.4709390000000 1.0
C      1  0.5193520000000  0.4056760000000  0.4590050000000 1.0
C      1  0.5459210000000  0.5945340000000  0.5057740000000 1.0
C      1  0.5106550000000  0.5950360000000  0.5445170000000 1.0
C      1  0.4626200000000  0.5944990000000  0.5220510000000 1.0
C      1  0.4673080000000  0.5953260000000  0.4696520000000 1.0
C      1  0.5190070000000  0.5931480000000  0.4609030000000 1.0
C      1  0.5384990000000  0.3947720000000  0.4783880000000 1.0
C      1  0.5330900000000  0.3956080000000  0.5289950000000 1.0
C      1  0.4832270000000  0.3950480000000  0.5404530000000 1.0
C      1  0.4576190000000  0.3949310000000  0.4959680000000 1.0
C      1  0.4918270000000  0.3950380000000  0.4578390000000 1.0
C      1  0.5387140000000  0.6050710000000  0.4792180000000 1.0
C      1  0.5338450000000  0.6061320000000  0.5299090000000 1.0
C      1  0.4835580000000  0.6062090000000  0.5397280000000 1.0
C      1  0.4574080000000  0.6061180000000  0.4954160000000 1.0
C      1  0.4922880000000  0.6056190000000  0.4580820000000 1.0
C      1  0.4443320000000  0.4258820000000  0.5669380000000 1.0
C      1  0.4217110000000  0.4262900000000  0.4670800000000 1.0
C      1  0.5085830000000  0.4257740000000  0.4132280000000 1.0
C      1  0.5867890000000  0.4229160000000  0.4800440000000 1.0
C      1  0.5455990000000  0.4270290000000  0.5738190000000 1.0
C      1  0.4446580000000  0.5747420000000  0.5652720000000 1.0
C      1  0.4206930000000  0.5744230000000  0.4657660000000 1.0
C      1  0.5090290000000  0.5750600000000  0.4147110000000 1.0
C      1  0.5857670000000  0.5731770000000  0.4820760000000 1.0
C      1  0.5462540000000  0.5763600000000  0.5765630000000 1.0
C      1  0.5001290000000  0.5244350000000  0.5015490000000 1.0
C      1  0.4975390000000  0.4782750000000  0.5037290000000 1.0
END
