TITL C-862134-6730-904 -0.146985578450001 125000 -105.389612050697 0 0 24 (C1) n - 1
REM
REM in /home/nfs/bkarasulu/CARBON/AIRSS/Generating-Clusters/TERSOFF/Higher-Symm/FIRE-HFTN
REM
REM
REM
REM
REM
REM ./C.cell (b20cbc046b6831c77cfcea5457e17084)
REM AIRSS Version 0.9.1 bugfix July 2018 build 013d7b7c2542+ Fri, 06 Jul 2018 19:26:36 +0100
REM compiler GCC version 9.2.1 20190827 (Red Hat 9.2.1-1)
REM options -cpp -mtune=generic -march=x86-64 -g -O0 -fpre-include=/usr/include/finclude/math-vector-fortran.h
REM seed -251964593 1399128795 116789114 -234695120 -960639642 1914476572 -1082856698 1177690928 608014140 171221243 1369448201 -1250419464 528793683 1316133019 -804590640 -854648726 -157020508 106510312 -562020330 -742123070 537793383 1789816592 1977456095 1372760835 1279280181 1792643919 -1803400864 -380790617 -1743843013 -870298690 -317693162 -75481939 -261252960
REM
CELL 1.54180   50.00000   50.00000   50.00000   90.00000   90.00000   90.00000
LATT -1
SFAC C  
C      1  0.4520470000000  0.5309440000000  0.5655700000000 1.0
C      1  0.5019680000000  0.4639990000000  0.5509690000000 1.0
C      1  0.5777900000000  0.4888070000000  0.5155910000000 1.0
C      1  0.5462250000000  0.5336570000000  0.4370980000000 1.0
C      1  0.4988570000000  0.4636840000000  0.4488260000000 1.0
C      1  0.4217330000000  0.4868770000000  0.4804150000000 1.0
C      1  0.5199500000000  0.4595560000000  0.5248790000000 1.0
C      1  0.4833520000000  0.5354830000000  0.5703840000000 1.0
C      1  0.4127190000000  0.5007070000000  0.5078240000000 1.0
C      1  0.4802140000000  0.4577860000000  0.4741520000000 1.0
C      1  0.5146480000000  0.5385370000000  0.4353970000000 1.0
C      1  0.5897160000000  0.4954350000000  0.4866500000000 1.0
C      1  0.4943000000000  0.4939570000000  0.4581330000000 1.0
C      1  0.4497930000000  0.5001900000000  0.4881110000000 1.0
C      1  0.4542390000000  0.5106590000000  0.5409220000000 1.0
C      1  0.5058210000000  0.4947320000000  0.5429430000000 1.0
C      1  0.5493460000000  0.5030220000000  0.5120360000000 1.0
C      1  0.5459030000000  0.5099360000000  0.4585690000000 1.0
C      1  0.5143260000000  0.5148160000000  0.4568680000000 1.0
C      1  0.5612720000000  0.5096500000000  0.4830940000000 1.0
C      1  0.5238030000000  0.4902890000000  0.5168540000000 1.0
C      1  0.4855440000000  0.5151980000000  0.5457360000000 1.0
C      1  0.4407780000000  0.5140200000000  0.5155200000000 1.0
C      1  0.4756570000000  0.4880580000000  0.4834590000000 1.0
END
