TITL C-862506-1665-253 1.0145755808487 125000 -895.301907239363 0 0 155 (C1) n - 1
REM
REM in /home/nfs/bkarasulu/CARBON/AIRSS/Generating-Clusters/TERSOFF/Higher-Symm/FIRE-HFTN
REM
REM
REM
REM
REM
REM ./C.cell (b20cbc046b6831c77cfcea5457e17084)
REM AIRSS Version 0.9.1 bugfix July 2018 build 013d7b7c2542+ Fri, 06 Jul 2018 19:26:36 +0100
REM compiler GCC version 9.2.1 20190827 (Red Hat 9.2.1-1)
REM options -cpp -mtune=generic -march=x86-64 -g -O0 -fpre-include=/usr/include/finclude/math-vector-fortran.h
REM seed -1602394669 -1199386975 623406188 -1094383457 953503912 -1191287886 -762519140 -1920092718 1692838501 1794832864 -170634324 -369192519 -614612525 1504825174 -252178318 1358742699 -2092866531 550080094 -1311891101 -1890451515 -1246272990 1998325123 1455025906 1945105330 267801897 711567333 -1636376903 1210573729 -266450776 1948819072 -313403459 -776811033 478561685
REM
CELL 1.54180   50.00000   50.00000   50.00000   90.00000   90.00000   90.00000
LATT -1
SFAC C  
C      1  0.4632160000000  0.5495750000000  0.5214900000000 1.0
C      1  0.5381850000000  0.4510010000000  0.5221050000000 1.0
C      1  0.5374350000000  0.5499240000000  0.5222560000000 1.0
C      1  0.4620740000000  0.4512880000000  0.5212900000000 1.0
C      1  0.4365880000000  0.5800560000000  0.4584730000000 1.0
C      1  0.5632230000000  0.4210810000000  0.4587170000000 1.0
C      1  0.5636400000000  0.5800710000000  0.4584240000000 1.0
C      1  0.4368060000000  0.4212050000000  0.4592720000000 1.0
C      1  0.4030010000000  0.4415630000000  0.4936790000000 1.0
C      1  0.5969600000000  0.5591080000000  0.4930640000000 1.0
C      1  0.5972860000000  0.4414180000000  0.4929560000000 1.0
C      1  0.4034410000000  0.5592120000000  0.4931670000000 1.0
C      1  0.4856590000000  0.5265880000000  0.5614200000000 1.0
C      1  0.5141900000000  0.4747830000000  0.5618100000000 1.0
C      1  0.5143670000000  0.5257220000000  0.5619400000000 1.0
C      1  0.4853480000000  0.4737320000000  0.5612810000000 1.0
C      1  0.4432900000000  0.5851220000000  0.5489260000000 1.0
C      1  0.5578750000000  0.4153350000000  0.5493020000000 1.0
C      1  0.5576880000000  0.5855360000000  0.5491140000000 1.0
C      1  0.4432060000000  0.4155830000000  0.5493990000000 1.0
C      1  0.5553330000000  0.5421900000000  0.5811200000000 1.0
C      1  0.4453140000000  0.4573460000000  0.5804760000000 1.0
C      1  0.4453890000000  0.5431080000000  0.5803170000000 1.0
C      1  0.5553650000000  0.4586900000000  0.5814710000000 1.0
C      1  0.5828390000000  0.4849120000000  0.4986650000000 1.0
C      1  0.4186510000000  0.5166710000000  0.4979000000000 1.0
C      1  0.4175020000000  0.4856410000000  0.4990770000000 1.0
C      1  0.5820900000000  0.5158990000000  0.4984140000000 1.0
C      1  0.5543370000000  0.4752790000000  0.3970370000000 1.0
C      1  0.4448340000000  0.5255250000000  0.3967890000000 1.0
C      1  0.4452770000000  0.4748460000000  0.3972400000000 1.0
C      1  0.5545490000000  0.5260070000000  0.3971180000000 1.0
C      1  0.4110830000000  0.4438670000000  0.5214200000000 1.0
C      1  0.5887280000000  0.5563490000000  0.5206740000000 1.0
C      1  0.5893890000000  0.4440160000000  0.5207370000000 1.0
C      1  0.4119250000000  0.5561970000000  0.5206470000000 1.0
C      1  0.5306720000000  0.5933350000000  0.5011230000000 1.0
C      1  0.4696380000000  0.4068390000000  0.5014550000000 1.0
C      1  0.4700600000000  0.5932580000000  0.5010070000000 1.0
C      1  0.5308680000000  0.4069590000000  0.5014870000000 1.0
C      1  0.4755990000000  0.4857120000000  0.5869310000000 1.0
C      1  0.5242110000000  0.5147260000000  0.5875080000000 1.0
C      1  0.5238690000000  0.4858280000000  0.5874040000000 1.0
C      1  0.4757100000000  0.5148240000000  0.5869690000000 1.0
C      1  0.4703460000000  0.4443260000000  0.5914330000000 1.0
C      1  0.5302770000000  0.5560500000000  0.5915280000000 1.0
C      1  0.5303250000000  0.4446090000000  0.5918440000000 1.0
C      1  0.4703530000000  0.5562280000000  0.5912050000000 1.0
C      1  0.5290190000000  0.4858160000000  0.4070930000000 1.0
C      1  0.4705260000000  0.5155380000000  0.4065250000000 1.0
C      1  0.4707440000000  0.4855250000000  0.4067750000000 1.0
C      1  0.5290480000000  0.5157150000000  0.4070130000000 1.0
C      1  0.5572130000000  0.5289560000000  0.4917360000000 1.0
C      1  0.4406090000000  0.4701870000000  0.4905420000000 1.0
C      1  0.4436660000000  0.5291210000000  0.4904670000000 1.0
C      1  0.5590490000000  0.4702140000000  0.4911500000000 1.0
C      1  0.5140840000000  0.5796830000000  0.4308950000000 1.0
C      1  0.4852990000000  0.4228070000000  0.4278590000000 1.0
C      1  0.4853500000000  0.5796050000000  0.4304650000000 1.0
C      1  0.5142030000000  0.4226200000000  0.4277340000000 1.0
C      1  0.5165370000000  0.4850740000000  0.4589060000000 1.0
C      1  0.4847660000000  0.5165780000000  0.4573680000000 1.0
C      1  0.4843480000000  0.4852620000000  0.4578330000000 1.0
C      1  0.5163800000000  0.5165490000000  0.4586190000000 1.0
C      1  0.5971730000000  0.4848030000000  0.5268170000000 1.0
C      1  0.4045680000000  0.5152670000000  0.5263460000000 1.0
C      1  0.4031290000000  0.4846500000000  0.5272500000000 1.0
C      1  0.5966530000000  0.5155530000000  0.5265550000000 1.0
C      1  0.5283250000000  0.5558280000000  0.4404930000000 1.0
C      1  0.4716040000000  0.4457640000000  0.4410670000000 1.0
C      1  0.4710680000000  0.5557840000000  0.4402120000000 1.0
C      1  0.5284160000000  0.4454920000000  0.4402370000000 1.0
C      1  0.4620830000000  0.5942870000000  0.4685880000000 1.0
C      1  0.5380500000000  0.4066420000000  0.4691710000000 1.0
C      1  0.5383780000000  0.5946590000000  0.4686670000000 1.0
C      1  0.4620250000000  0.4066520000000  0.4693380000000 1.0
C      1  0.4722760000000  0.5536950000000  0.4719960000000 1.0
C      1  0.5228280000000  0.4457030000000  0.4716160000000 1.0
C      1  0.5293940000000  0.5538180000000  0.4724560000000 1.0
C      1  0.4810150000000  0.4457910000000  0.4713190000000 1.0
C      1  0.5562900000000  0.5181950000000  0.5589590000000 1.0
C      1  0.4442760000000  0.4822230000000  0.5591880000000 1.0
C      1  0.4445360000000  0.5184130000000  0.5590830000000 1.0
C      1  0.5563870000000  0.4824340000000  0.5589890000000 1.0
C      1  0.5813970000000  0.5816460000000  0.4821310000000 1.0
C      1  0.4190120000000  0.4193040000000  0.4828180000000 1.0
C      1  0.4190950000000  0.5816930000000  0.4822960000000 1.0
C      1  0.5812290000000  0.4191830000000  0.4821790000000 1.0
C      1  0.4021230000000  0.5178190000000  0.4593350000000 1.0
C      1  0.5974290000000  0.4830540000000  0.4593470000000 1.0
C      1  0.5974850000000  0.5176300000000  0.4593960000000 1.0
C      1  0.4026310000000  0.4831680000000  0.4599000000000 1.0
C      1  0.6111320000000  0.5375800000000  0.4771950000000 1.0
C      1  0.3889020000000  0.4633500000000  0.4778910000000 1.0
C      1  0.3888560000000  0.5379200000000  0.4772960000000 1.0
C      1  0.6113000000000  0.4629830000000  0.4769210000000 1.0
C      1  0.5300510000000  0.4079930000000  0.5542870000000 1.0
C      1  0.4709590000000  0.5927190000000  0.5539260000000 1.0
C      1  0.4709460000000  0.4079890000000  0.5542460000000 1.0
C      1  0.5299130000000  0.5928390000000  0.5540710000000 1.0
C      1  0.4249280000000  0.5279220000000  0.4403980000000 1.0
C      1  0.5745090000000  0.4729380000000  0.4405340000000 1.0
C      1  0.5747440000000  0.5279450000000  0.4404700000000 1.0
C      1  0.4256400000000  0.4729840000000  0.4412470000000 1.0
C      1  0.5838310000000  0.4738950000000  0.5497130000000 1.0
C      1  0.4171440000000  0.5262150000000  0.5495740000000 1.0
C      1  0.4165350000000  0.4739230000000  0.5502330000000 1.0
C      1  0.5837020000000  0.5263860000000  0.5496570000000 1.0
C      1  0.4688210000000  0.5251450000000  0.5367240000000 1.0
C      1  0.5326670000000  0.4744340000000  0.5387290000000 1.0
C      1  0.5324660000000  0.5262240000000  0.5386510000000 1.0
C      1  0.4683100000000  0.4754440000000  0.5366500000000 1.0
C      1  0.5781650000000  0.5158810000000  0.4116040000000 1.0
C      1  0.4218480000000  0.4846220000000  0.4121600000000 1.0
C      1  0.4214900000000  0.5154750000000  0.4117250000000 1.0
C      1  0.5780240000000  0.4850270000000  0.4116050000000 1.0
C      1  0.4852160000000  0.4658060000000  0.6088880000000 1.0
C      1  0.5148980000000  0.5348670000000  0.6091350000000 1.0
C      1  0.5148450000000  0.4659010000000  0.6092740000000 1.0
C      1  0.4852860000000  0.5348750000000  0.6088150000000 1.0
C      1  0.5153630000000  0.5771810000000  0.5753890000000 1.0
C      1  0.4855210000000  0.4233890000000  0.5756080000000 1.0
C      1  0.4854750000000  0.5772660000000  0.5753580000000 1.0
C      1  0.5154510000000  0.4235490000000  0.5756100000000 1.0
C      1  0.5621580000000  0.5640250000000  0.5304810000000 1.0
C      1  0.4379490000000  0.4370860000000  0.5308940000000 1.0
C      1  0.4386530000000  0.5636260000000  0.5303050000000 1.0
C      1  0.5627230000000  0.4368020000000  0.5306370000000 1.0
C      1  0.5160170000000  0.5300710000000  0.4294290000000 1.0
C      1  0.4837250000000  0.4715250000000  0.4293520000000 1.0
C      1  0.4834160000000  0.5301500000000  0.4288620000000 1.0
C      1  0.5162260000000  0.4715830000000  0.4296950000000 1.0
C      1  0.4375560000000  0.5952160000000  0.5026630000000 1.0
C      1  0.5632220000000  0.4053970000000  0.5027640000000 1.0
C      1  0.5631720000000  0.5953610000000  0.5025520000000 1.0
C      1  0.4372540000000  0.4054980000000  0.5032310000000 1.0
C      1  0.4820530000000  0.4366620000000  0.5015830000000 1.0
C      1  0.5173260000000  0.5631060000000  0.4996330000000 1.0
C      1  0.5180610000000  0.4369160000000  0.5016140000000 1.0
C      1  0.4832300000000  0.5631720000000  0.4994340000000 1.0
C      1  0.4854840000000  0.3996710000000  0.5290470000000 1.0
C      1  0.5152990000000  0.6007200000000  0.5286270000000 1.0
C      1  0.5153550000000  0.3997060000000  0.5290200000000 1.0
C      1  0.4855300000000  0.6006620000000  0.5285880000000 1.0
C      1  0.4665330000000  0.4825610000000  0.4853410000000 1.0
C      1  0.5330030000000  0.5141830000000  0.4857540000000 1.0
C      1  0.5334860000000  0.4832970000000  0.4868110000000 1.0
C      1  0.4671710000000  0.5136690000000  0.4835390000000 1.0
C      1  0.4415940000000  0.4460290000000  0.4431970000000 1.0
C      1  0.5593270000000  0.5553220000000  0.4416800000000 1.0
C      1  0.5588240000000  0.4457510000000  0.4419840000000 1.0
C      1  0.4402390000000  0.5553850000000  0.4413240000000 1.0
C      1  0.5597260000000  0.5005210000000  0.4466760000000 1.0
C      1  0.4401510000000  0.5007590000000  0.4470150000000 1.0
C      1  0.4739050000000  0.5002260000000  0.5226980000000 1.0
END
