TITL C-862128-1543-1112 -0.0340155432022617 125000 -527.625876345056 0 0 97 (C1) n - 1
REM
REM in /home/nfs/bkarasulu/CARBON/AIRSS/Generating-Clusters/TERSOFF/Higher-Symm/FIRE-HFTN
REM
REM
REM
REM
REM
REM ./C.cell (b20cbc046b6831c77cfcea5457e17084)
REM AIRSS Version 0.9.1 bugfix July 2018 build 013d7b7c2542+ Fri, 06 Jul 2018 19:26:36 +0100
REM compiler GCC version 9.2.1 20190827 (Red Hat 9.2.1-1)
REM options -cpp -mtune=generic -march=x86-64 -g -O0 -fpre-include=/usr/include/finclude/math-vector-fortran.h
REM seed -911609696 -934950018 -1964644007 -777630200 -2021837555 2124913706 1737256534 1541473397 110456906 1768773314 1488513694 -2017183225 1576496321 -1250152121 -269912685 215075576 -1815750438 -1312121708 308335270 -143888795 821430875 1928177542 1157625131 802568541 1564838562 1147640346 1923468233 -1643444105 32652021 -1267829242 1325427075 -263230479 1230768033
REM
CELL 1.54180   50.00000   50.00000   50.00000   90.00000   90.00000   90.00000
LATT -1
SFAC C  
C      1  0.5838650000000  0.4875360000000  0.5216590000000 1.0
C      1  0.5142230000000  0.4177350000000  0.5214030000000 1.0
C      1  0.4259860000000  0.4623360000000  0.5217770000000 1.0
C      1  0.4423790000000  0.5604500000000  0.5217240000000 1.0
C      1  0.5390590000000  0.5748070000000  0.5216080000000 1.0
C      1  0.5455130000000  0.4585320000000  0.5649710000000 1.0
C      1  0.4748640000000  0.4444310000000  0.5646060000000 1.0
C      1  0.4401650000000  0.5075380000000  0.5641990000000 1.0
C      1  0.4890880000000  0.5606330000000  0.5645140000000 1.0
C      1  0.5547000000000  0.5299140000000  0.5650190000000 1.0
C      1  0.4354730000000  0.4920210000000  0.5347110000000 1.0
C      1  0.4734520000000  0.5597650000000  0.5347010000000 1.0
C      1  0.5489540000000  0.5449520000000  0.5351650000000 1.0
C      1  0.5587510000000  0.4686060000000  0.5352240000000 1.0
C      1  0.4884830000000  0.4353250000000  0.5350260000000 1.0
C      1  0.5626120000000  0.5273710000000  0.4762810000000 1.0
C      1  0.5480910000000  0.4477480000000  0.4751750000000 1.0
C      1  0.4642380000000  0.4368160000000  0.4750270000000 1.0
C      1  0.4251150000000  0.5181630000000  0.4741550000000 1.0
C      1  0.4945320000000  0.5714890000000  0.4751500000000 1.0
C      1  0.4953730000000  0.4709100000000  0.4686550000000 1.0
C      1  0.4704740000000  0.5098790000000  0.4674420000000 1.0
C      1  0.4920640000000  0.5262250000000  0.4566850000000 1.0
C      1  0.5190990000000  0.5130810000000  0.4556000000000 1.0
C      1  0.5196400000000  0.4833390000000  0.4587020000000 1.0
C      1  0.5829360000000  0.5211250000000  0.5606890000000 1.0
C      1  0.5458700000000  0.4289670000000  0.5606660000000 1.0
C      1  0.4468910000000  0.4349040000000  0.5607390000000 1.0
C      1  0.4227940000000  0.5315400000000  0.5608170000000 1.0
C      1  0.5063060000000  0.5846930000000  0.5605690000000 1.0
C      1  0.5357400000000  0.5059040000000  0.5681200000000 1.0
C      1  0.5167030000000  0.4688060000000  0.5669510000000 1.0
C      1  0.4754350000000  0.4748880000000  0.5661610000000 1.0
C      1  0.4693230000000  0.5161470000000  0.5644850000000 1.0
C      1  0.5062730000000  0.5354020000000  0.5670110000000 1.0
C      1  0.5717700000000  0.4507810000000  0.4908670000000 1.0
C      1  0.4756910000000  0.4160430000000  0.4910330000000 1.0
C      1  0.4124610000000  0.4989280000000  0.4915130000000 1.0
C      1  0.4732260000000  0.5823230000000  0.4907140000000 1.0
C      1  0.5693510000000  0.5511040000000  0.4905810000000 1.0
C      1  0.4552700000000  0.4574100000000  0.4921840000000 1.0
C      1  0.4436320000000  0.5316800000000  0.4912700000000 1.0
C      1  0.5137550000000  0.5597230000000  0.4917820000000 1.0
C      1  0.5591290000000  0.5055620000000  0.4930100000000 1.0
C      1  0.5257600000000  0.4452440000000  0.4919470000000 1.0
C      1  0.5901410000000  0.5159870000000  0.5320490000000 1.0
C      1  0.5432570000000  0.4205690000000  0.5320060000000 1.0
C      1  0.4376240000000  0.4351410000000  0.5321660000000 1.0
C      1  0.4199010000000  0.5410290000000  0.5323470000000 1.0
C      1  0.5138650000000  0.5899030000000  0.5319870000000 1.0
C      1  0.4828030000000  0.5872390000000  0.5191800000000 1.0
C      1  0.5776210000000  0.5439540000000  0.5190350000000 1.0
C      1  0.5665870000000  0.4409170000000  0.5193220000000 1.0
C      1  0.4647830000000  0.4185080000000  0.5195540000000 1.0
C      1  0.4121880000000  0.5098790000000  0.5201050000000 1.0
C      1  0.4725840000000  0.5217800000000  0.4131390000000 1.0
C      1  0.5129250000000  0.5345560000000  0.4125270000000 1.0
C      1  0.5374080000000  0.5004330000000  0.4129720000000 1.0
C      1  0.5130480000000  0.4662310000000  0.4121610000000 1.0
C      1  0.4733920000000  0.4798160000000  0.4146680000000 1.0
C      1  0.5793920000000  0.4813710000000  0.4869210000000 1.0
C      1  0.5074520000000  0.4192650000000  0.4863110000000 1.0
C      1  0.4263720000000  0.4698010000000  0.4865260000000 1.0
C      1  0.4480110000000  0.5629440000000  0.4861230000000 1.0
C      1  0.5437940000000  0.5693800000000  0.4863260000000 1.0
C      1  0.4524790000000  0.5292740000000  0.4348390000000 1.0
C      1  0.5126320000000  0.5553060000000  0.4344350000000 1.0
C      1  0.5558240000000  0.5075790000000  0.4354260000000 1.0
C      1  0.5253430000000  0.4497040000000  0.4342340000000 1.0
C      1  0.4626060000000  0.4650420000000  0.4380380000000 1.0
C      1  0.5039290000000  0.5510150000000  0.5192930000000 1.0
C      1  0.5498240000000  0.5125810000000  0.5208030000000 1.0
C      1  0.5284080000000  0.4582960000000  0.5194220000000 1.0
C      1  0.4691950000000  0.4602130000000  0.5189060000000 1.0
C      1  0.4533520000000  0.5170540000000  0.5165750000000 1.0
C      1  0.5441310000000  0.4654470000000  0.4528110000000 1.0
C      1  0.4812270000000  0.4482700000000  0.4547060000000 1.0
C      1  0.4428620000000  0.5074200000000  0.4538290000000 1.0
C      1  0.4880070000000  0.5563230000000  0.4518070000000 1.0
C      1  0.5453930000000  0.5291680000000  0.4535750000000 1.0
C      1  0.4571720000000  0.5555000000000  0.4516890000000 1.0
C      1  0.5383130000000  0.5588550000000  0.4519130000000 1.0
C      1  0.5684350000000  0.4841700000000  0.4523050000000 1.0
C      1  0.5064320000000  0.4305190000000  0.4515770000000 1.0
C      1  0.4391770000000  0.4774740000000  0.4534520000000 1.0
C      1  0.4688190000000  0.4841010000000  0.5373430000000 1.0
C      1  0.4750330000000  0.5256020000000  0.5358180000000 1.0
C      1  0.5170410000000  0.5318570000000  0.5383640000000 1.0
C      1  0.5357570000000  0.4943040000000  0.5395670000000 1.0
C      1  0.5060480000000  0.4647360000000  0.5382810000000 1.0
C      1  0.5016400000000  0.5004060000000  0.4146780000000 1.0
C      1  0.5011370000000  0.5004520000000  0.3821930000000 1.0
C      1  0.5009370000000  0.5001570000000  0.5308170000000 1.0
C      1  0.5001020000000  0.5003090000000  0.5771060000000 1.0
C      1  0.4810540000000  0.4896970000000  0.4847270000000 1.0
C      1  0.5007310000000  0.5019070000000  0.5017080000000 1.0
C      1  0.4988320000000  0.5004030000000  0.6075680000000 1.0
END
