TITL C-862133-5440-663 9.82302275489793e-05 125000 -422.211344391125 0 0 75 (C5) n - 1
REM
REM in /home/nfs/bkarasulu/CARBON/AIRSS/Generating-Clusters/TERSOFF/Higher-Symm/FIRE-HFTN
REM
REM
REM
REM
REM
REM ./C.cell (b20cbc046b6831c77cfcea5457e17084)
REM AIRSS Version 0.9.1 bugfix July 2018 build 013d7b7c2542+ Fri, 06 Jul 2018 19:26:36 +0100
REM compiler GCC version 9.2.1 20190827 (Red Hat 9.2.1-1)
REM options -cpp -mtune=generic -march=x86-64 -g -O0 -fpre-include=/usr/include/finclude/math-vector-fortran.h
REM seed -1240333832 -337326530 1104977664 -2050318678 862886448 -1562749975 1141942652 -995049541 977643554 347260575 1773377703 -412738978 -2043127792 1594095729 -1820221073 -97159079 1466924816 -1452456648 -1966107440 336243033 1091123924 1475233821 -1574385031 1447589015 1256293029 -1327889867 -728657817 328696223 1486109969 -1153876268 953296784 -1578567524 -1650509764
REM
CELL 1.54180   50.00000   50.00000   50.00000   90.00000   90.00000   90.00000
LATT -1
SFAC C  
C      1  0.5460870000000  0.4560500000000  0.4842100000000 1.0
C      1  0.5292590000000  0.4560500000000  0.5389520000000 1.0
C      1  0.4719950000000  0.4560500000000  0.5398640000000 1.0
C      1  0.4534330000000  0.4560500000000  0.4856850000000 1.0
C      1  0.4992250000000  0.4560500000000  0.4512890000000 1.0
C      1  0.5066120000000  0.5547920000000  0.4745200000000 1.0
C      1  0.5262760000000  0.5547920000000  0.4984150000000 1.0
C      1  0.5096280000000  0.5547920000000  0.5245000000000 1.0
C      1  0.4796740000000  0.5547920000000  0.5167270000000 1.0
C      1  0.4778100000000  0.5547920000000  0.4858380000000 1.0
C      1  0.5532530000000  0.5354680000000  0.4491540000000 1.0
C      1  0.5648140000000  0.5354680000000  0.5349350000000 1.0
C      1  0.4868040000000  0.5354680000000  0.5724370000000 1.0
C      1  0.4270310000000  0.5354680000000  0.5098340000000 1.0
C      1  0.4680990000000  0.5354680000000  0.4336410000000 1.0
C      1  0.4438060000000  0.5166020000000  0.4714590000000 1.0
C      1  0.5097790000000  0.5166020000000  0.4377360000000 1.0
C      1  0.5622380000000  0.5166020000000  0.4900600000000 1.0
C      1  0.5286860000000  0.5166020000000  0.5561210000000 1.0
C      1  0.4554910000000  0.5166020000000  0.5446240000000 1.0
C      1  0.5254750000000  0.4656880000000  0.4393100000000 1.0
C      1  0.5655910000000  0.4656880000000  0.5054740000000 1.0
C      1  0.5150630000000  0.4656880000000  0.5640730000000 1.0
C      1  0.4437180000000  0.4656880000000  0.5341260000000 1.0
C      1  0.4501530000000  0.4656880000000  0.4570180000000 1.0
C      1  0.5560960000000  0.5476620000000  0.4957240000000 1.0
C      1  0.5214020000000  0.5476620000000  0.5520290000000 1.0
C      1  0.4571310000000  0.5476620000000  0.5364320000000 1.0
C      1  0.4521040000000  0.5476620000000  0.4704870000000 1.0
C      1  0.5132680000000  0.5476620000000  0.4453280000000 1.0
C      1  0.4420310000000  0.4951280000000  0.4507280000000 1.0
C      1  0.5289470000000  0.4951280000000  0.4296430000000 1.0
C      1  0.5758590000000  0.4951280000000  0.5057880000000 1.0
C      1  0.5179370000000  0.4951280000000  0.5739350000000 1.0
C      1  0.4352270000000  0.4951280000000  0.5399060000000 1.0
C      1  0.5512050000000  0.4590530000000  0.4547660000000 1.0
C      1  0.5588430000000  0.4590530000000  0.5347200000000 1.0
C      1  0.4851620000000  0.4590530000000  0.5666920000000 1.0
C      1  0.4319870000000  0.4590530000000  0.5064980000000 1.0
C      1  0.4728030000000  0.4590530000000  0.4373230000000 1.0
C      1  0.5250010000000  0.4330060000000  0.4918180000000 1.0
C      1  0.5155080000000  0.4330060000000  0.5212490000000 1.0
C      1  0.4845830000000  0.4330060000000  0.5213150000000 1.0
C      1  0.4749640000000  0.4330060000000  0.4919240000000 1.0
C      1  0.4999440000000  0.4330060000000  0.4736940000000 1.0
C      1  0.4744870000000  0.4780180000000  0.5872960000000 1.0
C      1  0.4090930000000  0.4780180000000  0.5027120000000 1.0
C      1  0.4693290000000  0.4780180000000  0.4143800000000 1.0
C      1  0.5719520000000  0.4780180000000  0.4443720000000 1.0
C      1  0.5751400000000  0.4780180000000  0.5512400000000 1.0
C      1  0.5235770000000  0.4749710000000  0.4918270000000 1.0
C      1  0.5150590000000  0.4749710000000  0.5198980000000 1.0
C      1  0.4857300000000  0.4749710000000  0.5204700000000 1.0
C      1  0.4761220000000  0.4749710000000  0.4927540000000 1.0
C      1  0.4995130000000  0.4749710000000  0.4750510000000 1.0
C      1  0.5461000000000  0.5117080000000  0.5309290000000 1.0
C      1  0.4848310000000  0.5117080000000  0.5534020000000 1.0
C      1  0.4445240000000  0.5117080000000  0.5020750000000 1.0
C      1  0.4808840000000  0.5117080000000  0.4478810000000 1.0
C      1  0.5436610000000  0.5117080000000  0.4657130000000 1.0
C      1  0.4884740000000  0.5565750000000  0.4292550000000 1.0
C      1  0.5637200000000  0.5565750000000  0.4671770000000 1.0
C      1  0.5509080000000  0.5565750000000  0.5504590000000 1.0
C      1  0.4677420000000  0.5565750000000  0.5640090000000 1.0
C      1  0.4291560000000  0.5565750000000  0.4891010000000 1.0
C      1  0.5214580000000  0.5159730000000  0.5136940000000 1.0
C      1  0.4936070000000  0.5159730000000  0.5246400000000 1.0
C      1  0.4745910000000  0.5159730000000  0.5015340000000 1.0
C      1  0.4906890000000  0.5159730000000  0.4763090000000 1.0
C      1  0.5196550000000  0.5159730000000  0.4838240000000 1.0
C      1  0.4502010000000  0.4993060000000  0.4220580000000 1.0
C      1  0.5587380000000  0.4993060000000  0.4285530000000 1.0
C      1  0.5861010000000  0.4993060000000  0.5337850000000 1.0
C      1  0.4944750000000  0.4993060000000  0.5923270000000 1.0
C      1  0.4104840000000  0.4993060000000  0.5232760000000 1.0
END
