TITL C-862129-6180-51 3.28059521403097e-05 125000 -340.005786398528 0 0 80 (Th) n - 1
REM
REM in /home/nfs/bkarasulu/CARBON/AIRSS/Generating-Clusters/TERSOFF/Higher-Symm/FIRE-HFTN
REM
REM
REM
REM
REM
REM ./C.cell (b20cbc046b6831c77cfcea5457e17084)
REM AIRSS Version 0.9.1 bugfix July 2018 build 013d7b7c2542+ Fri, 06 Jul 2018 19:26:36 +0100
REM compiler GCC version 9.2.1 20190827 (Red Hat 9.2.1-1)
REM options -cpp -mtune=generic -march=x86-64 -g -O0 -fpre-include=/usr/include/finclude/math-vector-fortran.h
REM seed 1332850046 1307848778 -244773576 1692261275 435903161 -668383906 -542333634 -2053526825 -1971961935 2067456190 -658385835 -1856506280 -1982860973 -1606693108 2009550303 5282293 -1912250830 -301587610 -1733620763 -1721625158 -396117212 941980877 -1484662240 -63983808 354088968 -754530705 1819321479 565986193 1130838466 206882688 -1438957658 60675575 -1805970498
REM
CELL 1.54180   50.00000   50.00000   50.00000   90.00000   90.00000   90.00000
LATT -1
SFAC C  
C      1  0.4341430000000  0.4828070000000  0.5492370000000 1.0
C      1  0.5494120000000  0.4333590000000  0.4834150000000 1.0
C      1  0.4835910000000  0.5486280000000  0.4339680000000 1.0
C      1  0.5670740000000  0.5168410000000  0.5492370000000 1.0
C      1  0.5670740000000  0.4828070000000  0.4516290000000 1.0
C      1  0.4341430000000  0.5168410000000  0.4516290000000 1.0
C      1  0.4518050000000  0.5662890000000  0.4834150000000 1.0
C      1  0.4518050000000  0.4333590000000  0.5174500000000 1.0
C      1  0.5494120000000  0.5662890000000  0.5174500000000 1.0
C      1  0.5176260000000  0.4510200000000  0.4339680000000 1.0
C      1  0.5176260000000  0.5486280000000  0.5668980000000 1.0
C      1  0.4835910000000  0.4510200000000  0.5668980000000 1.0
C      1  0.4341430000000  0.4828070000000  0.4516290000000 1.0
C      1  0.5494120000000  0.4333590000000  0.5174500000000 1.0
C      1  0.4835910000000  0.5486280000000  0.5668980000000 1.0
C      1  0.5670740000000  0.5168410000000  0.4516290000000 1.0
C      1  0.5670740000000  0.4828070000000  0.5492370000000 1.0
C      1  0.4341430000000  0.5168410000000  0.5492370000000 1.0
C      1  0.4518050000000  0.5662890000000  0.5174500000000 1.0
C      1  0.4518050000000  0.4333590000000  0.4834150000000 1.0
C      1  0.5494120000000  0.5662890000000  0.4834150000000 1.0
C      1  0.5176260000000  0.4510200000000  0.5668980000000 1.0
C      1  0.5176260000000  0.5486280000000  0.4339680000000 1.0
C      1  0.4835910000000  0.4510200000000  0.4339680000000 1.0
C      1  0.5725490000000  0.5268060000000  0.4832170000000 1.0
C      1  0.4833930000000  0.5717640000000  0.5274140000000 1.0
C      1  0.5275900000000  0.4826090000000  0.5723730000000 1.0
C      1  0.4286690000000  0.4728430000000  0.4832170000000 1.0
C      1  0.4286690000000  0.5268060000000  0.5176480000000 1.0
C      1  0.5725490000000  0.4728430000000  0.5176480000000 1.0
C      1  0.5178240000000  0.4278840000000  0.5274140000000 1.0
C      1  0.5178240000000  0.5717640000000  0.4734510000000 1.0
C      1  0.4833930000000  0.4278840000000  0.4734510000000 1.0
C      1  0.4736270000000  0.5170400000000  0.5723730000000 1.0
C      1  0.4736270000000  0.4826090000000  0.4284930000000 1.0
C      1  0.5275900000000  0.5170400000000  0.4284930000000 1.0
C      1  0.5725490000000  0.5268060000000  0.5176480000000 1.0
C      1  0.4833930000000  0.5717640000000  0.4734510000000 1.0
C      1  0.5275900000000  0.4826090000000  0.4284930000000 1.0
C      1  0.4286690000000  0.4728430000000  0.5176480000000 1.0
C      1  0.4286690000000  0.5268060000000  0.4832170000000 1.0
C      1  0.5725490000000  0.4728430000000  0.4832170000000 1.0
C      1  0.5178240000000  0.4278840000000  0.4734510000000 1.0
C      1  0.5178240000000  0.5717640000000  0.5274140000000 1.0
C      1  0.4833930000000  0.4278840000000  0.5274140000000 1.0
C      1  0.4736270000000  0.5170400000000  0.4284930000000 1.0
C      1  0.4736270000000  0.4826090000000  0.5723730000000 1.0
C      1  0.5275900000000  0.5170400000000  0.5723730000000 1.0
C      1  0.5413850000000  0.5162730000000  0.4846900000000 1.0
C      1  0.4848660000000  0.5406000000000  0.5168810000000 1.0
C      1  0.5170570000000  0.4840820000000  0.5412090000000 1.0
C      1  0.4598320000000  0.4833760000000  0.4846900000000 1.0
C      1  0.4598320000000  0.5162730000000  0.5161750000000 1.0
C      1  0.5413850000000  0.4833760000000  0.5161750000000 1.0
C      1  0.5163510000000  0.4590480000000  0.5168810000000 1.0
C      1  0.5163510000000  0.5406000000000  0.4839840000000 1.0
C      1  0.4848660000000  0.4590480000000  0.4839840000000 1.0
C      1  0.4841600000000  0.5155660000000  0.5412090000000 1.0
C      1  0.4841600000000  0.4840820000000  0.4596570000000 1.0
C      1  0.5170570000000  0.5155660000000  0.4596570000000 1.0
C      1  0.5413850000000  0.5162730000000  0.5161750000000 1.0
C      1  0.4848660000000  0.5406000000000  0.4839840000000 1.0
C      1  0.5170570000000  0.4840820000000  0.4596570000000 1.0
C      1  0.4598320000000  0.4833760000000  0.5161750000000 1.0
C      1  0.4598320000000  0.5162730000000  0.4846900000000 1.0
C      1  0.5413850000000  0.4833760000000  0.4846900000000 1.0
C      1  0.5163510000000  0.4590480000000  0.4839840000000 1.0
C      1  0.5163510000000  0.5406000000000  0.5168810000000 1.0
C      1  0.4848660000000  0.4590480000000  0.5168810000000 1.0
C      1  0.4841600000000  0.5155660000000  0.4596570000000 1.0
C      1  0.4841600000000  0.4840820000000  0.5412090000000 1.0
C      1  0.5170570000000  0.5155660000000  0.5412090000000 1.0
C      1  0.5461890000000  0.5454050000000  0.4548520000000 1.0
C      1  0.4550280000000  0.5454050000000  0.5460130000000 1.0
C      1  0.5461890000000  0.4542440000000  0.5460130000000 1.0
C      1  0.5461890000000  0.4542440000000  0.4548520000000 1.0
C      1  0.4550280000000  0.4542440000000  0.5460130000000 1.0
C      1  0.4550280000000  0.5454050000000  0.4548520000000 1.0
C      1  0.4550280000000  0.4542440000000  0.4548520000000 1.0
C      1  0.5461890000000  0.5454050000000  0.5460130000000 1.0
END
