TITL C-862507-1800-1248 0.00276778411560341 125000 -1158.27789369186 0 0 194 (C3) n - 1
REM
REM in /home/nfs/bkarasulu/CARBON/AIRSS/Generating-Clusters/TERSOFF/Higher-Symm/FIRE-HFTN
REM
REM
REM
REM
REM
REM ./C.cell (b20cbc046b6831c77cfcea5457e17084)
REM AIRSS Version 0.9.1 bugfix July 2018 build 013d7b7c2542+ Fri, 06 Jul 2018 19:26:36 +0100
REM compiler GCC version 9.2.1 20190827 (Red Hat 9.2.1-1)
REM options -cpp -mtune=generic -march=x86-64 -g -O0 -fpre-include=/usr/include/finclude/math-vector-fortran.h
REM seed 1146656949 1655033382 308354519 125214073 1306432863 2041202837 1516888929 -1350521793 -1672597862 -855958197 -1683865088 1183953349 -1193139060 309205227 -2068492909 -1343367741 215704625 -1839981095 -209230687 602051723 -2137883187 652746792 1112879513 886209615 1631273401 1426502963 1765686691 -850976563 -1745930508 813965638 1450479263 1348507462 1280094325
REM
CELL 1.54180   50.00000   50.00000   50.00000   90.00000   90.00000   90.00000
LATT -1
SFAC C  
C      1  0.3930530000000  0.5317600000000  0.4735280000000 1.0
C      1  0.3930530000000  0.4613230000000  0.4858110000000 1.0
C      1  0.3930530000000  0.5071780000000  0.5406690000000 1.0
C      1  0.6078730000000  0.5317970000000  0.4735650000000 1.0
C      1  0.6078730000000  0.4613370000000  0.4857600000000 1.0
C      1  0.6078730000000  0.5071280000000  0.5406830000000 1.0
C      1  0.5613950000000  0.6075480000000  0.4917880000000 1.0
C      1  0.5613950000000  0.4392430000000  0.4110470000000 1.0
C      1  0.5613950000000  0.4534720000000  0.5971740000000 1.0
C      1  0.4395660000000  0.6075140000000  0.4916400000000 1.0
C      1  0.4395660000000  0.4391310000000  0.4111500000000 1.0
C      1  0.4395660000000  0.4536170000000  0.5972190000000 1.0
C      1  0.4738350000000  0.5211320000000  0.4666720000000 1.0
C      1  0.4738350000000  0.4607000000000  0.4984420000000 1.0
C      1  0.4738350000000  0.5184300000000  0.5348940000000 1.0
C      1  0.5270810000000  0.5210820000000  0.4666790000000 1.0
C      1  0.5270810000000  0.4607300000000  0.4984830000000 1.0
C      1  0.5270810000000  0.5184490000000  0.5348470000000 1.0
C      1  0.5138380000000  0.6177610000000  0.4435240000000 1.0
C      1  0.5138380000000  0.3923380000000  0.4263330000000 1.0
C      1  0.5138380000000  0.4901620000000  0.6301510000000 1.0
C      1  0.4834710000000  0.6187680000000  0.4422940000000 1.0
C      1  0.4834710000000  0.3907700000000  0.4260760000000 1.0
C      1  0.4834720000000  0.4907240000000  0.6316380000000 1.0
C      1  0.4597100000000  0.4090000000000  0.4775390000000 1.0
C      1  0.4597100000000  0.5261770000000  0.5901180000000 1.0
C      1  0.4597100000000  0.5650850000000  0.4323510000000 1.0
C      1  0.5412200000000  0.4090550000000  0.4774010000000 1.0
C      1  0.5412200000000  0.5260300000000  0.5901400000000 1.0
C      1  0.5412200000000  0.5651770000000  0.4324670000000 1.0
C      1  0.5644330000000  0.5530950000000  0.5228010000000 1.0
C      1  0.5644330000000  0.4933270000000  0.4426970000000 1.0
C      1  0.5644340000000  0.4538390000000  0.5345100000000 1.0
C      1  0.4365140000000  0.5530840000000  0.5227010000000 1.0
C      1  0.4365140000000  0.4932460000000  0.4427570000000 1.0
C      1  0.4365140000000  0.4539320000000  0.5345510000000 1.0
C      1  0.5411360000000  0.4100050000000  0.5384610000000 1.0
C      1  0.5411360000000  0.5784340000000  0.5587870000000 1.0
C      1  0.5411360000000  0.5118220000000  0.4027600000000 1.0
C      1  0.4597910000000  0.4100660000000  0.5385650000000 1.0
C      1  0.4597910000000  0.5784930000000  0.5586830000000 1.0
C      1  0.4597910000000  0.5117020000000  0.4027610000000 1.0
C      1  0.5913120000000  0.5761950000000  0.5481980000000 1.0
C      1  0.5913120000000  0.5037720000000  0.4099940000000 1.0
C      1  0.5913120000000  0.4202950000000  0.5418160000000 1.0
C      1  0.4096140000000  0.5762440000000  0.5480910000000 1.0
C      1  0.4096140000000  0.5036540000000  0.4100050000000 1.0
C      1  0.4096140000000  0.4203630000000  0.5419130000000 1.0
C      1  0.4153070000000  0.4971470000000  0.5882790000000 1.0
C      1  0.4153070000000  0.5780060000000  0.4584110000000 1.0
C      1  0.4153070000000  0.4251080000000  0.4533180000000 1.0
C      1  0.5856240000000  0.4970230000000  0.5882800000000 1.0
C      1  0.5856240000000  0.5780700000000  0.4585180000000 1.0
C      1  0.5856240000000  0.4251690000000  0.4532100000000 1.0
C      1  0.5150900000000  0.5019500000000  0.4468720000000 1.0
C      1  0.5150900000000  0.4531430000000  0.5249550000000 1.0
C      1  0.5150900000000  0.5451680000000  0.5281820000000 1.0
C      1  0.4858410000000  0.5019620000000  0.4468790000000 1.0
C      1  0.4858410000000  0.4531430000000  0.5249400000000 1.0
C      1  0.4858410000000  0.5451560000000  0.5281890000000 1.0
C      1  0.3855440000000  0.5343210000000  0.5269900000000 1.0
C      1  0.3855440000000  0.5063410000000  0.4568620000000 1.0
C      1  0.3855440000000  0.4595990000000  0.5161570000000 1.0
C      1  0.6153770000000  0.5342920000000  0.5270370000000 1.0
C      1  0.6153770000000  0.5063970000000  0.4568640000000 1.0
C      1  0.6153770000000  0.4595730000000  0.5161070000000 1.0
C      1  0.3858670000000  0.5077130000000  0.4271360000000 1.0
C      1  0.3858670000000  0.4331690000000  0.5298320000000 1.0
C      1  0.3858670000000  0.5593790000000  0.5430410000000 1.0
C      1  0.6150560000000  0.5078120000000  0.4271370000000 1.0
C      1  0.6150570000000  0.4331220000000  0.5297460000000 1.0
C      1  0.6150560000000  0.5593290000000  0.5431250000000 1.0
C      1  0.5308810000000  0.4397010000000  0.4101520000000 1.0
C      1  0.5308820000000  0.4524670000000  0.5972240000000 1.0
C      1  0.5308810000000  0.6080940000000  0.4926320000000 1.0
C      1  0.4701270000000  0.4396760000000  0.4102520000000 1.0
C      1  0.4701270000000  0.4525660000000  0.5971950000000 1.0
C      1  0.4701270000000  0.6080190000000  0.4925610000000 1.0
C      1  0.5246390000000  0.5338460000000  0.3930780000000 1.0
C      1  0.5246390000000  0.3906080000000  0.5242290000000 1.0
C      1  0.5246390000000  0.5758070000000  0.5827010000000 1.0
C      1  0.4762760000000  0.5337240000000  0.3930530000000 1.0
C      1  0.4762760000000  0.3906480000000  0.5243470000000 1.0
C      1  0.4762760000000  0.5758900000000  0.5826080000000 1.0
C      1  0.4536520000000  0.4810170000000  0.4958020000000 1.0
C      1  0.4536520000000  0.5059840000000  0.5186190000000 1.0
C      1  0.4536520000000  0.5132610000000  0.4855880000000 1.0
C      1  0.5472830000000  0.4810140000000  0.4958570000000 1.0
C      1  0.5472830000000  0.5060330000000  0.5185940000000 1.0
C      1  0.5472830000000  0.5132150000000  0.4855580000000 1.0
C      1  0.4862010000000  0.6531370000000  0.5135350000000 1.0
C      1  0.4862010000000  0.4352810000000  0.3606910000000 1.0
C      1  0.4862020000000  0.4118430000000  0.6257820000000 1.0
C      1  0.5145190000000  0.6531380000000  0.5134330000000 1.0
C      1  0.5145190000000  0.4351930000000  0.3607420000000 1.0
C      1  0.5145190000000  0.4119310000000  0.6258330000000 1.0
C      1  0.5157690000000  0.4391120000000  0.5737740000000 1.0
C      1  0.5157680000000  0.5944620000000  0.5159240000000 1.0
C      1  0.5157680000000  0.4666880000000  0.4103110000000 1.0
C      1  0.4852070000000  0.4392280000000  0.5737590000000 1.0
C      1  0.4852070000000  0.5943920000000  0.5158300000000 1.0
C      1  0.4852070000000  0.4666420000000  0.4104190000000 1.0
C      1  0.4329450000000  0.4107870000000  0.5268920000000 1.0
C      1  0.4329450000000  0.5680240000000  0.5638950000000 1.0
C      1  0.4329440000000  0.5214510000000  0.4092220000000 1.0
C      1  0.5679810000000  0.4107260000000  0.5267840000000 1.0
C      1  0.5679810000000  0.5679620000000  0.5640010000000 1.0
C      1  0.5679810000000  0.5215740000000  0.4092220000000 1.0
C      1  0.4863070000000  0.5029470000000  0.5556350000000 1.0
C      1  0.4863070000000  0.5468360000000  0.4697100000000 1.0
C      1  0.4863070000000  0.4504780000000  0.4746630000000 1.0
C      1  0.5146360000000  0.5029640000000  0.5555720000000 1.0
C      1  0.5146360000000  0.5467730000000  0.4697270000000 1.0
C      1  0.5146360000000  0.4505240000000  0.4747090000000 1.0
C      1  0.4735580000000  0.5013410000000  0.5811660000000 1.0
C      1  0.4735580000000  0.5697500000000  0.4583350000000 1.0
C      1  0.4735580000000  0.4291710000000  0.4605070000000 1.0
C      1  0.5274400000000  0.5012120000000  0.5810060000000 1.0
C      1  0.5274400000000  0.5696760000000  0.4585270000000 1.0
C      1  0.5274400000000  0.4293740000000  0.4604750000000 1.0
C      1  0.5654140000000  0.5419070000000  0.4313200000000 1.0
C      1  0.5654150000000  0.4196960000000  0.4981270000000 1.0
C      1  0.5654150000000  0.5386590000000  0.5705610000000 1.0
C      1  0.4355200000000  0.5418040000000  0.4312870000000 1.0
C      1  0.4355200000000  0.4197190000000  0.4982330000000 1.0
C      1  0.4355200000000  0.5387380000000  0.5704880000000 1.0
C      1  0.5838120000000  0.4728330000000  0.4392710000000 1.0
C      1  0.5838130000000  0.4611200000000  0.5539710000000 1.0
C      1  0.5838120000000  0.5663090000000  0.5067650000000 1.0
C      1  0.4171320000000  0.4727560000000  0.4393220000000 1.0
C      1  0.4171320000000  0.4612010000000  0.5540130000000 1.0
C      1  0.4171320000000  0.5663040000000  0.5066740000000 1.0
C      1  0.3945850000000  0.4335320000000  0.4728750000000 1.0
C      1  0.3945850000000  0.5098710000000  0.5712050000000 1.0
C      1  0.3945850000000  0.5568580000000  0.4559290000000 1.0
C      1  0.6063390000000  0.4335630000000  0.4727870000000 1.0
C      1  0.6063390000000  0.5097800000000  0.5712230000000 1.0
C      1  0.6063390000000  0.5569190000000  0.4559980000000 1.0
C      1  0.4837580000000  0.5495830000000  0.5947280000000 1.0
C      1  0.4837580000000  0.5573730000000  0.4097760000000 1.0
C      1  0.4837590000000  0.3933050000000  0.4955050000000 1.0
C      1  0.5171010000000  0.5494790000000  0.5947820000000 1.0
C      1  0.5171000000000  0.5574730000000  0.4098390000000 1.0
C      1  0.5171010000000  0.3933100000000  0.4953870000000 1.0
C      1  0.5184720000000  0.4802570000000  0.6005980000000 1.0
C      1  0.5184710000000  0.5971200000000  0.4668790000000 1.0
C      1  0.5184710000000  0.4228850000000  0.4325320000000 1.0
C      1  0.4824640000000  0.4804460000000  0.6010700000000 1.0
C      1  0.4824640000000  0.5974350000000  0.4664790000000 1.0
C      1  0.4824640000000  0.4223810000000  0.4324590000000 1.0
C      1  0.4343100000000  0.4031960000000  0.4596560000000 1.0
C      1  0.4343100000000  0.5135910000000  0.6040860000000 1.0
C      1  0.4343090000000  0.5834740000000  0.4362660000000 1.0
C      1  0.5666090000000  0.4032590000000  0.4595120000000 1.0
C      1  0.5666090000000  0.5134360000000  0.6041040000000 1.0
C      1  0.5666090000000  0.5835670000000  0.4363920000000 1.0
C      1  0.4726410000000  0.4918020000000  0.4213900000000 1.0
C      1  0.4726410000000  0.4361490000000  0.5464840000000 1.0
C      1  0.4726410000000  0.5723100000000  0.5321340000000 1.0
C      1  0.5283000000000  0.4918590000000  0.4213420000000 1.0
C      1  0.5283010000000  0.4360790000000  0.5464590000000 1.0
C      1  0.5283010000000  0.5723230000000  0.5322070000000 1.0
C      1  0.5299790000000  0.6383850000000  0.4944430000000 1.0
C      1  0.5299790000000  0.4261230000000  0.3830130000000 1.0
C      1  0.5299790000000  0.4357530000000  0.6225520000000 1.0
C      1  0.4706080000000  0.6383500000000  0.4946820000000 1.0
C      1  0.4706080000000  0.4263480000000  0.3829240000000 1.0
C      1  0.4706080000000  0.4355640000000  0.6224020000000 1.0
C      1  0.4306980000000  0.5199130000000  0.4511220000000 1.0
C      1  0.4306980000000  0.4478430000000  0.5072740000000 1.0
C      1  0.4306980000000  0.5325060000000  0.5416120000000 1.0
C      1  0.5702460000000  0.5199780000000  0.4511200000000 1.0
C      1  0.5702460000000  0.4478080000000  0.5072180000000 1.0
C      1  0.5702460000000  0.5324760000000  0.5416700000000 1.0
C      1  0.4234070000000  0.4454630000000  0.4340840000000 1.0
C      1  0.4234070000000  0.4703120000000  0.5802680000000 1.0
C      1  0.4234070000000  0.5844870000000  0.4856560000000 1.0
C      1  0.5775350000000  0.4455470000000  0.4339990000000 1.0
C      1  0.5775350000000  0.4701970000000  0.5802380000000 1.0
C      1  0.5775350000000  0.5845180000000  0.4857710000000 1.0
C      1  0.3758090000000  0.4814520000000  0.4706030000000 1.0
C      1  0.3758090000000  0.4839430000000  0.5308410000000 1.0
C      1  0.3758090000000  0.5348660000000  0.4985640000000 1.0
C      1  0.6251130000000  0.4814880000000  0.4705730000000 1.0
C      1  0.6251130000000  0.4839000000000  0.5308250000000 1.0
C      1  0.6251130000000  0.5348730000000  0.4986100000000 1.0
C      1  0.4228050000000  0.5241210000000  0.4805190000000 1.0
C      1  0.4228050000000  0.4711970000000  0.4889310000000 1.0
C      1  0.4228050000000  0.5049440000000  0.5305590000000 1.0
C      1  0.5781220000000  0.5241310000000  0.4805270000000 1.0
C      1  0.5781220000000  0.4712000000000  0.4889180000000 1.0
C      1  0.5781220000000  0.5049320000000  0.5305620000000 1.0
C      1  0.5844470000000  0.5000870000000  0.5000030000000 1.0
C      1  0.4164920000000  0.5000870000000  0.5000030000000 1.0
END
