TITL C-862504-1170-122 0.00296927794604152 125000 -1171.45695455649 0 0 195 (C2) n - 1
REM
REM in /home/nfs/bkarasulu/CARBON/AIRSS/Generating-Clusters/TERSOFF/Higher-Symm/FIRE-HFTN
REM
REM
REM
REM
REM
REM ./C.cell (b20cbc046b6831c77cfcea5457e17084)
REM AIRSS Version 0.9.1 bugfix July 2018 build 013d7b7c2542+ Fri, 06 Jul 2018 19:26:36 +0100
REM compiler GCC version 9.2.1 20190827 (Red Hat 9.2.1-1)
REM options -cpp -mtune=generic -march=x86-64 -g -O0 -fpre-include=/usr/include/finclude/math-vector-fortran.h
REM seed -1996956095 1897812072 -1150321823 -288596567 840014663 189905570 -809909833 -1097193414 1231621288 -1173870740 1983439973 519832026 2002549647 1072820144 1094685685 -264707886 501870679 -219196496 -1406016161 978770542 1800122139 -1666323454 -1631481814 -2018988062 -1554527998 1315782091 85621300 1322404158 1063253885 821303384 -1639698043 1665752636 -514639552
REM
CELL 1.54180   50.00000   50.00000   50.00000   90.00000   90.00000   90.00000
LATT -1
SFAC C  
C      1  0.4087940000000  0.4949550000000  0.4849450000000 1.0
C      1  0.5912720000000  0.4949570000000  0.5151480000000 1.0
C      1  0.4089760000000  0.4946800000000  0.5145270000000 1.0
C      1  0.5910900000000  0.4946820000000  0.4855660000000 1.0
C      1  0.5561410000000  0.5907700000000  0.4854220000000 1.0
C      1  0.4439240000000  0.5907690000000  0.5146710000000 1.0
C      1  0.5561230000000  0.5907930000000  0.5146600000000 1.0
C      1  0.4439410000000  0.5907920000000  0.4854330000000 1.0
C      1  0.5737550000000  0.5162670000000  0.4350800000000 1.0
C      1  0.4263110000000  0.5162650000000  0.5650130000000 1.0
C      1  0.5744840000000  0.5163650000000  0.5652250000000 1.0
C      1  0.4255830000000  0.5163640000000  0.4348670000000 1.0
C      1  0.4010170000000  0.5762280000000  0.4851550000000 1.0
C      1  0.5990480000000  0.5762290000000  0.5149370000000 1.0
C      1  0.4010270000000  0.5761280000000  0.5149740000000 1.0
C      1  0.5990380000000  0.5761300000000  0.4851190000000 1.0
C      1  0.5924730000000  0.4226810000000  0.4733420000000 1.0
C      1  0.4075950000000  0.4226790000000  0.5267500000000 1.0
C      1  0.5920800000000  0.4243900000000  0.5290360000000 1.0
C      1  0.4079880000000  0.4243880000000  0.4710560000000 1.0
C      1  0.5351430000000  0.5396170000000  0.3905110000000 1.0
C      1  0.4649230000000  0.5396150000000  0.6095810000000 1.0
C      1  0.5352500000000  0.5395870000000  0.6093950000000 1.0
C      1  0.4648160000000  0.5395870000000  0.3906970000000 1.0
C      1  0.5142490000000  0.5054380000000  0.4293720000000 1.0
C      1  0.4858170000000  0.5054370000000  0.5707210000000 1.0
C      1  0.5152790000000  0.5049540000000  0.5702530000000 1.0
C      1  0.4847870000000  0.5049540000000  0.4298400000000 1.0
C      1  0.6051550000000  0.5217680000000  0.5557540000000 1.0
C      1  0.3949110000000  0.5217660000000  0.4443390000000 1.0
C      1  0.6046090000000  0.5214160000000  0.4445720000000 1.0
C      1  0.3954570000000  0.5214140000000  0.5555210000000 1.0
C      1  0.4274670000000  0.5707390000000  0.4692270000000 1.0
C      1  0.5725990000000  0.5707400000000  0.5308660000000 1.0
C      1  0.4275190000000  0.5706150000000  0.5308570000000 1.0
C      1  0.5725470000000  0.5706160000000  0.4692360000000 1.0
C      1  0.4341320000000  0.5339870000000  0.3977270000000 1.0
C      1  0.5659340000000  0.5339880000000  0.6023650000000 1.0
C      1  0.4342830000000  0.5338100000000  0.6023190000000 1.0
C      1  0.5657830000000  0.5338120000000  0.3977730000000 1.0
C      1  0.3681860000000  0.5173530000000  0.5320730000000 1.0
C      1  0.6318800000000  0.5173560000000  0.4680200000000 1.0
C      1  0.3679260000000  0.5176740000000  0.4680840000000 1.0
C      1  0.6321400000000  0.5176760000000  0.5320080000000 1.0
C      1  0.5908490000000  0.5229660000000  0.5265240000000 1.0
C      1  0.4092170000000  0.5229640000000  0.4735690000000 1.0
C      1  0.5906320000000  0.5226150000000  0.4738390000000 1.0
C      1  0.4094340000000  0.5226130000000  0.5262530000000 1.0
C      1  0.5370570000000  0.5785110000000  0.5740540000000 1.0
C      1  0.4630080000000  0.5785110000000  0.4260390000000 1.0
C      1  0.5369410000000  0.5786490000000  0.4259030000000 1.0
C      1  0.4631240000000  0.5786480000000  0.5741900000000 1.0
C      1  0.5801730000000  0.4445830000000  0.4301230000000 1.0
C      1  0.4198940000000  0.4445810000000  0.5699690000000 1.0
C      1  0.5801270000000  0.4449620000000  0.5702740000000 1.0
C      1  0.4199410000000  0.4449610000000  0.4298180000000 1.0
C      1  0.5379960000000  0.5375350000000  0.5235310000000 1.0
C      1  0.4620690000000  0.5375350000000  0.4765620000000 1.0
C      1  0.5380740000000  0.5375870000000  0.4767260000000 1.0
C      1  0.4619910000000  0.5375870000000  0.5233670000000 1.0
C      1  0.4818370000000  0.5624110000000  0.4054740000000 1.0
C      1  0.5182280000000  0.5624110000000  0.5946190000000 1.0
C      1  0.4820770000000  0.5626820000000  0.5949180000000 1.0
C      1  0.5179890000000  0.5626830000000  0.4051750000000 1.0
C      1  0.4750260000000  0.4925880000000  0.4042010000000 1.0
C      1  0.5250400000000  0.4925880000000  0.5958920000000 1.0
C      1  0.4755700000000  0.4926130000000  0.5961430000000 1.0
C      1  0.5244960000000  0.4926140000000  0.4039500000000 1.0
C      1  0.6013780000000  0.4705480000000  0.4703190000000 1.0
C      1  0.3986890000000  0.4705470000000  0.5297740000000 1.0
C      1  0.6019160000000  0.4712780000000  0.5305690000000 1.0
C      1  0.3981510000000  0.4712770000000  0.4695230000000 1.0
C      1  0.4522720000000  0.4505780000000  0.4724190000000 1.0
C      1  0.5477960000000  0.4505780000000  0.5276730000000 1.0
C      1  0.4484540000000  0.4531710000000  0.5308840000000 1.0
C      1  0.5516130000000  0.4531720000000  0.4692080000000 1.0
C      1  0.5737850000000  0.5002190000000  0.5923850000000 1.0
C      1  0.4262810000000  0.5002180000000  0.4077080000000 1.0
C      1  0.5734360000000  0.5000820000000  0.4080520000000 1.0
C      1  0.4266310000000  0.5000810000000  0.5920410000000 1.0
C      1  0.5972780000000  0.4663330000000  0.4399930000000 1.0
C      1  0.4027890000000  0.4663310000000  0.5600990000000 1.0
C      1  0.5975240000000  0.4667650000000  0.5608180000000 1.0
C      1  0.4025430000000  0.4667640000000  0.4392740000000 1.0
C      1  0.5321740000000  0.4332360000000  0.5101680000000 1.0
C      1  0.4678940000000  0.4332360000000  0.4899240000000 1.0
C      1  0.5301330000000  0.4386180000000  0.4833250000000 1.0
C      1  0.4699340000000  0.4386180000000  0.5167670000000 1.0
C      1  0.5678610000000  0.5413570000000  0.4830930000000 1.0
C      1  0.4322050000000  0.5413560000000  0.5170000000000 1.0
C      1  0.5678660000000  0.5414770000000  0.5172230000000 1.0
C      1  0.4321990000000  0.5414760000000  0.4828700000000 1.0
C      1  0.4865490000000  0.4502120000000  0.4360750000000 1.0
C      1  0.5135180000000  0.4502110000000  0.5640170000000 1.0
C      1  0.4849030000000  0.4505070000000  0.5653170000000 1.0
C      1  0.5151640000000  0.4505080000000  0.4347750000000 1.0
C      1  0.4862290000000  0.5836510000000  0.4699050000000 1.0
C      1  0.5138360000000  0.5836510000000  0.5301880000000 1.0
C      1  0.4862250000000  0.5836610000000  0.5301750000000 1.0
C      1  0.5138400000000  0.5836610000000  0.4699180000000 1.0
C      1  0.4734560000000  0.5317180000000  0.4328580000000 1.0
C      1  0.5266100000000  0.5317180000000  0.5672350000000 1.0
C      1  0.4742540000000  0.5320830000000  0.5672800000000 1.0
C      1  0.5258120000000  0.5320840000000  0.4328130000000 1.0
C      1  0.3945580000000  0.4461090000000  0.4845490000000 1.0
C      1  0.6055090000000  0.4461100000000  0.5155430000000 1.0
C      1  0.3945580000000  0.4455460000000  0.5141690000000 1.0
C      1  0.6055090000000  0.4455480000000  0.4859230000000 1.0
C      1  0.4778030000000  0.5140570000000  0.3843320000000 1.0
C      1  0.5222640000000  0.5140570000000  0.6157610000000 1.0
C      1  0.4779660000000  0.5141280000000  0.6160770000000 1.0
C      1  0.5221000000000  0.5141290000000  0.3840150000000 1.0
C      1  0.5550370000000  0.4496400000000  0.5850230000000 1.0
C      1  0.4450300000000  0.4496400000000  0.4150690000000 1.0
C      1  0.5553170000000  0.4492240000000  0.4150350000000 1.0
C      1  0.4447510000000  0.4492230000000  0.5850580000000 1.0
C      1  0.4000490000000  0.4873900000000  0.5804160000000 1.0
C      1  0.6000170000000  0.4873920000000  0.4196760000000 1.0
C      1  0.3996840000000  0.4875310000000  0.4187870000000 1.0
C      1  0.6003830000000  0.4875320000000  0.5813050000000 1.0
C      1  0.5282140000000  0.4651710000000  0.5445810000000 1.0
C      1  0.4718530000000  0.4651710000000  0.4555110000000 1.0
C      1  0.5309880000000  0.4668100000000  0.4522200000000 1.0
C      1  0.4690790000000  0.4668090000000  0.5478730000000 1.0
C      1  0.4364600000000  0.5661070000000  0.4358620000000 1.0
C      1  0.5636060000000  0.5661080000000  0.5642310000000 1.0
C      1  0.4366760000000  0.5660510000000  0.5642890000000 1.0
C      1  0.5633890000000  0.5660530000000  0.4358040000000 1.0
C      1  0.4759150000000  0.5109990000000  0.4783170000000 1.0
C      1  0.5241520000000  0.5109990000000  0.5217760000000 1.0
C      1  0.4758950000000  0.5111080000000  0.5221940000000 1.0
C      1  0.5241710000000  0.5111080000000  0.4778990000000 1.0
C      1  0.4725190000000  0.4048860000000  0.4367140000000 1.0
C      1  0.5275480000000  0.4048860000000  0.5633780000000 1.0
C      1  0.4721170000000  0.4037790000000  0.5636320000000 1.0
C      1  0.5279510000000  0.4037800000000  0.4364600000000 1.0
C      1  0.5133730000000  0.4159580000000  0.5218500000000 1.0
C      1  0.4866950000000  0.4159570000000  0.4782420000000 1.0
C      1  0.5106830000000  0.4252700000000  0.4680450000000 1.0
C      1  0.4893850000000  0.4252700000000  0.5320470000000 1.0
C      1  0.5512890000000  0.4792290000000  0.5948560000000 1.0
C      1  0.4487780000000  0.4792290000000  0.4052360000000 1.0
C      1  0.5510580000000  0.4791660000000  0.4054490000000 1.0
C      1  0.4490090000000  0.4791640000000  0.5946440000000 1.0
C      1  0.5252190000000  0.5623710000000  0.4859870000000 1.0
C      1  0.4748460000000  0.5623700000000  0.5141060000000 1.0
C      1  0.5252190000000  0.5623740000000  0.5141680000000 1.0
C      1  0.4748460000000  0.5623730000000  0.4859250000000 1.0
C      1  0.5543440000000  0.5371450000000  0.5621270000000 1.0
C      1  0.4457220000000  0.5371440000000  0.4379660000000 1.0
C      1  0.5537320000000  0.5372430000000  0.4378510000000 1.0
C      1  0.4463340000000  0.5372410000000  0.5622420000000 1.0
C      1  0.3929580000000  0.5443480000000  0.5751450000000 1.0
C      1  0.6071070000000  0.5443500000000  0.4249480000000 1.0
C      1  0.3926180000000  0.5447190000000  0.4247110000000 1.0
C      1  0.6074480000000  0.5447200000000  0.5753820000000 1.0
C      1  0.5303990000000  0.4303310000000  0.4203760000000 1.0
C      1  0.4696690000000  0.4303300000000  0.5797160000000 1.0
C      1  0.5297120000000  0.4315940000000  0.5789700000000 1.0
C      1  0.4703550000000  0.4315940000000  0.4211220000000 1.0
C      1  0.4518410000000  0.4018760000000  0.4595850000000 1.0
C      1  0.5482270000000  0.4018760000000  0.5405070000000 1.0
C      1  0.4544400000000  0.4026550000000  0.5376150000000 1.0
C      1  0.5456280000000  0.4026560000000  0.4624770000000 1.0
C      1  0.3593920000000  0.4944060000000  0.4850320000000 1.0
C      1  0.6406740000000  0.4944080000000  0.5150610000000 1.0
C      1  0.3595370000000  0.4942440000000  0.5149500000000 1.0
C      1  0.6405290000000  0.4942460000000  0.4851430000000 1.0
C      1  0.4738230000000  0.5946550000000  0.4467710000000 1.0
C      1  0.5262420000000  0.5946550000000  0.5533220000000 1.0
C      1  0.4738340000000  0.5947260000000  0.5533160000000 1.0
C      1  0.5262310000000  0.5947260000000  0.4467770000000 1.0
C      1  0.5824760000000  0.5551610000000  0.4130650000000 1.0
C      1  0.4175900000000  0.5551590000000  0.5870280000000 1.0
C      1  0.5826740000000  0.5554100000000  0.5871320000000 1.0
C      1  0.4173910000000  0.5554090000000  0.4129610000000 1.0
C      1  0.5443000000000  0.3840220000000  0.5160350000000 1.0
C      1  0.4557680000000  0.3840220000000  0.4840570000000 1.0
C      1  0.5323840000000  0.3926950000000  0.4889740000000 1.0
C      1  0.4676840000000  0.3926950000000  0.5111180000000 1.0
C      1  0.5651830000000  0.4254520000000  0.4643420000000 1.0
C      1  0.4348840000000  0.4254510000000  0.5357500000000 1.0
C      1  0.5642260000000  0.4260610000000  0.5363430000000 1.0
C      1  0.4358420000000  0.4260600000000  0.4637490000000 1.0
C      1  0.5247780000000  0.4943000000000  0.4537380000000 1.0
C      1  0.4752880000000  0.4942990000000  0.5463540000000 1.0
C      1  0.5250870000000  0.4934960000000  0.5452240000000 1.0
C      1  0.4749790000000  0.4934960000000  0.4548690000000 1.0
C      1  0.3838710000000  0.5379030000000  0.4856410000000 1.0
C      1  0.6161950000000  0.5379050000000  0.5144510000000 1.0
C      1  0.3840070000000  0.5377450000000  0.5145440000000 1.0
C      1  0.6160590000000  0.5377470000000  0.4855490000000 1.0
C      1  0.5002210000000  0.3902500000000  0.5630250000000 1.0
C      1  0.4998470000000  0.3902510000000  0.4370670000000 1.0
C      1  0.5000330000000  0.5069980000000  0.5000460000000 1.0
END
