TITL C-862127-1500-956 -0.000604820360696283 125000 -341.426565682504 0 0 63 (C3) n - 1
REM
REM in /home/nfs/bkarasulu/CARBON/AIRSS/Generating-Clusters/TERSOFF/Higher-Symm/FIRE-HFTN
REM
REM
REM
REM
REM
REM ./C.cell (b20cbc046b6831c77cfcea5457e17084)
REM AIRSS Version 0.9.1 bugfix July 2018 build 013d7b7c2542+ Fri, 06 Jul 2018 19:26:36 +0100
REM compiler GCC version 9.2.1 20190827 (Red Hat 9.2.1-1)
REM options -cpp -mtune=generic -march=x86-64 -g -O0 -fpre-include=/usr/include/finclude/math-vector-fortran.h
REM seed 1690369942 -1564391516 2092824283 -118608014 667286689 34884523 -1337691272 513681841 -94745986 -1335015949 486186446 779892087 958085490 43800453 1286571706 2006192324 1772353055 2059078875 610272156 -1870870523 568759459 -964183237 -1068626213 336817628 -1304131157 388008007 -1179101709 -634182305 -732266978 -756287123 2002156955 968748360 674219066
REM
CELL 1.54180   50.00000   50.00000   50.00000   90.00000   90.00000   90.00000
LATT -1
SFAC C  
C      1  0.4766910000000  0.5547770000000  0.5416830000000 1.0
C      1  0.5477540000000  0.5547760000000  0.4993440000000 1.0
C      1  0.4755550000000  0.5547760000000  0.4589720000000 1.0
C      1  0.4802510000000  0.5147960000000  0.5083480000000 1.0
C      1  0.5171040000000  0.5147960000000  0.5129290000000 1.0
C      1  0.5026450000000  0.5147960000000  0.4787230000000 1.0
C      1  0.5208900000000  0.5479900000000  0.5152990000000 1.0
C      1  0.5028050000000  0.5479900000000  0.4742590000000 1.0
C      1  0.4763060000000  0.5479900000000  0.5104410000000 1.0
C      1  0.4652170000000  0.4662800000000  0.4923450000000 1.0
C      1  0.5107620000000  0.4662800000000  0.5339510000000 1.0
C      1  0.5240210000000  0.4662800000000  0.4737040000000 1.0
C      1  0.5196920000000  0.4456840000000  0.4374190000000 1.0
C      1  0.4359570000000  0.4456850000000  0.5142380000000 1.0
C      1  0.5443510000000  0.4456850000000  0.5483440000000 1.0
C      1  0.4778810000000  0.5587760000000  0.4293090000000 1.0
C      1  0.4498390000000  0.5587770000000  0.5545010000000 1.0
C      1  0.5722800000000  0.5587770000000  0.5161900000000 1.0
C      1  0.5107670000000  0.4664910000000  0.4179240000000 1.0
C      1  0.4235370000000  0.4664910000000  0.5317130000000 1.0
C      1  0.5656960000000  0.4664920000000  0.5503630000000 1.0
C      1  0.4634550000000  0.4609830000000  0.5569880000000 1.0
C      1  0.5676260000000  0.4609830000000  0.5031550000000 1.0
C      1  0.4689200000000  0.4609830000000  0.4398570000000 1.0
C      1  0.5510130000000  0.5156700000000  0.4513680000000 1.0
C      1  0.4323770000000  0.5156710000000  0.4801380000000 1.0
C      1  0.5166100000000  0.5156710000000  0.5684940000000 1.0
C      1  0.4490210000000  0.5049270000000  0.4593290000000 1.0
C      1  0.4902670000000  0.5049280000000  0.5644840000000 1.0
C      1  0.5607110000000  0.5049270000000  0.4761870000000 1.0
C      1  0.5580320000000  0.4896330000000  0.5344130000000 1.0
C      1  0.5007860000000  0.4896320000000  0.4325370000000 1.0
C      1  0.4411820000000  0.4896330000000  0.5330510000000 1.0
C      1  0.4293830000000  0.5381580000000  0.5521480000000 1.0
C      1  0.5804700000000  0.5381580000000  0.5350820000000 1.0
C      1  0.4901470000000  0.5381570000000  0.4127690000000 1.0
C      1  0.4663240000000  0.4864220000000  0.5146510000000 1.0
C      1  0.5295260000000  0.4864220000000  0.5218390000000 1.0
C      1  0.5041500000000  0.4864220000000  0.4635110000000 1.0
C      1  0.5484500000000  0.5211160000000  0.4985550000000 1.0
C      1  0.4745240000000  0.5211160000000  0.4587630000000 1.0
C      1  0.4770260000000  0.5211160000000  0.5426810000000 1.0
C      1  0.4662340000000  0.5637760000000  0.4875400000000 1.0
C      1  0.5060930000000  0.5637760000000  0.5354710000000 1.0
C      1  0.5276730000000  0.5637760000000  0.4769870000000 1.0
C      1  0.4883570000000  0.4466780000000  0.4838940000000 1.0
C      1  0.4918730000000  0.4466780000000  0.5181360000000 1.0
C      1  0.5197700000000  0.4466780000000  0.4979710000000 1.0
C      1  0.5470770000000  0.4575120000000  0.4547950000000 1.0
C      1  0.4373130000000  0.4575130000000  0.4818330000000 1.0
C      1  0.5156110000000  0.4575130000000  0.5633720000000 1.0
C      1  0.4478150000000  0.4748860000000  0.4551570000000 1.0
C      1  0.4872570000000  0.4748870000000  0.5676150000000 1.0
C      1  0.5649280000000  0.4748860000000  0.4772280000000 1.0
C      1  0.5229900000000  0.5211160000000  0.4492590000000 1.0
C      1  0.4445620000000  0.5211170000000  0.5054610000000 1.0
C      1  0.5324480000000  0.5211170000000  0.5452800000000 1.0
C      1  0.4914580000000  0.4466420000000  0.4527420000000 1.0
C      1  0.4633440000000  0.4466430000000  0.5310280000000 1.0
C      1  0.5451980000000  0.4466430000000  0.5162320000000 1.0
C      1  0.5084180000000  0.5176840000000  0.4231980000000 1.0
C      1  0.4292780000000  0.5176840000000  0.5311110000000 1.0
C      1  0.5623040000000  0.5176840000000  0.5456910000000 1.0
END
