TITL C-862501-1041-631 -3.15048301043253e-05 125000 -789.059437731914 0 0 138 (C3) n - 1
REM
REM in /home/nfs/bkarasulu/CARBON/AIRSS/Generating-Clusters/TERSOFF/Higher-Symm/FIRE-HFTN
REM
REM
REM
REM
REM
REM ./C.cell (b20cbc046b6831c77cfcea5457e17084)
REM AIRSS Version 0.9.1 bugfix July 2018 build 013d7b7c2542+ Fri, 06 Jul 2018 19:26:36 +0100
REM compiler GCC version 9.2.1 20190827 (Red Hat 9.2.1-1)
REM options -cpp -mtune=generic -march=x86-64 -g -O0 -fpre-include=/usr/include/finclude/math-vector-fortran.h
REM seed 1355451857 -2008695332 -1395003551 -1670770984 -1622909462 1298419498 -1640578282 1501130811 8559270 -772874904 1588711400 2099950058 -440282136 444014205 -2104927496 -1640687556 -369762045 -30028793 1431803153 751796317 923086879 -1484581681 -1953755270 -2028622963 618993508 1885370466 -316905096 -268943282 936068568 -899979554 -510457160 -1783287717 -1388163203
REM
CELL 1.54180   50.00000   50.00000   50.00000   90.00000   90.00000   90.00000
LATT -1
SFAC C  
C      1  0.4718120000000  0.4760790000000  0.5416040000000 1.0
C      1  0.4718120000000  0.5479910000000  0.4999140000000 1.0
C      1  0.4718120000000  0.4759300000000  0.4584820000000 1.0
C      1  0.4721640000000  0.5232290000000  0.5420710000000 1.0
C      1  0.4721630000000  0.4519510000000  0.4990820000000 1.0
C      1  0.4721640000000  0.5248200000000  0.4588480000000 1.0
C      1  0.5479230000000  0.5188950000000  0.5846950000000 1.0
C      1  0.5479230000000  0.5639000000000  0.4412880000000 1.0
C      1  0.5479220000000  0.4172040000000  0.4740160000000 1.0
C      1  0.5482480000000  0.4825760000000  0.5848750000000 1.0
C      1  0.5482470000000  0.4352080000000  0.4424730000000 1.0
C      1  0.5482480000000  0.5822150000000  0.4726520000000 1.0
C      1  0.5838210000000  0.4817060000000  0.4469910000000 1.0
C      1  0.5838210000000  0.4632400000000  0.5423470000000 1.0
C      1  0.5838220000000  0.5550530000000  0.5106610000000 1.0
C      1  0.5832770000000  0.5179510000000  0.4471570000000 1.0
C      1  0.5832770000000  0.5367870000000  0.5419680000000 1.0
C      1  0.5832760000000  0.4452610000000  0.5108750000000 1.0
C      1  0.5205140000000  0.5159840000000  0.4291050000000 1.0
C      1  0.5205140000000  0.4306110000000  0.5216050000000 1.0
C      1  0.5205140000000  0.5534050000000  0.5492900000000 1.0
C      1  0.5170310000000  0.4883100000000  0.4277840000000 1.0
C      1  0.5170320000000  0.5683850000000  0.5259840000000 1.0
C      1  0.5170310000000  0.4433040000000  0.5462310000000 1.0
C      1  0.4197800000000  0.5280220000000  0.5344090000000 1.0
C      1  0.4197790000000  0.5157890000000  0.4585280000000 1.0
C      1  0.4197790000000  0.4561900000000  0.5070630000000 1.0
C      1  0.4195690000000  0.4718460000000  0.5345480000000 1.0
C      1  0.4195680000000  0.4841580000000  0.4583440000000 1.0
C      1  0.4195690000000  0.5439970000000  0.5071090000000 1.0
C      1  0.5650150000000  0.5439540000000  0.5649330000000 1.0
C      1  0.5650150000000  0.5342560000000  0.4294680000000 1.0
C      1  0.5650150000000  0.4217890000000  0.5055990000000 1.0
C      1  0.5652220000000  0.4569270000000  0.5657200000000 1.0
C      1  0.5652220000000  0.4646210000000  0.4298380000000 1.0
C      1  0.5652230000000  0.5784510000000  0.5044420000000 1.0
C      1  0.4550330000000  0.5179410000000  0.4211660000000 1.0
C      1  0.4550330000000  0.4227570000000  0.5238800000000 1.0
C      1  0.4550340000000  0.5593020000000  0.5549540000000 1.0
C      1  0.4546280000000  0.4817840000000  0.4206790000000 1.0
C      1  0.4546290000000  0.5778030000000  0.5238850000000 1.0
C      1  0.4546290000000  0.4404140000000  0.5554360000000 1.0
C      1  0.5419870000000  0.5321990000000  0.4679090000000 1.0
C      1  0.5419870000000  0.4561090000000  0.4881600000000 1.0
C      1  0.5419870000000  0.5116920000000  0.5439310000000 1.0
C      1  0.5413210000000  0.4703650000000  0.4638610000000 1.0
C      1  0.5413210000000  0.5461140000000  0.4924050000000 1.0
C      1  0.5413210000000  0.4835190000000  0.5437340000000 1.0
C      1  0.5674370000000  0.5156450000000  0.5265100000000 1.0
C      1  0.5674370000000  0.5151360000000  0.4731950000000 1.0
C      1  0.5674370000000  0.4692180000000  0.5002940000000 1.0
C      1  0.5672390000000  0.4834020000000  0.5258870000000 1.0
C      1  0.5672390000000  0.4858800000000  0.4726820000000 1.0
C      1  0.5672400000000  0.5307170000000  0.5014310000000 1.0
C      1  0.5035810000000  0.4054590000000  0.5339520000000 1.0
C      1  0.5035820000000  0.5766730000000  0.5648990000000 1.0
C      1  0.5035820000000  0.5178670000000  0.4011490000000 1.0
C      1  0.5028360000000  0.5948980000000  0.5335690000000 1.0
C      1  0.5028360000000  0.4234790000000  0.5654000000000 1.0
C      1  0.5028360000000  0.4816230000000  0.4010310000000 1.0
C      1  0.4932900000000  0.4502530000000  0.4532470000000 1.0
C      1  0.4932900000000  0.4843850000000  0.5664590000000 1.0
C      1  0.4932900000000  0.5653630000000  0.4802940000000 1.0
C      1  0.4937390000000  0.5505260000000  0.4543160000000 1.0
C      1  0.4937390000000  0.5143010000000  0.5665990000000 1.0
C      1  0.4937390000000  0.4351740000000  0.4790860000000 1.0
C      1  0.5237820000000  0.3974230000000  0.4769550000000 1.0
C      1  0.5237830000000  0.5313310000000  0.6003570000000 1.0
C      1  0.5237830000000  0.5712460000000  0.4226880000000 1.0
C      1  0.5239620000000  0.6024740000000  0.4761060000000 1.0
C      1  0.5239620000000  0.4694550000000  0.6006920000000 1.0
C      1  0.5239610000000  0.4280700000000  0.4232020000000 1.0
C      1  0.4326270000000  0.5701270000000  0.5024160000000 1.0
C      1  0.4326270000000  0.4670290000000  0.4380610000000 1.0
C      1  0.4326270000000  0.4628450000000  0.5595240000000 1.0
C      1  0.4329140000000  0.4300950000000  0.5025070000000 1.0
C      1  0.4329150000000  0.5327820000000  0.4382070000000 1.0
C      1  0.4329150000000  0.5371240000000  0.5592870000000 1.0
C      1  0.4749750000000  0.3968180000000  0.4584080000000 1.0
C      1  0.4749770000000  0.5155720000000  0.6101540000000 1.0
C      1  0.4749760000000  0.5876110000000  0.4314380000000 1.0
C      1  0.4748040000000  0.6032310000000  0.4582440000000 1.0
C      1  0.4748040000000  0.4845470000000  0.6102780000000 1.0
C      1  0.4748030000000  0.4122230000000  0.4314780000000 1.0
C      1  0.4938710000000  0.5301500000000  0.5915310000000 1.0
C      1  0.4938710000000  0.5641930000000  0.4281240000000 1.0
C      1  0.4938700000000  0.4056570000000  0.4803450000000 1.0
C      1  0.4936510000000  0.4695550000000  0.5919610000000 1.0
C      1  0.4936510000000  0.4355820000000  0.4276540000000 1.0
C      1  0.4936510000000  0.5948630000000  0.4803860000000 1.0
C      1  0.4476610000000  0.4746290000000  0.6068760000000 1.0
C      1  0.4476610000000  0.6052430000000  0.4685350000000 1.0
C      1  0.4476600000000  0.4201290000000  0.4245900000000 1.0
C      1  0.4479040000000  0.5256750000000  0.6066940000000 1.0
C      1  0.4479030000000  0.3947630000000  0.4688880000000 1.0
C      1  0.4479040000000  0.5795630000000  0.4244180000000 1.0
C      1  0.4970360000000  0.5290120000000  0.5008610000000 1.0
C      1  0.4970360000000  0.4862400000000  0.4744440000000 1.0
C      1  0.4970360000000  0.4847480000000  0.5246950000000 1.0
C      1  0.4973430000000  0.4711340000000  0.5002550000000 1.0
C      1  0.4973430000000  0.5142120000000  0.4748730000000 1.0
C      1  0.4973430000000  0.5146540000000  0.5248710000000 1.0
C      1  0.4329200000000  0.4366670000000  0.4437350000000 1.0
C      1  0.4329200000000  0.4829400000000  0.5829800000000 1.0
C      1  0.4329200000000  0.5803940000000  0.4732850000000 1.0
C      1  0.4330910000000  0.5631480000000  0.4436090000000 1.0
C      1  0.4330910000000  0.5172630000000  0.5828830000000 1.0
C      1  0.4330910000000  0.4195910000000  0.4735080000000 1.0
C      1  0.5154430000000  0.4739870000000  0.4522270000000 1.0
C      1  0.5154430000000  0.4716340000000  0.5464140000000 1.0
C      1  0.5154440000000  0.5543790000000  0.5013580000000 1.0
C      1  0.5170560000000  0.5279700000000  0.4545010000000 1.0
C      1  0.5170560000000  0.5254180000000  0.5469730000000 1.0
C      1  0.5170560000000  0.4466110000000  0.4985260000000 1.0
C      1  0.5312940000000  0.3913820000000  0.5319250000000 1.0
C      1  0.5312950000000  0.5819570000000  0.5781030000000 1.0
C      1  0.5312940000000  0.5266610000000  0.3899710000000 1.0
C      1  0.5301610000000  0.6081130000000  0.5294570000000 1.0
C      1  0.5301600000000  0.4204330000000  0.5789000000000 1.0
C      1  0.5301600000000  0.4714540000000  0.3916430000000 1.0
C      1  0.4469320000000  0.4845080000000  0.4742060000000 1.0
C      1  0.4469320000000  0.4854080000000  0.5263140000000 1.0
C      1  0.4469320000000  0.5300850000000  0.4994810000000 1.0
C      1  0.4471580000000  0.5159560000000  0.4744920000000 1.0
C      1  0.4471580000000  0.5141130000000  0.5265730000000 1.0
C      1  0.4471580000000  0.4699310000000  0.4989360000000 1.0
C      1  0.4809130000000  0.5348490000000  0.4116760000000 1.0
C      1  0.4809130000000  0.4060850000000  0.5139820000000 1.0
C      1  0.4809140000000  0.5590660000000  0.5743420000000 1.0
C      1  0.4803480000000  0.4646830000000  0.4110500000000 1.0
C      1  0.4803490000000  0.5946910000000  0.5138900000000 1.0
C      1  0.4803490000000  0.4406260000000  0.5750600000000 1.0
C      1  0.5549540000000  0.5164790000000  0.4051770000000 1.0
C      1  0.5549540000000  0.4096410000000  0.5331400000000 1.0
C      1  0.5549550000000  0.5738790000000  0.5616830000000 1.0
C      1  0.5537290000000  0.4819270000000  0.4062630000000 1.0
C      1  0.5537300000000  0.5902140000000  0.5312170000000 1.0
C      1  0.5537300000000  0.4278580000000  0.5625190000000 1.0
END
