TITL C-862129-6180-596 0.00751869066402832 125000 -676.829344030305 0 0 121 (C1) n - 1
REM
REM in /home/nfs/bkarasulu/CARBON/AIRSS/Generating-Clusters/TERSOFF/Higher-Symm/FIRE-HFTN
REM
REM
REM
REM
REM
REM ./C.cell (b20cbc046b6831c77cfcea5457e17084)
REM AIRSS Version 0.9.1 bugfix July 2018 build 013d7b7c2542+ Fri, 06 Jul 2018 19:26:36 +0100
REM compiler GCC version 9.2.1 20190827 (Red Hat 9.2.1-1)
REM options -cpp -mtune=generic -march=x86-64 -g -O0 -fpre-include=/usr/include/finclude/math-vector-fortran.h
REM seed -2009867814 36530718 691190293 1267215708 453123852 -172670227 1404890997 -1574330106 -325994445 1119821731 -44466961 -1198916096 -119251397 2128475119 360189134 779856938 1883155487 502036236 -816622166 1487604236 1155168796 354495162 1530827805 -1145110732 -762379072 1974282786 -22825616 1860190593 -1310902678 -263452624 -1526668536 -2054738189 310813930
REM
CELL 1.54180   50.00000   50.00000   50.00000   90.00000   90.00000   90.00000
LATT -1
SFAC C  
C      1  0.4772910000000  0.4386230000000  0.5366100000000 1.0
C      1  0.4823920000000  0.4487110000000  0.4583270000000 1.0
C      1  0.4794280000000  0.5281340000000  0.4342490000000 1.0
C      1  0.4782360000000  0.5715130000000  0.5057760000000 1.0
C      1  0.4833110000000  0.5153530000000  0.5629540000000 1.0
C      1  0.5168500000000  0.3937600000000  0.4991700000000 1.0
C      1  0.5250760000000  0.4695980000000  0.4047560000000 1.0
C      1  0.5183680000000  0.5871870000000  0.4383410000000 1.0
C      1  0.5186910000000  0.5853780000000  0.5621240000000 1.0
C      1  0.5237790000000  0.4665960000000  0.5964490000000 1.0
C      1  0.4914310000000  0.5762670000000  0.4296230000000 1.0
C      1  0.4915610000000  0.5905310000000  0.5495000000000 1.0
C      1  0.4973040000000  0.4817580000000  0.5956100000000 1.0
C      1  0.4893830000000  0.3961400000000  0.5125450000000 1.0
C      1  0.4984710000000  0.4579500000000  0.4129590000000 1.0
C      1  0.4304380000000  0.4446530000000  0.4584790000000 1.0
C      1  0.4284770000000  0.5196840000000  0.4337770000000 1.0
C      1  0.4274380000000  0.5694480000000  0.4996110000000 1.0
C      1  0.4316020000000  0.5204120000000  0.5655840000000 1.0
C      1  0.4272180000000  0.4457610000000  0.5422700000000 1.0
C      1  0.4737260000000  0.4747410000000  0.4205450000000 1.0
C      1  0.4696100000000  0.5710790000000  0.4504740000000 1.0
C      1  0.4702850000000  0.5685750000000  0.5514720000000 1.0
C      1  0.4725710000000  0.4734880000000  0.5790160000000 1.0
C      1  0.4674290000000  0.4125760000000  0.4984000000000 1.0
C      1  0.4642590000000  0.4449930000000  0.5801290000000 1.0
C      1  0.4651040000000  0.4068340000000  0.4695740000000 1.0
C      1  0.4645250000000  0.4968930000000  0.4026610000000 1.0
C      1  0.4620140000000  0.5936640000000  0.4683680000000 1.0
C      1  0.4679400000000  0.5563310000000  0.5782090000000 1.0
C      1  0.4020970000000  0.5131140000000  0.4779050000000 1.0
C      1  0.4021210000000  0.5249420000000  0.5056570000000 1.0
C      1  0.4023690000000  0.5024530000000  0.5256540000000 1.0
C      1  0.4016250000000  0.4766210000000  0.5099060000000 1.0
C      1  0.4022170000000  0.4830920000000  0.4803960000000 1.0
C      1  0.5671420000000  0.5431400000000  0.4840250000000 1.0
C      1  0.5652110000000  0.5258180000000  0.5338120000000 1.0
C      1  0.5785320000000  0.4713210000000  0.5389910000000 1.0
C      1  0.5676480000000  0.4559180000000  0.4869830000000 1.0
C      1  0.5793630000000  0.4983200000000  0.4544350000000 1.0
C      1  0.4988590000000  0.5488100000000  0.4200630000000 1.0
C      1  0.4983750000000  0.5906130000000  0.5203620000000 1.0
C      1  0.5062770000000  0.5069080000000  0.5818400000000 1.0
C      1  0.4963330000000  0.4138350000000  0.5357580000000 1.0
C      1  0.5059090000000  0.4434410000000  0.4383610000000 1.0
C      1  0.5550850000000  0.4259430000000  0.4515890000000 1.0
C      1  0.5559140000000  0.5230140000000  0.4182190000000 1.0
C      1  0.5524530000000  0.5871530000000  0.4969190000000 1.0
C      1  0.5530430000000  0.5290620000000  0.5803630000000 1.0
C      1  0.5544020000000  0.4304310000000  0.5525180000000 1.0
C      1  0.4913290000000  0.6074190000000  0.4728550000000 1.0
C      1  0.4994780000000  0.5569840000000  0.5863550000000 1.0
C      1  0.4930790000000  0.4300460000000  0.5837910000000 1.0
C      1  0.4961640000000  0.4002230000000  0.4632000000000 1.0
C      1  0.4926510000000  0.5074450000000  0.3897060000000 1.0
C      1  0.5279240000000  0.4987590000000  0.5341830000000 1.0
C      1  0.5163990000000  0.4601680000000  0.5209480000000 1.0
C      1  0.5293900000000  0.4716050000000  0.4786630000000 1.0
C      1  0.5237970000000  0.5195940000000  0.4541660000000 1.0
C      1  0.5232820000000  0.5497820000000  0.5016770000000 1.0
C      1  0.5178180000000  0.4308810000000  0.5214820000000 1.0
C      1  0.5298850000000  0.4594520000000  0.4495340000000 1.0
C      1  0.5230240000000  0.5435760000000  0.4381460000000 1.0
C      1  0.5217330000000  0.5709620000000  0.5209840000000 1.0
C      1  0.5286770000000  0.4960320000000  0.5639450000000 1.0
C      1  0.5629730000000  0.4572890000000  0.5605900000000 1.0
C      1  0.5492080000000  0.4336140000000  0.4796430000000 1.0
C      1  0.5624050000000  0.4970000000000  0.4298740000000 1.0
C      1  0.5516470000000  0.5666250000000  0.4756930000000 1.0
C      1  0.5484500000000  0.5406720000000  0.5536300000000 1.0
C      1  0.4526950000000  0.4367410000000  0.5536970000000 1.0
C      1  0.4569740000000  0.4318030000000  0.4556690000000 1.0
C      1  0.4542640000000  0.5193990000000  0.4196920000000 1.0
C      1  0.4527540000000  0.5833690000000  0.4948290000000 1.0
C      1  0.4585020000000  0.5282620000000  0.5753040000000 1.0
C      1  0.5794310000000  0.5295930000000  0.4603260000000 1.0
C      1  0.5752990000000  0.5454590000000  0.5133450000000 1.0
C      1  0.5792740000000  0.5015650000000  0.5476180000000 1.0
C      1  0.5777860000000  0.4510180000000  0.5147710000000 1.0
C      1  0.5813880000000  0.4679460000000  0.4624330000000 1.0
C      1  0.4995630000000  0.4493620000000  0.5578370000000 1.0
C      1  0.4995500000000  0.4296110000000  0.4774790000000 1.0
C      1  0.5006520000000  0.5069120000000  0.4214990000000 1.0
C      1  0.4980240000000  0.5761620000000  0.4809450000000 1.0
C      1  0.5012270000000  0.5409350000000  0.5577540000000 1.0
C      1  0.4531070000000  0.5213200000000  0.4787240000000 1.0
C      1  0.4530570000000  0.5266650000000  0.5122450000000 1.0
C      1  0.4535210000000  0.4948360000000  0.5273640000000 1.0
C      1  0.4521850000000  0.4706270000000  0.5045560000000 1.0
C      1  0.4533680000000  0.4875330000000  0.4739250000000 1.0
C      1  0.5481620000000  0.4713410000000  0.4254720000000 1.0
C      1  0.5420260000000  0.5676870000000  0.4464280000000 1.0
C      1  0.5408530000000  0.5696150000000  0.5462900000000 1.0
C      1  0.5481840000000  0.4758910000000  0.5786360000000 1.0
C      1  0.5385800000000  0.4164740000000  0.5030170000000 1.0
C      1  0.5024290000000  0.4842350000000  0.4822150000000 1.0
C      1  0.5042560000000  0.5126280000000  0.4746600000000 1.0
C      1  0.5046190000000  0.5277180000000  0.4997310000000 1.0
C      1  0.5019420000000  0.5076570000000  0.5217740000000 1.0
C      1  0.4929750000000  0.4789230000000  0.5110790000000 1.0
C      1  0.4992850000000  0.6140950000000  0.5018960000000 1.0
C      1  0.5113020000000  0.5313540000000  0.5979650000000 1.0
C      1  0.4990810000000  0.4066360000000  0.5645910000000 1.0
C      1  0.5081540000000  0.4137280000000  0.4386130000000 1.0
C      1  0.4989270000000  0.5378060000000  0.3920560000000 1.0
C      1  0.4274520000000  0.5030470000000  0.5420220000000 1.0
C      1  0.4252760000000  0.4606490000000  0.5168960000000 1.0
C      1  0.4269290000000  0.4726150000000  0.4672770000000 1.0
C      1  0.4261160000000  0.5220890000000  0.4630260000000 1.0
C      1  0.4259600000000  0.5418210000000  0.5094400000000 1.0
C      1  0.5615430000000  0.4249230000000  0.5240940000000 1.0
C      1  0.5690520000000  0.4495060000000  0.4382090000000 1.0
C      1  0.5649140000000  0.5453910000000  0.4359690000000 1.0
C      1  0.5635210000000  0.5746390000000  0.5225250000000 1.0
C      1  0.5676050000000  0.5026410000000  0.5781350000000 1.0
C      1  0.4716460000000  0.5397860000000  0.4610320000000 1.0
C      1  0.4716560000000  0.5490740000000  0.5245080000000 1.0
C      1  0.4735590000000  0.4901250000000  0.5502420000000 1.0
C      1  0.4695960000000  0.4441740000000  0.5082710000000 1.0
C      1  0.4732740000000  0.4768410000000  0.4529740000000 1.0
C      1  0.5414790000000  0.4764050000000  0.5124810000000 1.0
END
