TITL C-862506-1665-1206 0.000125012798094721 125000 -378.547083616127 0 0 66 (C1) n - 1
REM
REM in /home/nfs/bkarasulu/CARBON/AIRSS/Generating-Clusters/TERSOFF/Higher-Symm/FIRE-HFTN
REM
REM
REM
REM
REM
REM ./C.cell (b20cbc046b6831c77cfcea5457e17084)
REM AIRSS Version 0.9.1 bugfix July 2018 build 013d7b7c2542+ Fri, 06 Jul 2018 19:26:36 +0100
REM compiler GCC version 9.2.1 20190827 (Red Hat 9.2.1-1)
REM options -cpp -mtune=generic -march=x86-64 -g -O0 -fpre-include=/usr/include/finclude/math-vector-fortran.h
REM seed -805478898 692505966 867746615 5071414 1348945212 -1016969227 2043551990 1250516823 -1990049735 -1676768125 -1710635801 1548041136 125733852 672560551 902195035 1483834061 1688637742 -1283708803 1480332355 -273033233 2125878327 1349687913 -1882604047 -317296783 -1130724215 1378263317 798462453 2133620989 873988744 757562103 1883749929 -730512485 1598643107
REM
CELL 1.54180   50.00000   50.00000   50.00000   90.00000   90.00000   90.00000
LATT -1
SFAC C  
C      1  0.4934600000000  0.4820820000000  0.5766620000000 1.0
C      1  0.4378060000000  0.4818800000000  0.4558510000000 1.0
C      1  0.5659220000000  0.4826940000000  0.4683560000000 1.0
C      1  0.4881180000000  0.4793180000000  0.4230350000000 1.0
C      1  0.4417460000000  0.4792850000000  0.5458350000000 1.0
C      1  0.5695100000000  0.4796670000000  0.5280480000000 1.0
C      1  0.4817520000000  0.5074320000000  0.5664140000000 1.0
C      1  0.4525410000000  0.5071490000000  0.4506800000000 1.0
C      1  0.5670170000000  0.5081130000000  0.4834550000000 1.0
C      1  0.4800650000000  0.5056230000000  0.4333300000000 1.0
C      1  0.4533740000000  0.5058430000000  0.5502980000000 1.0
C      1  0.5680010000000  0.5064540000000  0.5159720000000 1.0
C      1  0.5024860000000  0.4384820000000  0.5573770000000 1.0
C      1  0.4491080000000  0.4380780000000  0.4734920000000 1.0
C      1  0.5452990000000  0.4461380000000  0.4692970000000 1.0
C      1  0.4977830000000  0.4364120000000  0.4422920000000 1.0
C      1  0.4514270000000  0.4418980000000  0.5293580000000 1.0
C      1  0.5494250000000  0.4428030000000  0.5272480000000 1.0
C      1  0.5243280000000  0.4320570000000  0.4842790000000 1.0
C      1  0.5009040000000  0.4294160000000  0.5294780000000 1.0
C      1  0.4735990000000  0.4280630000000  0.4862140000000 1.0
C      1  0.5256830000000  0.4314560000000  0.5137730000000 1.0
C      1  0.4986920000000  0.4280140000000  0.4705330000000 1.0
C      1  0.4747020000000  0.4298340000000  0.5156300000000 1.0
C      1  0.4222100000000  0.5200550000000  0.5113760000000 1.0
C      1  0.5300590000000  0.5192640000000  0.4277080000000 1.0
C      1  0.5495420000000  0.5203300000000  0.5624360000000 1.0
C      1  0.4206470000000  0.5326990000000  0.4839390000000 1.0
C      1  0.5265730000000  0.5329810000000  0.5775950000000 1.0
C      1  0.5542380000000  0.5332940000000  0.4392430000000 1.0
C      1  0.4405110000000  0.5283010000000  0.5340670000000 1.0
C      1  0.5011800000000  0.5277010000000  0.4312060000000 1.0
C      1  0.5603110000000  0.5288230000000  0.5353630000000 1.0
C      1  0.4421940000000  0.5327830000000  0.4628670000000 1.0
C      1  0.4974760000000  0.5331090000000  0.5695810000000 1.0
C      1  0.5624360000000  0.5338180000000  0.4682840000000 1.0
C      1  0.5143410000000  0.4621930000000  0.4331080000000 1.0
C      1  0.5462870000000  0.4668680000000  0.5489700000000 1.0
C      1  0.4346960000000  0.4663680000000  0.5155810000000 1.0
C      1  0.5196460000000  0.4641250000000  0.5642760000000 1.0
C      1  0.5381160000000  0.4713040000000  0.4503640000000 1.0
C      1  0.4352700000000  0.4641190000000  0.4848390000000 1.0
C      1  0.5495510000000  0.5555430000000  0.4863180000000 1.0
C      1  0.4881600000000  0.5549600000000  0.5495680000000 1.0
C      1  0.4641190000000  0.5545180000000  0.4647500000000 1.0
C      1  0.5463570000000  0.5538310000000  0.5226130000000 1.0
C      1  0.4970200000000  0.5529700000000  0.4492550000000 1.0
C      1  0.4584680000000  0.5532200000000  0.5285070000000 1.0
C      1  0.4746890000000  0.5793020000000  0.4834870000000 1.0
C      1  0.5272800000000  0.5797450000000  0.4860530000000 1.0
C      1  0.4987900000000  0.5794400000000  0.5303220000000 1.0
C      1  0.4728000000000  0.5784340000000  0.5128540000000 1.0
C      1  0.5251930000000  0.5786020000000  0.5172830000000 1.0
C      1  0.5028080000000  0.5783040000000  0.4697010000000 1.0
C      1  0.4956440000000  0.5337270000000  0.5276950000000 1.0
C      1  0.4795140000000  0.5333510000000  0.4819880000000 1.0
C      1  0.5271620000000  0.5340230000000  0.4909580000000 1.0
C      1  0.5066210000000  0.5303740000000  0.4726660000000 1.0
C      1  0.4740390000000  0.5302150000000  0.5090050000000 1.0
C      1  0.5217830000000  0.5306990000000  0.5190060000000 1.0
C      1  0.5736000000000  0.4536990000000  0.5109370000000 1.0
C      1  0.4538190000000  0.4533630000000  0.5582400000000 1.0
C      1  0.4735100000000  0.4526060000000  0.4309760000000 1.0
C      1  0.5715720000000  0.4550140000000  0.4824370000000 1.0
C      1  0.4495880000000  0.4537200000000  0.4467550000000 1.0
C      1  0.4794340000000  0.4540110000000  0.5709180000000 1.0
END
