TITL C-862130-1496-860 -0.00061572747367255 125000 -17.5390537001499 0 0 5 (Td) n - 1
REM
REM in /home/nfs/bkarasulu/CARBON/AIRSS/Generating-Clusters/TERSOFF/Higher-Symm/FIRE-HFTN
REM
REM
REM
REM
REM
REM ./C.cell (b20cbc046b6831c77cfcea5457e17084)
REM AIRSS Version 0.9.1 bugfix July 2018 build 013d7b7c2542+ Fri, 06 Jul 2018 19:26:36 +0100
REM compiler GCC version 9.2.1 20190827 (Red Hat 9.2.1-1)
REM options -cpp -mtune=generic -march=x86-64 -g -O0 -fpre-include=/usr/include/finclude/math-vector-fortran.h
REM seed -692171299 693995853 966964308 -346470167 -1118319025 1119680653 -926550904 -752068333 -1244249904 -1445304912 119669754 1318457484 966914845 335918372 1420598487 777553888 -861015485 1415602583 -1019182921 707967806 -1594439939 1495432273 2122131559 -861411366 -525317962 377732972 867875175 -1119679611 1195379717 -2025716895 1898319216 1808099185 1768624778
REM
CELL 1.54180   50.00000   50.00000   50.00000   90.00000   90.00000   90.00000
LATT -1
SFAC C  
C      1  0.5168380000000  0.4810840000000  0.4833910000000 1.0
C      1  0.4823330000000  0.4810840000000  0.5178970000000 1.0
C      1  0.4823330000000  0.5155900000000  0.4833910000000 1.0
C      1  0.5168380000000  0.5155900000000  0.5178970000000 1.0
C      1  0.4995850000000  0.4983370000000  0.5006440000000 1.0
END
