TITL C-862500-986-1070 0.0401766622223389 125000 -1045.77406079534 0 0 186 (S4) n - 1
REM
REM in /home/nfs/bkarasulu/CARBON/AIRSS/Generating-Clusters/TERSOFF/Higher-Symm/FIRE-HFTN
REM
REM
REM
REM
REM
REM ./C.cell (b20cbc046b6831c77cfcea5457e17084)
REM AIRSS Version 0.9.1 bugfix July 2018 build 013d7b7c2542+ Fri, 06 Jul 2018 19:26:36 +0100
REM compiler GCC version 9.2.1 20190827 (Red Hat 9.2.1-1)
REM options -cpp -mtune=generic -march=x86-64 -g -O0 -fpre-include=/usr/include/finclude/math-vector-fortran.h
REM seed 1262400561 1776542828 -1149499755 -1922885433 184379511 -2006503463 -321665970 2078291014 1980599039 -802801141 -297812546 -1309594218 -721400424 -151578700 -27837222 141473935 180933003 -248840403 1365136634 2053190513 -3062899 459191684 1453657961 1870561206 1253263199 780610216 752184214 1592641886 -1587017539 -1875214673 -480635564 -624193181 1525482011
REM
CELL 1.54180   50.00000   50.00000   50.00000   90.00000   90.00000   90.00000
LATT -1
SFAC C  
C      1  0.4927770000000  0.4136040000000  0.4269270000000 1.0
C      1  0.4136280000000  0.5069930000000  0.5730730000000 1.0
C      1  0.5070160000000  0.5861410000000  0.4269270000000 1.0
C      1  0.5861650000000  0.4927530000000  0.5730730000000 1.0
C      1  0.6004680000000  0.4779620000000  0.4481930000000 1.0
C      1  0.4779850000000  0.3993020000000  0.5518070000000 1.0
C      1  0.3993250000000  0.5217840000000  0.4481930000000 1.0
C      1  0.5218070000000  0.6004440000000  0.5518070000000 1.0
C      1  0.5016640000000  0.5699890000000  0.5101730000000 1.0
C      1  0.5700120000000  0.4981050000000  0.4898270000000 1.0
C      1  0.4981290000000  0.4297570000000  0.5101730000000 1.0
C      1  0.4297810000000  0.5016410000000  0.4898270000000 1.0
C      1  0.5147760000000  0.5318070000000  0.5383980000000 1.0
C      1  0.5318310000000  0.4849930000000  0.4616020000000 1.0
C      1  0.4850170000000  0.4679390000000  0.5383980000000 1.0
C      1  0.4679620000000  0.5147530000000  0.4616020000000 1.0
C      1  0.5502080000000  0.4828610000000  0.5537620000000 1.0
C      1  0.4828840000000  0.4495610000000  0.4462390000000 1.0
C      1  0.4495840000000  0.5168860000000  0.5537610000000 1.0
C      1  0.5169090000000  0.5501850000000  0.4462380000000 1.0
C      1  0.4764250000000  0.4532800000000  0.4989260000000 1.0
C      1  0.4533040000000  0.5233450000000  0.5010740000000 1.0
C      1  0.5233680000000  0.5464660000000  0.4989260000000 1.0
C      1  0.5464890000000  0.4764010000000  0.5010740000000 1.0
C      1  0.5606220000000  0.4709000000000  0.4593400000000 1.0
C      1  0.4709240000000  0.4391470000000  0.5406610000000 1.0
C      1  0.4391700000000  0.5288460000000  0.4593390000000 1.0
C      1  0.5288690000000  0.5605990000000  0.5406600000000 1.0
C      1  0.4902350000000  0.5854840000000  0.4535910000000 1.0
C      1  0.5855070000000  0.5095350000000  0.5464090000000 1.0
C      1  0.5095580000000  0.4142620000000  0.4535910000000 1.0
C      1  0.4142850000000  0.4902110000000  0.5464090000000 1.0
C      1  0.5778890000000  0.5461740000000  0.5690040000000 1.0
C      1  0.5461980000000  0.4218800000000  0.4309970000000 1.0
C      1  0.4219040000000  0.4535720000000  0.5690040000000 1.0
C      1  0.4535950000000  0.5778660000000  0.4309960000000 1.0
C      1  0.5983470000000  0.4902370000000  0.4787090000000 1.0
C      1  0.4902610000000  0.4014230000000  0.5212910000000 1.0
C      1  0.4014460000000  0.5095090000000  0.4787090000000 1.0
C      1  0.5095320000000  0.5983240000000  0.5212910000000 1.0
C      1  0.3942530000000  0.5533660000000  0.5670110000000 1.0
C      1  0.5533900000000  0.6055160000000  0.4329880000000 1.0
C      1  0.6055390000000  0.4463800000000  0.5670120000000 1.0
C      1  0.4464030000000  0.3942300000000  0.4329890000000 1.0
C      1  0.4935490000000  0.5777660000000  0.4011040000000 1.0
C      1  0.5777890000000  0.5062200000000  0.5988960000000 1.0
C      1  0.5062440000000  0.4219800000000  0.4011040000000 1.0
C      1  0.4220030000000  0.4935260000000  0.5988960000000 1.0
C      1  0.4353330000000  0.4498070000000  0.4616440000000 1.0
C      1  0.4498300000000  0.5644370000000  0.5383560000000 1.0
C      1  0.5644600000000  0.5499390000000  0.4616440000000 1.0
C      1  0.5499620000000  0.4353090000000  0.5383560000000 1.0
C      1  0.4221530000000  0.4837380000000  0.4276000000000 1.0
C      1  0.4837620000000  0.5776160000000  0.5724000000000 1.0
C      1  0.5776390000000  0.5160070000000  0.4276000000000 1.0
C      1  0.5160310000000  0.4221300000000  0.5724000000000 1.0
C      1  0.5182930000000  0.4872510000000  0.4915830000000 1.0
C      1  0.4872740000000  0.4814760000000  0.5084170000000 1.0
C      1  0.4815000000000  0.5124950000000  0.4915830000000 1.0
C      1  0.5125180000000  0.5182700000000  0.5084170000000 1.0
C      1  0.4653830000000  0.5751040000000  0.4051550000000 1.0
C      1  0.5751280000000  0.5343870000000  0.5948450000000 1.0
C      1  0.5344100000000  0.4246420000000  0.4051550000000 1.0
C      1  0.4246650000000  0.4653590000000  0.5948450000000 1.0
C      1  0.6049230000000  0.5230330000000  0.4708270000000 1.0
C      1  0.5230560000000  0.3948460000000  0.5291740000000 1.0
C      1  0.3948700000000  0.4767130000000  0.4708260000000 1.0
C      1  0.4767370000000  0.6049000000000  0.5291730000000 1.0
C      1  0.5314970000000  0.4932070000000  0.5988570000000 1.0
C      1  0.4932300000000  0.4682720000000  0.4011430000000 1.0
C      1  0.4682960000000  0.5065400000000  0.5988570000000 1.0
C      1  0.5065630000000  0.5314730000000  0.4011430000000 1.0
C      1  0.5969690000000  0.5305610000000  0.4434440000000 1.0
C      1  0.5305840000000  0.4028000000000  0.5565560000000 1.0
C      1  0.4028240000000  0.4691850000000  0.4434440000000 1.0
C      1  0.4692090000000  0.5969460000000  0.5565560000000 1.0
C      1  0.3868490000000  0.5263540000000  0.4991470000000 1.0
C      1  0.5263770000000  0.6129210000000  0.5008520000000 1.0
C      1  0.6129440000000  0.4733920000000  0.4991480000000 1.0
C      1  0.4734160000000  0.3868250000000  0.5008530000000 1.0
C      1  0.4785670000000  0.4426090000000  0.5907390000000 1.0
C      1  0.4426320000000  0.5212020000000  0.4092610000000 1.0
C      1  0.5212260000000  0.5571380000000  0.5907390000000 1.0
C      1  0.5571610000000  0.4785430000000  0.4092610000000 1.0
C      1  0.4740970000000  0.5284860000000  0.4360200000000 1.0
C      1  0.5285100000000  0.5256730000000  0.5639800000000 1.0
C      1  0.5256960000000  0.4712600000000  0.4360200000000 1.0
C      1  0.4712830000000  0.4740730000000  0.5639800000000 1.0
C      1  0.4990490000000  0.5375960000000  0.4278710000000 1.0
C      1  0.5376200000000  0.5007210000000  0.5721290000000 1.0
C      1  0.5007440000000  0.4621490000000  0.4278720000000 1.0
C      1  0.4621730000000  0.4990250000000  0.5721280000000 1.0
C      1  0.4466200000000  0.4531320000000  0.5095180000000 1.0
C      1  0.4531550000000  0.5531500000000  0.4904820000000 1.0
C      1  0.5531730000000  0.5466140000000  0.5095180000000 1.0
C      1  0.5466370000000  0.4465960000000  0.4904820000000 1.0
C      1  0.5440520000000  0.3879300000000  0.4814040000000 1.0
C      1  0.3879530000000  0.4557180000000  0.5185960000000 1.0
C      1  0.4557410000000  0.6118160000000  0.4814040000000 1.0
C      1  0.6118400000000  0.5440280000000  0.5185960000000 1.0
C      1  0.5458480000000  0.5555940000000  0.4365700000000 1.0
C      1  0.5556170000000  0.4539220000000  0.5634300000000 1.0
C      1  0.4539450000000  0.4441520000000  0.4365700000000 1.0
C      1  0.4441750000000  0.5458240000000  0.5634290000000 1.0
C      1  0.4277450000000  0.4108380000000  0.4794980000000 1.0
C      1  0.4108620000000  0.5720240000000  0.5205020000000 1.0
C      1  0.5720480000000  0.5889080000000  0.4794980000000 1.0
C      1  0.5889310000000  0.4277220000000  0.5205020000000 1.0
C      1  0.4995650000000  0.5339140000000  0.5932270000000 1.0
C      1  0.5339370000000  0.5002040000000  0.4067730000000 1.0
C      1  0.5002270000000  0.4658320000000  0.5932270000000 1.0
C      1  0.4658560000000  0.4995420000000  0.4067730000000 1.0
C      1  0.4312610000000  0.4287510000000  0.5050490000000 1.0
C      1  0.4287740000000  0.5685090000000  0.4949510000000 1.0
C      1  0.5685320000000  0.5709950000000  0.5050490000000 1.0
C      1  0.5710180000000  0.4312370000000  0.4949510000000 1.0
C      1  0.4270600000000  0.3931930000000  0.4540800000000 1.0
C      1  0.3932170000000  0.5727100000000  0.5459200000000 1.0
C      1  0.5727330000000  0.6065520000000  0.4540800000000 1.0
C      1  0.6065760000000  0.4270370000000  0.5459200000000 1.0
C      1  0.6105460000000  0.4437250000000  0.5016820000000 1.0
C      1  0.4437490000000  0.3892240000000  0.4983180000000 1.0
C      1  0.3892470000000  0.5560210000000  0.5016820000000 1.0
C      1  0.5560440000000  0.6105220000000  0.4983180000000 1.0
C      1  0.5831560000000  0.4875190000000  0.4240300000000 1.0
C      1  0.4875420000000  0.4166130000000  0.5759700000000 1.0
C      1  0.4166370000000  0.5122270000000  0.4240300000000 1.0
C      1  0.5122500000000  0.5831330000000  0.5759700000000 1.0
C      1  0.4679210000000  0.5629990000000  0.4590780000000 1.0
C      1  0.5630220000000  0.5318480000000  0.5409220000000 1.0
C      1  0.5318720000000  0.4367470000000  0.4590780000000 1.0
C      1  0.4367700000000  0.4678980000000  0.5409220000000 1.0
C      1  0.4385860000000  0.6018010000000  0.4363170000000 1.0
C      1  0.6018240000000  0.5611840000000  0.5636830000000 1.0
C      1  0.5612070000000  0.3979450000000  0.4363170000000 1.0
C      1  0.3979690000000  0.4385620000000  0.5636830000000 1.0
C      1  0.4248410000000  0.5549970000000  0.4513170000000 1.0
C      1  0.5550210000000  0.5749290000000  0.5486830000000 1.0
C      1  0.5749520000000  0.4447480000000  0.4513170000000 1.0
C      1  0.4447720000000  0.4248170000000  0.5486830000000 1.0
C      1  0.6067130000000  0.5467790000000  0.4896230000000 1.0
C      1  0.5468020000000  0.3930560000000  0.5103770000000 1.0
C      1  0.3930800000000  0.4529670000000  0.4896230000000 1.0
C      1  0.4529910000000  0.6066900000000  0.5103760000000 1.0
C      1  0.5228430000000  0.4400770000000  0.5243420000000 1.0
C      1  0.4401010000000  0.4769260000000  0.4756590000000 1.0
C      1  0.4769500000000  0.5596690000000  0.5243410000000 1.0
C      1  0.5596920000000  0.5228200000000  0.4756590000000 1.0
C      1  0.4166640000000  0.5361770000000  0.5715450000000 1.0
C      1  0.5362010000000  0.5831050000000  0.4284540000000 1.0
C      1  0.5831280000000  0.4635690000000  0.5715460000000 1.0
C      1  0.4635920000000  0.4166410000000  0.4284550000000 1.0
C      1  0.5784340000000  0.5799800000000  0.5299660000000 1.0
C      1  0.5800030000000  0.4213350000000  0.4700350000000 1.0
C      1  0.4213590000000  0.4197670000000  0.5299660000000 1.0
C      1  0.4197900000000  0.5784110000000  0.4700340000000 1.0
C      1  0.4941110000000  0.4438890000000  0.3853060000000 1.0
C      1  0.4439120000000  0.5056580000000  0.6146940000000 1.0
C      1  0.5056820000000  0.5558570000000  0.3853060000000 1.0
C      1  0.5558810000000  0.4940880000000  0.6146940000000 1.0
C      1  0.4823630000000  0.6096730000000  0.4685830000000 1.0
C      1  0.6096970000000  0.5174070000000  0.5314170000000 1.0
C      1  0.5174300000000  0.3900730000000  0.4685840000000 1.0
C      1  0.3900960000000  0.4823390000000  0.5314160000000 1.0
C      1  0.4808660000000  0.4648310000000  0.4704090000000 1.0
C      1  0.4648550000000  0.5189040000000  0.5295910000000 1.0
C      1  0.5189270000000  0.5349150000000  0.4704090000000 1.0
C      1  0.5349380000000  0.4808430000000  0.5295910000000 1.0
C      1  0.5138350000000  0.4622570000000  0.5423460000000 1.0
C      1  0.4622810000000  0.4859350000000  0.4576540000000 1.0
C      1  0.4859580000000  0.5374890000000  0.5423460000000 1.0
C      1  0.5375120000000  0.5138110000000  0.4576540000000 1.0
C      1  0.3988680000000  0.4256320000000  0.4785020000000 1.0
C      1  0.4256560000000  0.6009020000000  0.5214980000000 1.0
C      1  0.6009250000000  0.5741140000000  0.4785020000000 1.0
C      1  0.5741370000000  0.3988440000000  0.5214990000000 1.0
C      1  0.6050420000000  0.5678370000000  0.5360810000000 1.0
C      1  0.5678600000000  0.3947280000000  0.4639190000000 1.0
C      1  0.3947510000000  0.4319100000000  0.5360810000000 1.0
C      1  0.4319330000000  0.6050180000000  0.4639190000000 1.0
C      1  0.5227490000000  0.4525730000000  0.5720230000000 1.0
C      1  0.4525960000000  0.4770200000000  0.4279780000000 1.0
C      1  0.4770430000000  0.5471730000000  0.5720220000000 1.0
C      1  0.5471970000000  0.5227260000000  0.4279780000000 1.0
C      1  0.4998960000000  0.4998730000000  0.3941190000000 1.0
C      1  0.4998960000000  0.4998730000000  0.6058810000000 1.0
END
