TITL C-862505-1648-216 1.4597486558625e-05 125000 -174.964830377163 0 0 35 (C3h) n - 1
REM
REM in /home/nfs/bkarasulu/CARBON/AIRSS/Generating-Clusters/TERSOFF/Higher-Symm/FIRE-HFTN
REM
REM
REM
REM
REM
REM ./C.cell (b20cbc046b6831c77cfcea5457e17084)
REM AIRSS Version 0.9.1 bugfix July 2018 build 013d7b7c2542+ Fri, 06 Jul 2018 19:26:36 +0100
REM compiler GCC version 9.2.1 20190827 (Red Hat 9.2.1-1)
REM options -cpp -mtune=generic -march=x86-64 -g -O0 -fpre-include=/usr/include/finclude/math-vector-fortran.h
REM seed 718066403 -1657780967 546985738 2075432765 -349075762 -1590301886 -248348238 1072233165 475251325 1886607471 -2053998052 -1931370044 448343489 1023291165 414528733 -1815998833 1484160421 867142915 -560358301 253019188 2104515081 -1691854968 -719333177 804699914 1483587702 -1057101061 2130086766 1609831002 -1961298484 1623239120 -453583641 -1174588955 254375076
REM
CELL 1.54180   50.00000   50.00000   50.00000   90.00000   90.00000   90.00000
LATT -1
SFAC C  
C      1  0.5460710000000  0.5282370000000  0.4836270000000 1.0
C      1  0.4906910000000  0.5282370000000  0.5496580000000 1.0
C      1  0.4611970000000  0.5282370000000  0.4686820000000 1.0
C      1  0.5460710000000  0.4757120000000  0.4836270000000 1.0
C      1  0.4906910000000  0.4757120000000  0.5496580000000 1.0
C      1  0.4611970000000  0.4757120000000  0.4686820000000 1.0
C      1  0.4791620000000  0.5163350000000  0.4433610000000 1.0
C      1  0.5590170000000  0.5163350000000  0.5118460000000 1.0
C      1  0.4597800000000  0.5163350000000  0.5467600000000 1.0
C      1  0.4791620000000  0.4876140000000  0.4433610000000 1.0
C      1  0.5590170000000  0.4876140000000  0.5118460000000 1.0
C      1  0.4597800000000  0.4876140000000  0.5467600000000 1.0
C      1  0.5081860000000  0.4785550000000  0.4546370000000 1.0
C      1  0.5347400000000  0.4785550000000  0.5313430000000 1.0
C      1  0.4550340000000  0.4785550000000  0.5159860000000 1.0
C      1  0.5081860000000  0.5253940000000  0.4546370000000 1.0
C      1  0.5347400000000  0.5253940000000  0.5313430000000 1.0
C      1  0.4550340000000  0.5253940000000  0.5159860000000 1.0
C      1  0.4902880000000  0.5422620000000  0.4743790000000 1.0
C      1  0.5265920000000  0.5422620000000  0.5059710000000 1.0
C      1  0.4810800000000  0.5422620000000  0.5216160000000 1.0
C      1  0.4902880000000  0.4616870000000  0.4743790000000 1.0
C      1  0.5265920000000  0.4616870000000  0.5059710000000 1.0
C      1  0.4810800000000  0.4616870000000  0.5216160000000 1.0
C      1  0.4966100000000  0.5458130000000  0.5723180000000 1.0
C      1  0.4386130000000  0.5458130000000  0.4624780000000 1.0
C      1  0.5627360000000  0.5458130000000  0.4671710000000 1.0
C      1  0.4966100000000  0.4581360000000  0.5723180000000 1.0
C      1  0.4386130000000  0.4581360000000  0.4624780000000 1.0
C      1  0.5627360000000  0.4581360000000  0.4671710000000 1.0
C      1  0.5296130000000  0.5019750000000  0.4668410000000 1.0
C      1  0.5134570000000  0.5019750000000  0.5437970000000 1.0
C      1  0.4548890000000  0.5019750000000  0.4913280000000 1.0
C      1  0.4993200000000  0.5476030000000  0.5006550000000 1.0
C      1  0.4993200000000  0.4563460000000  0.5006550000000 1.0
END
