TITL C-862130-1496-56 315122.208733244 125000 -646.795588823325 0 0 114 (C2) n - 1
REM
REM in /home/nfs/bkarasulu/CARBON/AIRSS/Generating-Clusters/TERSOFF/Higher-Symm/FIRE-HFTN
REM
REM
REM
REM
REM
REM ./C.cell (b20cbc046b6831c77cfcea5457e17084)
REM AIRSS Version 0.9.1 bugfix July 2018 build 013d7b7c2542+ Fri, 06 Jul 2018 19:26:36 +0100
REM compiler GCC version 9.2.1 20190827 (Red Hat 9.2.1-1)
REM options -cpp -mtune=generic -march=x86-64 -g -O0 -fpre-include=/usr/include/finclude/math-vector-fortran.h
REM seed 1878528181 812462628 -1357892693 654474330 834642024 403891754 449425603 227535158 -321799847 -560560306 958856047 -1433841254 -828042140 1328969233 -582355270 -1576077505 895638234 347430182 769278518 -1098210462 29025558 2037560816 768000149 -1751600881 1937862239 -1225943119 1553961361 -720777302 910434587 -960741114 -1027193623 401990125 641633298
REM
CELL 1.54180   50.00000   50.00000   50.00000   90.00000   90.00000   90.00000
LATT -1
SFAC C  
C      1  0.5379480000000  0.5242860000000  0.5245700000000 1.0
C      1  0.5379480000000  0.4757140000000  0.4754290000000 1.0
C      1  0.6082820000000  0.5216470000000  0.5359040000000 1.0
C      1  0.6082860000000  0.4783560000000  0.4640970000000 1.0
C      1  0.4916630000000  0.5281920000000  0.5470680000000 1.0
C      1  0.4916630000000  0.4718080000000  0.4529320000000 1.0
C      1  0.4792340000000  0.4777200000000  0.5186370000000 1.0
C      1  0.4792340000000  0.5222790000000  0.4813630000000 1.0
C      1  0.5158730000000  0.4434760000000  0.5039390000000 1.0
C      1  0.5158730000000  0.5565230000000  0.4960600000000 1.0
C      1  0.5969000000000  0.5191970000000  0.4180330000000 1.0
C      1  0.5969000000000  0.4808020000000  0.5819670000000 1.0
C      1  0.5215660000000  0.6092510000000  0.5538250000000 1.0
C      1  0.5215650000000  0.3907490000000  0.4461750000000 1.0
C      1  0.4477300000000  0.3975460000000  0.5179580000000 1.0
C      1  0.4477300000000  0.6024540000000  0.4820420000000 1.0
C      1  0.4395030000000  0.5705410000000  0.4824860000000 1.0
C      1  0.4395020000000  0.4294590000000  0.5175140000000 1.0
C      1  0.6070770000000  0.4798920000000  0.5060520000000 1.0
C      1  0.6070780000000  0.5201110000000  0.4939490000000 1.0
C      1  0.4673740000000  0.5734800000000  0.5052380000000 1.0
C      1  0.4673730000000  0.4265200000000  0.4947620000000 1.0
C      1  0.5152740000000  0.6156690000000  0.5255780000000 1.0
C      1  0.5152730000000  0.3843310000000  0.4744220000000 1.0
C      1  0.4305950000000  0.5569040000000  0.5333670000000 1.0
C      1  0.4305940000000  0.4430960000000  0.4666330000000 1.0
C      1  0.4877480000000  0.6199370000000  0.5170640000000 1.0
C      1  0.4877480000000  0.3800630000000  0.4829360000000 1.0
C      1  0.4211990000000  0.4691220000000  0.4539850000000 1.0
C      1  0.4211990000000  0.5308780000000  0.5460160000000 1.0
C      1  0.5253210000000  0.4984660000000  0.5662130000000 1.0
C      1  0.5253210000000  0.5015340000000  0.4337860000000 1.0
C      1  0.5105010000000  0.5485200000000  0.4178330000000 1.0
C      1  0.5105020000000  0.4514800000000  0.5821660000000 1.0
C      1  0.4597050000000  0.5339940000000  0.4151680000000 1.0
C      1  0.4597050000000  0.4660060000000  0.5848320000000 1.0
C      1  0.4734220000000  0.5499290000000  0.4688060000000 1.0
C      1  0.4734210000000  0.4500710000000  0.5311940000000 1.0
C      1  0.5299030000000  0.4689880000000  0.5044360000000 1.0
C      1  0.5299030000000  0.5310110000000  0.4955630000000 1.0
C      1  0.5298240000000  0.3990910000000  0.5218910000000 1.0
C      1  0.5298240000000  0.6009090000000  0.4781090000000 1.0
C      1  0.4205570000000  0.4379480000000  0.4946650000000 1.0
C      1  0.4205570000000  0.5620530000000  0.5053350000000 1.0
C      1  0.5709530000000  0.4826660000000  0.5690890000000 1.0
C      1  0.5709530000000  0.5173330000000  0.4309110000000 1.0
C      1  0.4824760000000  0.5580140000000  0.5487110000000 1.0
C      1  0.4824750000000  0.4419860000000  0.4512890000000 1.0
C      1  0.5576200000000  0.4722050000000  0.5195630000000 1.0
C      1  0.5576200000000  0.5277950000000  0.4804370000000 1.0
C      1  0.5202530000000  0.5651000000000  0.5822640000000 1.0
C      1  0.5202520000000  0.4349000000000  0.4177360000000 1.0
C      1  0.4353010000000  0.4904350000000  0.4367880000000 1.0
C      1  0.4353010000000  0.5095650000000  0.5632120000000 1.0
C      1  0.4289400000000  0.5240430000000  0.4480560000000 1.0
C      1  0.4289400000000  0.4759570000000  0.5519440000000 1.0
C      1  0.5332660000000  0.5838670000000  0.5632430000000 1.0
C      1  0.5332650000000  0.4161330000000  0.4367570000000 1.0
C      1  0.4596780000000  0.4794480000000  0.4956880000000 1.0
C      1  0.4596780000000  0.5205520000000  0.5043110000000 1.0
C      1  0.4937090000000  0.4309030000000  0.5414690000000 1.0
C      1  0.4937090000000  0.5690970000000  0.4585310000000 1.0
C      1  0.4453660000000  0.4481500000000  0.5453220000000 1.0
C      1  0.4453660000000  0.5518500000000  0.4546780000000 1.0
C      1  0.4906770000000  0.5598570000000  0.5794810000000 1.0
C      1  0.4906760000000  0.4401430000000  0.4205190000000 1.0
C      1  0.4808290000000  0.4722260000000  0.4222330000000 1.0
C      1  0.4808300000000  0.5277740000000  0.5777670000000 1.0
C      1  0.5508220000000  0.4983240000000  0.4218060000000 1.0
C      1  0.5508230000000  0.5016750000000  0.5781940000000 1.0
C      1  0.5370180000000  0.5476160000000  0.5998560000000 1.0
C      1  0.5370170000000  0.4523840000000  0.4001440000000 1.0
C      1  0.5053780000000  0.5199530000000  0.4231110000000 1.0
C      1  0.5053780000000  0.4800470000000  0.5768890000000 1.0
C      1  0.4543160000000  0.5176150000000  0.5837010000000 1.0
C      1  0.4543150000000  0.4823850000000  0.4162990000000 1.0
C      1  0.5787690000000  0.4790010000000  0.5000710000000 1.0
C      1  0.5787700000000  0.5210000000000  0.4999290000000 1.0
C      1  0.5182660000000  0.5163870000000  0.5448680000000 1.0
C      1  0.5182660000000  0.4836130000000  0.4551310000000 1.0
C      1  0.4772350000000  0.5152510000000  0.4288320000000 1.0
C      1  0.4772350000000  0.4847490000000  0.5711680000000 1.0
C      1  0.4116910000000  0.5142670000000  0.5234760000000 1.0
C      1  0.4116900000000  0.4857330000000  0.4765240000000 1.0
C      1  0.4918570000000  0.5690490000000  0.4290890000000 1.0
C      1  0.4918570000000  0.4309510000000  0.5709100000000 1.0
C      1  0.4699410000000  0.4924650000000  0.5436940000000 1.0
C      1  0.4699410000000  0.5075350000000  0.4563060000000 1.0
C      1  0.4080360000000  0.4865620000000  0.5327990000000 1.0
C      1  0.4080360000000  0.5134380000000  0.4672010000000 1.0
C      1  0.4895390000000  0.5535670000000  0.5074160000000 1.0
C      1  0.4895390000000  0.4464330000000  0.4925840000000 1.0
C      1  0.4607280000000  0.5617350000000  0.4262640000000 1.0
C      1  0.4607280000000  0.4382650000000  0.5737360000000 1.0
C      1  0.5671410000000  0.4809890000000  0.4730460000000 1.0
C      1  0.5671420000000  0.5190120000000  0.5269540000000 1.0
C      1  0.5179150000000  0.5746700000000  0.4740870000000 1.0
C      1  0.5179150000000  0.4253290000000  0.5259130000000 1.0
C      1  0.5352200000000  0.6127170000000  0.5043570000000 1.0
C      1  0.5352190000000  0.3872830000000  0.4956420000000 1.0
C      1  0.4743110000000  0.3974490000000  0.5019700000000 1.0
C      1  0.4743120000000  0.6025510000000  0.4980300000000 1.0
C      1  0.5632290000000  0.5358650000000  0.4526880000000 1.0
C      1  0.5632290000000  0.4641340000000  0.5473120000000 1.0
C      1  0.5065670000000  0.4878360000000  0.5083480000000 1.0
C      1  0.5065670000000  0.5121640000000  0.4916520000000 1.0
C      1  0.4307160000000  0.5209330000000  0.5016440000000 1.0
C      1  0.4307160000000  0.4790680000000  0.4983560000000 1.0
C      1  0.5572470000000  0.5277480000000  0.5904610000000 1.0
C      1  0.5572460000000  0.4722520000000  0.4095390000000 1.0
C      1  0.4586610000000  0.5683630000000  0.5340170000000 1.0
C      1  0.4586610000000  0.4316370000000  0.4659830000000 1.0
C      1  0.6191320000000  0.4964850000000  0.5265150000000 1.0
C      1  0.6191350000000  0.5035180000000  0.4734870000000 1.0
END
