TITL C-862133-5440-1429 2.48077571090868e-05 125000 -366.79422451031 0 0 70 (C5) n - 1
REM
REM in /home/nfs/bkarasulu/CARBON/AIRSS/Generating-Clusters/TERSOFF/Higher-Symm/FIRE-HFTN
REM
REM
REM
REM
REM
REM ./C.cell (b20cbc046b6831c77cfcea5457e17084)
REM AIRSS Version 0.9.1 bugfix July 2018 build 013d7b7c2542+ Fri, 06 Jul 2018 19:26:36 +0100
REM compiler GCC version 9.2.1 20190827 (Red Hat 9.2.1-1)
REM options -cpp -mtune=generic -march=x86-64 -g -O0 -fpre-include=/usr/include/finclude/math-vector-fortran.h
REM seed 918150211 -1153138162 1891484531 -847543850 -420906526 819590852 -375228596 1170385277 1258018234 1840757849 -564177291 -1466507430 -1166046501 -1184139464 -84475756 1902640451 -1153748195 -752395068 1185343402 -1593657877 -1126709498 -922030946 -538291143 -1037067188 1784760518 -609522863 -1368095198 -269083148 -1238145545 -1827218423 1995958953 -282167998 1921013802
REM
CELL 1.54180   50.00000   50.00000   50.00000   90.00000   90.00000   90.00000
LATT -1
SFAC C  
C      1  0.5275900000000  0.5016860000000  0.5402940000000 1.0
C      1  0.5101290000000  0.4742820000000  0.5402940000000 1.0
C      1  0.4786700000000  0.4824190000000  0.5402940000000 1.0
C      1  0.4766880000000  0.5148530000000  0.5402940000000 1.0
C      1  0.5069220000000  0.5267600000000  0.5402940000000 1.0
C      1  0.5068810000000  0.4511550000000  0.4464190000000 1.0
C      1  0.4556720000000  0.4783620000000  0.4464190000000 1.0
C      1  0.4657230000000  0.5354720000000  0.4464190000000 1.0
C      1  0.5231440000000  0.5435610000000  0.4464190000000 1.0
C      1  0.5485810000000  0.4914500000000  0.4464190000000 1.0
C      1  0.4548880000000  0.4489600000000  0.4523710000000 1.0
C      1  0.4375170000000  0.5271320000000  0.4523710000000 1.0
C      1  0.5064960000000  0.5678090000000  0.4523710000000 1.0
C      1  0.5664970000000  0.5147760000000  0.4523710000000 1.0
C      1  0.5346020000000  0.4413230000000  0.4523710000000 1.0
C      1  0.4613520000000  0.4391790000000  0.4989570000000 1.0
C      1  0.4302130000000  0.5179620000000  0.4989570000000 1.0
C      1  0.4955170000000  0.5719220000000  0.4989570000000 1.0
C      1  0.5670170000000  0.5264880000000  0.4989570000000 1.0
C      1  0.5459010000000  0.4444490000000  0.4989570000000 1.0
C      1  0.5524420000000  0.5029100000000  0.5207730000000 1.0
C      1  0.5189730000000  0.4510240000000  0.5207730000000 1.0
C      1  0.4592840000000  0.4668220000000  0.5207730000000 1.0
C      1  0.4558630000000  0.5284710000000  0.5207730000000 1.0
C      1  0.5134380000000  0.5507740000000  0.5207730000000 1.0
C      1  0.4365700000000  0.5412670000000  0.4790550000000 1.0
C      1  0.5196460000000  0.5730770000000  0.4790550000000 1.0
C      1  0.5755720000000  0.5038980000000  0.4790550000000 1.0
C      1  0.5270600000000  0.4293310000000  0.4790550000000 1.0
C      1  0.4411520000000  0.4524270000000  0.4790550000000 1.0
C      1  0.5069420000000  0.5267070000000  0.5737580000000 1.0
C      1  0.5275450000000  0.5016510000000  0.5737580000000 1.0
C      1  0.5100820000000  0.4743130000000  0.5737580000000 1.0
C      1  0.4786860000000  0.4824740000000  0.5737580000000 1.0
C      1  0.4767450000000  0.5148550000000  0.5737580000000 1.0
C      1  0.4190530000000  0.4932440000000  0.5366210000000 1.0
C      1  0.4685610000000  0.5748970000000  0.5366210000000 1.0
C      1  0.5615160000000  0.5530450000000  0.5366210000000 1.0
C      1  0.5694580000000  0.4578870000000  0.5366210000000 1.0
C      1  0.4814120000000  0.4209280000000  0.5366210000000 1.0
C      1  0.4331000000000  0.4965900000000  0.4553970000000 1.0
C      1  0.4760840000000  0.5625720000000  0.4553970000000 1.0
C      1  0.5521190000000  0.5420810000000  0.4553970000000 1.0
C      1  0.5561270000000  0.4634360000000  0.4553970000000 1.0
C      1  0.4825700000000  0.4353210000000  0.4553970000000 1.0
C      1  0.4782710000000  0.4826410000000  0.4983010000000 1.0
C      1  0.4767760000000  0.5153010000000  0.4983010000000 1.0
C      1  0.5073760000000  0.5268150000000  0.4983010000000 1.0
C      1  0.5277820000000  0.5012720000000  0.4983010000000 1.0
C      1  0.5097950000000  0.4739710000000  0.4983010000000 1.0
C      1  0.5685950000000  0.4690700000000  0.4856030000000 1.0
C      1  0.4917810000000  0.4252040000000  0.4856030000000 1.0
C      1  0.4263250000000  0.4847040000000  0.4856030000000 1.0
C      1  0.4626860000000  0.5653420000000  0.4856030000000 1.0
C      1  0.5506130000000  0.5556800000000  0.4856030000000 1.0
C      1  0.5004630000000  0.4281160000000  0.5162350000000 1.0
C      1  0.4317780000000  0.4773460000000  0.5162350000000 1.0
C      1  0.4573730000000  0.5578830000000  0.5162350000000 1.0
C      1  0.5418770000000  0.5584270000000  0.5162350000000 1.0
C      1  0.5685090000000  0.4782270000000  0.5162350000000 1.0
C      1  0.5115350000000  0.5229840000000  0.4635100000000 1.0
C      1  0.5254230000000  0.4961320000000  0.4635100000000 1.0
C      1  0.5041780000000  0.4746260000000  0.4635100000000 1.0
C      1  0.4771590000000  0.4881860000000  0.4635100000000 1.0
C      1  0.4817060000000  0.5180720000000  0.4635100000000 1.0
C      1  0.4972670000000  0.5803300000000  0.5327070000000 1.0
C      1  0.5755540000000  0.5274230000000  0.5327070000000 1.0
C      1  0.5494280000000  0.4366180000000  0.5327070000000 1.0
C      1  0.4549940000000  0.4334050000000  0.5327070000000 1.0
C      1  0.4227570000000  0.5222240000000  0.5327070000000 1.0
END
