TITL C-862128-1543-878 -0.101650716515042 125000 -360.435255309076 0 0 66 (D2) n - 1
REM
REM in /home/nfs/bkarasulu/CARBON/AIRSS/Generating-Clusters/TERSOFF/Higher-Symm/FIRE-HFTN
REM
REM
REM
REM
REM
REM ./C.cell (b20cbc046b6831c77cfcea5457e17084)
REM AIRSS Version 0.9.1 bugfix July 2018 build 013d7b7c2542+ Fri, 06 Jul 2018 19:26:36 +0100
REM compiler GCC version 9.2.1 20190827 (Red Hat 9.2.1-1)
REM options -cpp -mtune=generic -march=x86-64 -g -O0 -fpre-include=/usr/include/finclude/math-vector-fortran.h
REM seed 1096601395 -1705860782 -1977550348 1957441658 577956216 922933783 -1684244768 -1902967360 -47381041 -1521976978 -289252873 -618484218 -320899758 -827276320 -1508138864 770073412 -1846425473 -1747645477 1795398535 -1146338450 -714141743 295986911 222866526 -872067209 1517123934 -216188171 -603863739 -345080098 511823668 333348770 -1062311188 1056179502 -937528561
REM
CELL 1.54180   50.00000   50.00000   50.00000   90.00000   90.00000   90.00000
LATT -1
SFAC C  
C      1  0.4747460000000  0.4368250000000  0.4627820000000 1.0
C      1  0.4747460000000  0.5631750000000  0.5372180000000 1.0
C      1  0.5231690000000  0.5631750000000  0.4627820000000 1.0
C      1  0.5231690000000  0.4368250000000  0.5372180000000 1.0
C      1  0.5335280000000  0.5295130000000  0.4206430000000 1.0
C      1  0.5335280000000  0.4704870000000  0.5793570000000 1.0
C      1  0.4643870000000  0.4704870000000  0.4206430000000 1.0
C      1  0.4643870000000  0.5295130000000  0.5793570000000 1.0
C      1  0.4205560000000  0.5120160000000  0.5089690000000 1.0
C      1  0.4205560000000  0.4879840000000  0.4910310000000 1.0
C      1  0.5773590000000  0.4879840000000  0.5089690000000 1.0
C      1  0.5773590000000  0.5120160000000  0.4910310000000 1.0
C      1  0.5373510000000  0.4758150000000  0.4377220000000 1.0
C      1  0.5373510000000  0.5241850000000  0.5622780000000 1.0
C      1  0.4605640000000  0.5241850000000  0.4377220000000 1.0
C      1  0.4605640000000  0.4758150000000  0.5622780000000 1.0
C      1  0.4722470000000  0.4771180000000  0.5019620000000 1.0
C      1  0.4722470000000  0.5228820000000  0.4980380000000 1.0
C      1  0.5256690000000  0.5228820000000  0.5019620000000 1.0
C      1  0.5256690000000  0.4771180000000  0.4980380000000 1.0
C      1  0.4739750000000  0.4522090000000  0.5466960000000 1.0
C      1  0.4739750000000  0.5477910000000  0.4533050000000 1.0
C      1  0.5239400000000  0.5477910000000  0.5466960000000 1.0
C      1  0.5239400000000  0.4522090000000  0.4533040000000 1.0
C      1  0.4750270000000  0.5641630000000  0.5051440000000 1.0
C      1  0.4750270000000  0.4358370000000  0.4948560000000 1.0
C      1  0.5228880000000  0.4358370000000  0.5051440000000 1.0
C      1  0.5228880000000  0.5641630000000  0.4948560000000 1.0
C      1  0.5741900000000  0.4966610000000  0.5366330000000 1.0
C      1  0.5741900000000  0.5033380000000  0.4633660000000 1.0
C      1  0.4237250000000  0.5033380000000  0.5366340000000 1.0
C      1  0.4237250000000  0.4966620000000  0.4633670000000 1.0
C      1  0.5370170000000  0.5612400000000  0.5228120000000 1.0
C      1  0.5370160000000  0.4387600000000  0.4771880000000 1.0
C      1  0.4608990000000  0.4387600000000  0.5228120000000 1.0
C      1  0.4608990000000  0.5612400000000  0.4771880000000 1.0
C      1  0.4811000000000  0.4977250000000  0.4269760000000 1.0
C      1  0.4811000000000  0.5022750000000  0.5730240000000 1.0
C      1  0.5168150000000  0.5022750000000  0.4269760000000 1.0
C      1  0.5168160000000  0.4977250000000  0.5730240000000 1.0
C      1  0.4504860000000  0.4937480000000  0.5406070000000 1.0
C      1  0.4504860000000  0.5062520000000  0.4593930000000 1.0
C      1  0.5474290000000  0.5062520000000  0.5406070000000 1.0
C      1  0.5474290000000  0.4937480000000  0.4593930000000 1.0
C      1  0.4556400000000  0.4500470000000  0.4416680000000 1.0
C      1  0.4556400000000  0.5499530000000  0.5583320000000 1.0
C      1  0.5422750000000  0.5499530000000  0.4416680000000 1.0
C      1  0.5422760000000  0.4500470000000  0.5583320000000 1.0
C      1  0.5555490000000  0.4684220000000  0.5004380000000 1.0
C      1  0.5555490000000  0.5315780000000  0.4995610000000 1.0
C      1  0.4423670000000  0.5315780000000  0.5004390000000 1.0
C      1  0.4423670000000  0.4684220000000  0.4995620000000 1.0
C      1  0.5251680000000  0.4972930000000  0.5220060000000 1.0
C      1  0.5251680000000  0.5027070000000  0.4779940000000 1.0
C      1  0.4727470000000  0.5027070000000  0.5220060000000 1.0
C      1  0.4727470000000  0.4972930000000  0.4779940000000 1.0
C      1  0.5122810000000  0.5161560000000  0.4543190000000 1.0
C      1  0.5122810000000  0.4838440000000  0.5456810000000 1.0
C      1  0.4856340000000  0.4838440000000  0.4543190000000 1.0
C      1  0.4856340000000  0.5161560000000  0.5456810000000 1.0
C      1  0.5025730000000  0.4572350000000  0.5443110000000 1.0
C      1  0.5025730000000  0.5427650000000  0.4556890000000 1.0
C      1  0.4953420000000  0.5427650000000  0.5443110000000 1.0
C      1  0.4953420000000  0.4572350000000  0.4556890000000 1.0
C      1  0.4989580000000  0.5428160000000  0.5000000000000 1.0
C      1  0.4989580000000  0.4571840000000  0.5000000000000 1.0
END
