TITL C-862507-1800-189 4.71447360414963 125000 -469.23489807602 0 0 82 (Ci) n - 1
REM
REM in /home/nfs/bkarasulu/CARBON/AIRSS/Generating-Clusters/TERSOFF/Higher-Symm/FIRE-HFTN
REM
REM
REM
REM
REM
REM ./C.cell (b20cbc046b6831c77cfcea5457e17084)
REM AIRSS Version 0.9.1 bugfix July 2018 build 013d7b7c2542+ Fri, 06 Jul 2018 19:26:36 +0100
REM compiler GCC version 9.2.1 20190827 (Red Hat 9.2.1-1)
REM options -cpp -mtune=generic -march=x86-64 -g -O0 -fpre-include=/usr/include/finclude/math-vector-fortran.h
REM seed -958005751 363592276 -620865312 -519665860 -1574680788 -937393148 -1735138967 -496938202 -2040977534 -1411145548 1429259169 722768887 -1954478962 -345618986 -683536946 -1628177762 -250005093 -1940226512 1386380252 1966512269 -1847917819 569186547 -1831176624 -1055413596 2091175393 -986781781 1338339007 -1341249259 -495213001 499569908 -1313068110 1944576394 1027995275
REM
CELL 1.54180   50.00000   50.00000   50.00000   90.00000   90.00000   90.00000
LATT -1
SFAC C  
C      1  0.4399250000000  0.5604630000000  0.5036510000000 1.0
C      1  0.5600750000000  0.4395370000000  0.4963490000000 1.0
C      1  0.5215040000000  0.4828220000000  0.4915860000000 1.0
C      1  0.4784960000000  0.5171780000000  0.5084140000000 1.0
C      1  0.5047530000000  0.4292790000000  0.5199620000000 1.0
C      1  0.4952470000000  0.5707210000000  0.4800380000000 1.0
C      1  0.4562440000000  0.5223010000000  0.5360270000000 1.0
C      1  0.5437560000000  0.4776990000000  0.4639730000000 1.0
C      1  0.5485140000000  0.5522630000000  0.4322180000000 1.0
C      1  0.4514860000000  0.4477370000000  0.5677820000000 1.0
C      1  0.5053650000000  0.4364890000000  0.5678750000000 1.0
C      1  0.4946350000000  0.5635110000000  0.4321250000000 1.0
C      1  0.4475270000000  0.4413940000000  0.4901660000000 1.0
C      1  0.5524730000000  0.5586060000000  0.5098340000000 1.0
C      1  0.4994520000000  0.4950060000000  0.5974430000000 1.0
C      1  0.5005480000000  0.5049940000000  0.4025570000000 1.0
C      1  0.5272540000000  0.5539810000000  0.5239090000000 1.0
C      1  0.4727460000000  0.4460190000000  0.4760910000000 1.0
C      1  0.5585020000000  0.4389450000000  0.4349430000000 1.0
C      1  0.4414980000000  0.5610550000000  0.5650570000000 1.0
C      1  0.4432190000000  0.4977710000000  0.5564090000000 1.0
C      1  0.5567810000000  0.5022290000000  0.4435910000000 1.0
C      1  0.5103300000000  0.4424430000000  0.4944550000000 1.0
C      1  0.4896700000000  0.5575570000000  0.5055450000000 1.0
C      1  0.4363550000000  0.5173210000000  0.5082850000000 1.0
C      1  0.5636450000000  0.4826790000000  0.4917150000000 1.0
C      1  0.4763080000000  0.4232960000000  0.5308310000000 1.0
C      1  0.5236920000000  0.5767040000000  0.4691690000000 1.0
C      1  0.4930500000000  0.4686110000000  0.4851970000000 1.0
C      1  0.5069500000000  0.5313890000000  0.5148030000000 1.0
C      1  0.4585550000000  0.4583830000000  0.4385870000000 1.0
C      1  0.5414450000000  0.5416170000000  0.5614130000000 1.0
C      1  0.4304200000000  0.4654230000000  0.4878630000000 1.0
C      1  0.5695800000000  0.5345770000000  0.5121370000000 1.0
C      1  0.5236770000000  0.5695670000000  0.4390080000000 1.0
C      1  0.4763230000000  0.4304330000000  0.5609920000000 1.0
C      1  0.4497180000000  0.4312490000000  0.5185040000000 1.0
C      1  0.5502820000000  0.5687510000000  0.4814960000000 1.0
C      1  0.4936630000000  0.4765380000000  0.5503170000000 1.0
C      1  0.5063370000000  0.5234620000000  0.4496830000000 1.0
C      1  0.5226700000000  0.4338580000000  0.5434320000000 1.0
C      1  0.4773300000000  0.5661420000000  0.4565680000000 1.0
C      1  0.4603390000000  0.5184970000000  0.4342020000000 1.0
C      1  0.5396610000000  0.4815030000000  0.5657980000000 1.0
C      1  0.5633690000000  0.4622390000000  0.5178170000000 1.0
C      1  0.4366310000000  0.5377610000000  0.4821830000000 1.0
C      1  0.4432110000000  0.4759850000000  0.5347340000000 1.0
C      1  0.5567890000000  0.5240150000000  0.4652660000000 1.0
C      1  0.5262240000000  0.5261880000000  0.4701440000000 1.0
C      1  0.4737760000000  0.4738120000000  0.5298560000000 1.0
C      1  0.4915230000000  0.5552850000000  0.5602190000000 1.0
C      1  0.5084770000000  0.4447150000000  0.4397810000000 1.0
C      1  0.4418030000000  0.4869280000000  0.5046450000000 1.0
C      1  0.5581970000000  0.5130720000000  0.4953550000000 1.0
C      1  0.5086410000000  0.5224060000000  0.5956110000000 1.0
C      1  0.4913590000000  0.4775940000000  0.4043890000000 1.0
C      1  0.4632750000000  0.5504490000000  0.5480680000000 1.0
C      1  0.5367250000000  0.4495510000000  0.4519320000000 1.0
C      1  0.4843860000000  0.4812920000000  0.5770240000000 1.0
C      1  0.5156140000000  0.5187080000000  0.4229760000000 1.0
C      1  0.5646020000000  0.5235250000000  0.5651130000000 1.0
C      1  0.4353980000000  0.4764750000000  0.4348870000000 1.0
C      1  0.5510970000000  0.4418600000000  0.5412980000000 1.0
C      1  0.4489030000000  0.5581400000000  0.4587020000000 1.0
C      1  0.5357990000000  0.4378530000000  0.4802850000000 1.0
C      1  0.4642010000000  0.5621470000000  0.5197150000000 1.0
C      1  0.5326400000000  0.4712110000000  0.5176010000000 1.0
C      1  0.4673600000000  0.5287890000000  0.4823990000000 1.0
C      1  0.4556780000000  0.4770800000000  0.5776280000000 1.0
C      1  0.5443220000000  0.5229200000000  0.4223720000000 1.0
C      1  0.4868090000000  0.4630540000000  0.4293730000000 1.0
C      1  0.5131910000000  0.5369460000000  0.5706270000000 1.0
C      1  0.5213400000000  0.4758180000000  0.5446660000000 1.0
C      1  0.4786600000000  0.5241820000000  0.4553340000000 1.0
C      1  0.5641810000000  0.4947700000000  0.5602820000000 1.0
C      1  0.4358190000000  0.5052300000000  0.4397180000000 1.0
C      1  0.4215170000000  0.5179890000000  0.4622300000000 1.0
C      1  0.5784830000000  0.4820110000000  0.5377700000000 1.0
C      1  0.4761670000000  0.4862930000000  0.5033990000000 1.0
C      1  0.5238330000000  0.5137070000000  0.4966010000000 1.0
C      1  0.5645790000000  0.5525410000000  0.4591400000000 1.0
C      1  0.4354210000000  0.4474590000000  0.5408600000000 1.0
END
