TITL C-862505-1648-268 6.07039523831593e-07 125000 -121.881781731231 0 0 24 (D3d) n - 1
REM
REM in /home/nfs/bkarasulu/CARBON/AIRSS/Generating-Clusters/TERSOFF/Higher-Symm/FIRE-HFTN
REM
REM
REM
REM
REM
REM ./C.cell (b20cbc046b6831c77cfcea5457e17084)
REM AIRSS Version 0.9.1 bugfix July 2018 build 013d7b7c2542+ Fri, 06 Jul 2018 19:26:36 +0100
REM compiler GCC version 9.2.1 20190827 (Red Hat 9.2.1-1)
REM options -cpp -mtune=generic -march=x86-64 -g -O0 -fpre-include=/usr/include/finclude/math-vector-fortran.h
REM seed 1903813667 -543090922 49397109 -877707821 729234696 1809310907 -547177781 -2060021652 -1988712156 709175112 -1608424889 1970031533 -2050156793 506881050 1455184200 -684276288 -340233421 -1476887653 -502156516 911235502 214315576 -229968592 1739443884 -966760902 -2064145688 1171952092 2054642988 343993229 -413765408 1925463129 -1844343260 -1008338759 -1326219663
REM
CELL 1.54180   50.00000   50.00000   50.00000   90.00000   90.00000   90.00000
LATT -1
SFAC C  
C      1  0.4338450000000  0.4789440000000  0.5173100000000 1.0
C      1  0.5148420000000  0.5678200000000  0.5173100000000 1.0
C      1  0.5513120000000  0.4532370000000  0.5173100000000 1.0
C      1  0.4338450000000  0.5210560000000  0.4826900000000 1.0
C      1  0.5148420000000  0.4321800000000  0.4826900000000 1.0
C      1  0.5513120000000  0.5467630000000  0.4826900000000 1.0
C      1  0.5661550000000  0.5210560000000  0.4826900000000 1.0
C      1  0.4851580000000  0.4321800000000  0.4826900000000 1.0
C      1  0.4486880000000  0.5467630000000  0.4826900000000 1.0
C      1  0.5661550000000  0.4789440000000  0.5173100000000 1.0
C      1  0.4851580000000  0.5678200000000  0.5173100000000 1.0
C      1  0.4486880000000  0.4532370000000  0.5173100000000 1.0
C      1  0.5524130000000  0.5000000000000  0.5000000000000 1.0
C      1  0.4475870000000  0.5000000000000  0.5000000000000 1.0
C      1  0.4737940000000  0.5453910000000  0.5000000000000 1.0
C      1  0.4737940000000  0.4546090000000  0.5000000000000 1.0
C      1  0.5262060000000  0.4546090000000  0.5000000000000 1.0
C      1  0.5262060000000  0.5453910000000  0.5000000000000 1.0
C      1  0.5342230000000  0.4802410000000  0.4856380000000 1.0
C      1  0.4657770000000  0.5197590000000  0.5143620000000 1.0
C      1  0.5342230000000  0.5197590000000  0.5143620000000 1.0
C      1  0.4657770000000  0.4802410000000  0.4856380000000 1.0
C      1  0.5000000000000  0.4604830000000  0.5143620000000 1.0
C      1  0.5000000000000  0.5395170000000  0.4856380000000 1.0
END
