TITL C-862131-2149-504 -56.1091652420232 125000 -1063.37217253749 0 0 186 (Ci) n - 1
REM
REM in /home/nfs/bkarasulu/CARBON/AIRSS/Generating-Clusters/TERSOFF/Higher-Symm/FIRE-HFTN
REM
REM
REM
REM
REM
REM ./C.cell (b20cbc046b6831c77cfcea5457e17084)
REM AIRSS Version 0.9.1 bugfix July 2018 build 013d7b7c2542+ Fri, 06 Jul 2018 19:26:36 +0100
REM compiler GCC version 9.2.1 20190827 (Red Hat 9.2.1-1)
REM options -cpp -mtune=generic -march=x86-64 -g -O0 -fpre-include=/usr/include/finclude/math-vector-fortran.h
REM seed 1293819043 -1987562857 38821997 1028330417 -1963976721 1261373350 -2133404550 -350672191 986190144 -194872872 -1024204811 -659331987 137576501 -1808438348 1434873436 -1353657986 -1906867995 -1730389837 1277862954 949853782 1260129813 1483488903 -718274044 -1486084528 939206696 -1586672570 -625075323 -1654665684 -13653299 1333355579 -1217481104 -1409024681 -1042163890
REM
CELL 1.54180   50.00000   50.00000   50.00000   90.00000   90.00000   90.00000
LATT -1
SFAC C  
C      1  0.5625270000000  0.4057560000000  0.4958680000000 1.0
C      1  0.4374730000000  0.5942440000000  0.5041320000000 1.0
C      1  0.4485860000000  0.5465630000000  0.4877290000000 1.0
C      1  0.5514140000000  0.4534370000000  0.5122710000000 1.0
C      1  0.4580650000000  0.4381490000000  0.4067730000000 1.0
C      1  0.5419350000000  0.5618510000000  0.5932270000000 1.0
C      1  0.5748700000000  0.4445070000000  0.4683110000000 1.0
C      1  0.4251300000000  0.5554930000000  0.5316890000000 1.0
C      1  0.4267560000000  0.4605080000000  0.5214960000000 1.0
C      1  0.5732440000000  0.5394920000000  0.4785040000000 1.0
C      1  0.4795360000000  0.5568850000000  0.4093630000000 1.0
C      1  0.5204640000000  0.4431150000000  0.5906370000000 1.0
C      1  0.4443850000000  0.4431320000000  0.5834970000000 1.0
C      1  0.5556150000000  0.5568680000000  0.4165030000000 1.0
C      1  0.4629120000000  0.4146090000000  0.4289190000000 1.0
C      1  0.5370880000000  0.5853910000000  0.5710810000000 1.0
C      1  0.5081800000000  0.5889630000000  0.4959240000000 1.0
C      1  0.4918200000000  0.4110370000000  0.5040760000000 1.0
C      1  0.5491020000000  0.5844980000000  0.4332090000000 1.0
C      1  0.4508980000000  0.4155020000000  0.5667910000000 1.0
C      1  0.4087960000000  0.4405010000000  0.5319830000000 1.0
C      1  0.5912040000000  0.5594990000000  0.4680170000000 1.0
C      1  0.4367380000000  0.5424920000000  0.4355250000000 1.0
C      1  0.5632620000000  0.4575080000000  0.5644750000000 1.0
C      1  0.4456780000000  0.5041560000000  0.4552530000000 1.0
C      1  0.5543220000000  0.4958440000000  0.5447470000000 1.0
C      1  0.5247870000000  0.4161760000000  0.4611880000000 1.0
C      1  0.4752130000000  0.5838240000000  0.5388120000000 1.0
C      1  0.5201720000000  0.5194780000000  0.6153170000000 1.0
C      1  0.4798280000000  0.4805220000000  0.3846830000000 1.0
C      1  0.5601790000000  0.5429530000000  0.5035340000000 1.0
C      1  0.4398210000000  0.4570470000000  0.4964660000000 1.0
C      1  0.5439520000000  0.5954400000000  0.5395250000000 1.0
C      1  0.4560480000000  0.4045600000000  0.4604750000000 1.0
C      1  0.5760160000000  0.5048230000000  0.4176760000000 1.0
C      1  0.4239840000000  0.4951770000000  0.5823240000000 1.0
C      1  0.5035810000000  0.3883530000000  0.4226340000000 1.0
C      1  0.4964170000000  0.6116470000000  0.5773660000000 1.0
C      1  0.4985400000000  0.4506360000000  0.4310230000000 1.0
C      1  0.5014600000000  0.5493640000000  0.5689770000000 1.0
C      1  0.4402340000000  0.4625230000000  0.4548760000000 1.0
C      1  0.5597660000000  0.5374770000000  0.5451240000000 1.0
C      1  0.3953000000000  0.5085820000000  0.4645620000000 1.0
C      1  0.6047000000000  0.4914180000000  0.5354380000000 1.0
C      1  0.5208360000000  0.5724800000000  0.4766360000000 1.0
C      1  0.4791640000000  0.4275200000000  0.5233640000000 1.0
C      1  0.4792200000000  0.4792180000000  0.6002860000000 1.0
C      1  0.5207800000000  0.5207820000000  0.3997140000000 1.0
C      1  0.4687420000000  0.5093540000000  0.6096220000000 1.0
C      1  0.5312580000000  0.4906460000000  0.3903780000000 1.0
C      1  0.4779000000000  0.5336960000000  0.4574780000000 1.0
C      1  0.5221000000000  0.4663040000000  0.5425220000000 1.0
C      1  0.5188590000000  0.4570610000000  0.3948660000000 1.0
C      1  0.4811410000000  0.5429390000000  0.6051340000000 1.0
C      1  0.5023220000000  0.4661890000000  0.5183140000000 1.0
C      1  0.4976780000000  0.5338110000000  0.4816860000000 1.0
C      1  0.5530170000000  0.5042630000000  0.5732600000000 1.0
C      1  0.4469830000000  0.4957370000000  0.4267400000000 1.0
C      1  0.5394480000000  0.4640170000000  0.4469890000000 1.0
C      1  0.4605520000000  0.5359830000000  0.5530110000000 1.0
C      1  0.4392150000000  0.4020510000000  0.5354320000000 1.0
C      1  0.5607850000000  0.5979490000000  0.4645680000000 1.0
C      1  0.4979220000000  0.5824380000000  0.4098760000000 1.0
C      1  0.5020780000000  0.4175620000000  0.5901240000000 1.0
C      1  0.4906560000000  0.6070160000000  0.5493820000000 1.0
C      1  0.5093440000000  0.3929840000000  0.4506180000000 1.0
C      1  0.3998520000000  0.4366280000000  0.4737630000000 1.0
C      1  0.6001480000000  0.5633720000000  0.5262370000000 1.0
C      1  0.5403510000000  0.5032980000000  0.4708470000000 1.0
C      1  0.4596490000000  0.4967020000000  0.5291530000000 1.0
C      1  0.5417720000000  0.4750900000000  0.4724040000000 1.0
C      1  0.4582280000000  0.5249100000000  0.5275960000000 1.0
C      1  0.4346850000000  0.5444390000000  0.5849610000000 1.0
C      1  0.5653150000000  0.4555610000000  0.4150390000000 1.0
C      1  0.5891950000000  0.4246650000000  0.5506930000000 1.0
C      1  0.4108060000000  0.5753350000000  0.4493070000000 1.0
C      1  0.5044430000000  0.5136710000000  0.5016260000000 1.0
C      1  0.4955570000000  0.4863290000000  0.4983740000000 1.0
C      1  0.5248950000000  0.4396460000000  0.4402230000000 1.0
C      1  0.4751050000000  0.5603540000000  0.5597770000000 1.0
C      1  0.4507810000000  0.5628350000000  0.4194290000000 1.0
C      1  0.5492190000000  0.4371650000000  0.5805710000000 1.0
C      1  0.3905980000000  0.5400200000000  0.4822460000000 1.0
C      1  0.6094020000000  0.4599800000000  0.5177540000000 1.0
C      1  0.4806660000000  0.4789480000000  0.4751780000000 1.0
C      1  0.5193340000000  0.5210520000000  0.5248220000000 1.0
C      1  0.4580970000000  0.4153380000000  0.6177170000000 1.0
C      1  0.5419030000000  0.5846620000000  0.3822830000000 1.0
C      1  0.5859500000000  0.5026220000000  0.4452150000000 1.0
C      1  0.4140500000000  0.4973780000000  0.5547850000000 1.0
C      1  0.4944500000000  0.4812580000000  0.4283600000000 1.0
C      1  0.5055500000000  0.5187420000000  0.5716400000000 1.0
C      1  0.5384930000000  0.4400510000000  0.4125180000000 1.0
C      1  0.4615070000000  0.5599490000000  0.5874820000000 1.0
C      1  0.4651780000000  0.4638370000000  0.5792570000000 1.0
C      1  0.5348220000000  0.5361630000000  0.4207430000000 1.0
C      1  0.4354390000000  0.5352680000000  0.5113010000000 1.0
C      1  0.5645610000000  0.4647320000000  0.4886990000000 1.0
C      1  0.4825520000000  0.4619360000000  0.5566300000000 1.0
C      1  0.5174480000000  0.5380640000000  0.4433700000000 1.0
C      1  0.5530900000000  0.5734660000000  0.5168010000000 1.0
C      1  0.4469100000000  0.4265340000000  0.4831990000000 1.0
C      1  0.4784760000000  0.4356770000000  0.4433810000000 1.0
C      1  0.5215250000000  0.5643230000000  0.5566190000000 1.0
C      1  0.5516510000000  0.4676690000000  0.5397960000000 1.0
C      1  0.4483490000000  0.5323310000000  0.4602040000000 1.0
C      1  0.5954610000000  0.4337700000000  0.5235550000000 1.0
C      1  0.4045400000000  0.5662300000000  0.4764450000000 1.0
C      1  0.4001360000000  0.5231540000000  0.5469040000000 1.0
C      1  0.5998640000000  0.4768460000000  0.4530960000000 1.0
C      1  0.4953360000000  0.4931650000000  0.4539690000000 1.0
C      1  0.5046640000000  0.5068350000000  0.5460310000000 1.0
C      1  0.3972850000000  0.5009770000000  0.4958310000000 1.0
C      1  0.6027150000000  0.4990230000000  0.5041690000000 1.0
C      1  0.5191110000000  0.6169870000000  0.4991050000000 1.0
C      1  0.4808890000000  0.3830130000000  0.5008950000000 1.0
C      1  0.4741450000000  0.4973670000000  0.4098110000000 1.0
C      1  0.5258550000000  0.5026330000000  0.5901890000000 1.0
C      1  0.5621970000000  0.4157890000000  0.5598830000000 1.0
C      1  0.4378030000000  0.5842110000000  0.4401170000000 1.0
C      1  0.5165970000000  0.5487900000000  0.6081210000000 1.0
C      1  0.4834030000000  0.4512100000000  0.3918790000000 1.0
C      1  0.5072190000000  0.5635220000000  0.4536300000000 1.0
C      1  0.4927810000000  0.4364780000000  0.5463700000000 1.0
C      1  0.5482130000000  0.5730340000000  0.4751250000000 1.0
C      1  0.4517870000000  0.4269660000000  0.5248750000000 1.0
C      1  0.5691640000000  0.5477230000000  0.5941000000000 1.0
C      1  0.4308360000000  0.4522770000000  0.4059000000000 1.0
C      1  0.5526860000000  0.4082850000000  0.4684750000000 1.0
C      1  0.4473140000000  0.5917150000000  0.5315250000000 1.0
C      1  0.5189030000000  0.4256380000000  0.5525040000000 1.0
C      1  0.4810970000000  0.5743620000000  0.4474960000000 1.0
C      1  0.4661860000000  0.4473430000000  0.4653350000000 1.0
C      1  0.5338140000000  0.5526570000000  0.5346650000000 1.0
C      1  0.5298380000000  0.6181190000000  0.5273040000000 1.0
C      1  0.4701620000000  0.3818810000000  0.4726960000000 1.0
C      1  0.4382070000000  0.4364680000000  0.6121600000000 1.0
C      1  0.5617930000000  0.5635320000000  0.3878400000000 1.0
C      1  0.4976750000000  0.4091010000000  0.4033360000000 1.0
C      1  0.5023250000000  0.5909000000000  0.5966650000000 1.0
C      1  0.4308140000000  0.4864120000000  0.5324590000000 1.0
C      1  0.5691860000000  0.5135880000000  0.4675410000000 1.0
C      1  0.4489860000000  0.4835120000000  0.4777910000000 1.0
C      1  0.5510140000000  0.5164880000000  0.5222090000000 1.0
C      1  0.4853950000000  0.5764890000000  0.5099540000000 1.0
C      1  0.5146050000000  0.4235110000000  0.4900460000000 1.0
C      1  0.5464620000000  0.3898180000000  0.5155870000000 1.0
C      1  0.4535380000000  0.6101820000000  0.4844130000000 1.0
C      1  0.5152890000000  0.5149390000000  0.4610830000000 1.0
C      1  0.4847110000000  0.4850610000000  0.5389170000000 1.0
C      1  0.5606710000000  0.4837130000000  0.4043770000000 1.0
C      1  0.4393290000000  0.5162870000000  0.5956230000000 1.0
C      1  0.4122770000000  0.4134240000000  0.5206760000000 1.0
C      1  0.5877230000000  0.5865760000000  0.4793240000000 1.0
C      1  0.5096470000000  0.4739810000000  0.5966600000000 1.0
C      1  0.4903530000000  0.5260190000000  0.4033400000000 1.0
C      1  0.5891690000000  0.4156300000000  0.5019970000000 1.0
C      1  0.4108310000000  0.5843700000000  0.4980030000000 1.0
C      1  0.4558330000000  0.3791280000000  0.5216190000000 1.0
C      1  0.5441670000000  0.6208720000000  0.4783810000000 1.0
C      1  0.4726470000000  0.4107140000000  0.5919590000000 1.0
C      1  0.5273530000000  0.5892860000000  0.4080410000000 1.0
C      1  0.4978910000000  0.6372220000000  0.4924370000000 1.0
C      1  0.5021090000000  0.3627780000000  0.5075630000000 1.0
C      1  0.5466810000000  0.3949680000000  0.5453870000000 1.0
C      1  0.4533190000000  0.6050310000000  0.4546130000000 1.0
C      1  0.6013990000000  0.5179910000000  0.5570480000000 1.0
C      1  0.3986010000000  0.4820090000000  0.4429520000000 1.0
C      1  0.4689420000000  0.6330620000000  0.4952480000000 1.0
C      1  0.5310580000000  0.3669380000000  0.5047520000000 1.0
C      1  0.4115340000000  0.4559420000000  0.4544310000000 1.0
C      1  0.5884660000000  0.5440580000000  0.5455690000000 1.0
C      1  0.5843840000000  0.4526200000000  0.4407600000000 1.0
C      1  0.4156160000000  0.5473800000000  0.5592400000000 1.0
C      1  0.3863770000000  0.5260340000000  0.5154510000000 1.0
C      1  0.6136230000000  0.4739660000000  0.4845490000000 1.0
C      1  0.5769510000000  0.4937590000000  0.4896910000000 1.0
C      1  0.4230490000000  0.5062410000000  0.5103090000000 1.0
C      1  0.4767040000000  0.5527410000000  0.4948910000000 1.0
C      1  0.5232960000000  0.4472590000000  0.5051090000000 1.0
C      1  0.4950170000000  0.5105290000000  0.6279510000000 1.0
C      1  0.5049830000000  0.4894710000000  0.3720490000000 1.0
C      1  0.5755850000000  0.5213990000000  0.5805430000000 1.0
C      1  0.4244150000000  0.4786010000000  0.4194570000000 1.0
C      1  0.4173080000000  0.4191790000000  0.4906710000000 1.0
C      1  0.5826920000000  0.5808210000000  0.5093290000000 1.0
END
