TITL C-862128-1543-518 -0.00973778333611039 125000 -1070.56825291314 0 0 187 (C2) n - 1
REM
REM in /home/nfs/bkarasulu/CARBON/AIRSS/Generating-Clusters/TERSOFF/Higher-Symm/FIRE-HFTN
REM
REM
REM
REM
REM
REM ./C.cell (b20cbc046b6831c77cfcea5457e17084)
REM AIRSS Version 0.9.1 bugfix July 2018 build 013d7b7c2542+ Fri, 06 Jul 2018 19:26:36 +0100
REM compiler GCC version 9.2.1 20190827 (Red Hat 9.2.1-1)
REM options -cpp -mtune=generic -march=x86-64 -g -O0 -fpre-include=/usr/include/finclude/math-vector-fortran.h
REM seed 1370620327 1894476257 -276846535 1759374148 -1790320001 -588269212 199493261 -589936291 1226757658 469535347 1228102376 -948355930 1954261127 -1101301488 1693103035 211045966 -1033529576 -1393756843 -616221961 -698625805 492731883 -2142754158 -2079098787 63553569 -876096766 -783840850 -238990376 1329132734 -1703533904 -1565267465 2144005994 -1395023530 1886053321
REM
CELL 1.54180   50.00000   50.00000   50.00000   90.00000   90.00000   90.00000
LATT -1
SFAC C  
C      1  0.4642680000000  0.4284970000000  0.5870560000000 1.0
C      1  0.4642690000000  0.5713520000000  0.4124990000000 1.0
C      1  0.5589910000000  0.4202010000000  0.4379110000000 1.0
C      1  0.5589900000000  0.5796480000000  0.5616460000000 1.0
C      1  0.5405230000000  0.6006740000000  0.5488570000000 1.0
C      1  0.5405240000000  0.3991750000000  0.4506990000000 1.0
C      1  0.6159820000000  0.4658130000000  0.5341330000000 1.0
C      1  0.6159820000000  0.5340370000000  0.4654240000000 1.0
C      1  0.5148030000000  0.3919050000000  0.5307700000000 1.0
C      1  0.5148030000000  0.6079440000000  0.4687860000000 1.0
C      1  0.4330200000000  0.5902210000000  0.4933390000000 1.0
C      1  0.4330200000000  0.4096290000000  0.5062160000000 1.0
C      1  0.4248440000000  0.4796690000000  0.4751610000000 1.0
C      1  0.4248440000000  0.5201800000000  0.5243940000000 1.0
C      1  0.5021780000000  0.4689160000000  0.3848440000000 1.0
C      1  0.5021770000000  0.5309330000000  0.6147120000000 1.0
C      1  0.5490760000000  0.4529070000000  0.5287730000000 1.0
C      1  0.5490760000000  0.5469430000000  0.4707840000000 1.0
C      1  0.5395350000000  0.4961760000000  0.5629420000000 1.0
C      1  0.5395360000000  0.5036730000000  0.4366140000000 1.0
C      1  0.4662590000000  0.5275590000000  0.5694110000000 1.0
C      1  0.4662600000000  0.4722900000000  0.4301440000000 1.0
C      1  0.4774750000000  0.5158220000000  0.4348960000000 1.0
C      1  0.4774750000000  0.4840280000000  0.5646590000000 1.0
C      1  0.3980670000000  0.5321290000000  0.4807480000000 1.0
C      1  0.3980670000000  0.4677200000000  0.5188060000000 1.0
C      1  0.5676350000000  0.4569910000000  0.5742210000000 1.0
C      1  0.5676360000000  0.5428590000000  0.4253360000000 1.0
C      1  0.5290270000000  0.4862730000000  0.6073770000000 1.0
C      1  0.5290280000000  0.5135760000000  0.3921790000000 1.0
C      1  0.4946320000000  0.4436920000000  0.3981700000000 1.0
C      1  0.4946310000000  0.5561580000000  0.6013860000000 1.0
C      1  0.6023860000000  0.4366810000000  0.5248250000000 1.0
C      1  0.6023860000000  0.5631680000000  0.4747320000000 1.0
C      1  0.5469510000000  0.5646890000000  0.5850350000000 1.0
C      1  0.5469520000000  0.4351610000000  0.4145210000000 1.0
C      1  0.4240030000000  0.4796970000000  0.5645240000000 1.0
C      1  0.4240040000000  0.5201520000000  0.4350310000000 1.0
C      1  0.4000650000000  0.4499050000000  0.4457340000000 1.0
C      1  0.4000650000000  0.5499440000000  0.5538210000000 1.0
C      1  0.5097510000000  0.5846900000000  0.5594710000000 1.0
C      1  0.5097520000000  0.4151600000000  0.4400850000000 1.0
C      1  0.5440220000000  0.4126200000000  0.5666390000000 1.0
C      1  0.5440230000000  0.5872300000000  0.4329170000000 1.0
C      1  0.5681460000000  0.4288730000000  0.5644750000000 1.0
C      1  0.5681460000000  0.5709770000000  0.4350810000000 1.0
C      1  0.4898680000000  0.5080830000000  0.5769370000000 1.0
C      1  0.4898690000000  0.4917660000000  0.4226190000000 1.0
C      1  0.5385770000000  0.4702660000000  0.5813020000000 1.0
C      1  0.5385780000000  0.5295830000000  0.4182540000000 1.0
C      1  0.4987330000000  0.4756610000000  0.4761230000000 1.0
C      1  0.4987330000000  0.5241880000000  0.5234330000000 1.0
C      1  0.4505600000000  0.4914540000000  0.4079250000000 1.0
C      1  0.4505590000000  0.5083960000000  0.5916300000000 1.0
C      1  0.3984680000000  0.4819380000000  0.4578150000000 1.0
C      1  0.3984670000000  0.5179120000000  0.5417400000000 1.0
C      1  0.5711300000000  0.4396000000000  0.4561310000000 1.0
C      1  0.5711300000000  0.5602500000000  0.5434250000000 1.0
C      1  0.5904650000000  0.5257390000000  0.4408240000000 1.0
C      1  0.5904640000000  0.4741110000000  0.5587330000000 1.0
C      1  0.5055280000000  0.5055630000000  0.4734680000000 1.0
C      1  0.5055270000000  0.4942870000000  0.5260880000000 1.0
C      1  0.4676910000000  0.5359570000000  0.4800890000000 1.0
C      1  0.4676910000000  0.4638920000000  0.5194660000000 1.0
C      1  0.5903350000000  0.4340290000000  0.4959870000000 1.0
C      1  0.5903350000000  0.5658200000000  0.5035700000000 1.0
C      1  0.4554840000000  0.5319910000000  0.5353270000000 1.0
C      1  0.4554850000000  0.4678590000000  0.4642280000000 1.0
C      1  0.5077190000000  0.4607780000000  0.5009420000000 1.0
C      1  0.5077190000000  0.5390710000000  0.4986140000000 1.0
C      1  0.5130610000000  0.5356040000000  0.5470080000000 1.0
C      1  0.5130620000000  0.4642460000000  0.4525480000000 1.0
C      1  0.4425410000000  0.5699400000000  0.5771910000000 1.0
C      1  0.4425420000000  0.4299090000000  0.4223650000000 1.0
C      1  0.4303420000000  0.5700310000000  0.4222380000000 1.0
C      1  0.4303420000000  0.4298180000000  0.5773170000000 1.0
C      1  0.4181270000000  0.4504880000000  0.4209270000000 1.0
C      1  0.4181260000000  0.5493620000000  0.5786280000000 1.0
C      1  0.4810810000000  0.4929860000000  0.3887530000000 1.0
C      1  0.4810800000000  0.5068630000000  0.6108030000000 1.0
C      1  0.5253700000000  0.4828420000000  0.3980380000000 1.0
C      1  0.5253680000000  0.5170080000000  0.6015180000000 1.0
C      1  0.4814430000000  0.5824130000000  0.5433030000000 1.0
C      1  0.4814440000000  0.4174370000000  0.4562520000000 1.0
C      1  0.5629460000000  0.5167580000000  0.5646700000000 1.0
C      1  0.5629460000000  0.4830910000000  0.4348870000000 1.0
C      1  0.4848980000000  0.3849270000000  0.5228770000000 1.0
C      1  0.4848980000000  0.6149220000000  0.4766790000000 1.0
C      1  0.5080360000000  0.4433770000000  0.5440840000000 1.0
C      1  0.5080360000000  0.5564720000000  0.4554720000000 1.0
C      1  0.4876650000000  0.4727370000000  0.5388350000000 1.0
C      1  0.4876660000000  0.5271130000000  0.4607210000000 1.0
C      1  0.5631270000000  0.5828040000000  0.5091080000000 1.0
C      1  0.5631280000000  0.4170460000000  0.4904490000000 1.0
C      1  0.4216220000000  0.5653710000000  0.4510050000000 1.0
C      1  0.4216220000000  0.4344790000000  0.5485500000000 1.0
C      1  0.6060440000000  0.5178480000000  0.5335220000000 1.0
C      1  0.6060440000000  0.4820020000000  0.4660350000000 1.0
C      1  0.5158740000000  0.5716030000000  0.5869260000000 1.0
C      1  0.5158750000000  0.4282470000000  0.4126300000000 1.0
C      1  0.5209780000000  0.5852560000000  0.4507900000000 1.0
C      1  0.5209780000000  0.4145930000000  0.5487660000000 1.0
C      1  0.5322290000000  0.5091720000000  0.4639460000000 1.0
C      1  0.5322280000000  0.4906780000000  0.5356100000000 1.0
C      1  0.4678680000000  0.4477830000000  0.4114580000000 1.0
C      1  0.4678670000000  0.5520660000000  0.5880980000000 1.0
C      1  0.5250510000000  0.5619060000000  0.5444580000000 1.0
C      1  0.5250510000000  0.4379430000000  0.4550980000000 1.0
C      1  0.5596090000000  0.4627560000000  0.4116570000000 1.0
C      1  0.5596080000000  0.5370940000000  0.5878990000000 1.0
C      1  0.4503740000000  0.5207720000000  0.4205870000000 1.0
C      1  0.4503730000000  0.4790780000000  0.5789680000000 1.0
C      1  0.4851530000000  0.4098940000000  0.4828890000000 1.0
C      1  0.4851520000000  0.5899550000000  0.5166670000000 1.0
C      1  0.5899120000000  0.5048670000000  0.5577090000000 1.0
C      1  0.5899130000000  0.4949830000000  0.4418480000000 1.0
C      1  0.4951080000000  0.5611780000000  0.4057510000000 1.0
C      1  0.4951070000000  0.4386710000000  0.5938050000000 1.0
C      1  0.4552950000000  0.4570180000000  0.5972940000000 1.0
C      1  0.4552960000000  0.5428310000000  0.4022610000000 1.0
C      1  0.4148100000000  0.4585250000000  0.4957330000000 1.0
C      1  0.4148100000000  0.5413240000000  0.5038210000000 1.0
C      1  0.5182510000000  0.4829810000000  0.4287040000000 1.0
C      1  0.5182500000000  0.5168680000000  0.5708520000000 1.0
C      1  0.4341240000000  0.4890900000000  0.5181350000000 1.0
C      1  0.4341240000000  0.5107600000000  0.4814200000000 1.0
C      1  0.4266700000000  0.4103330000000  0.4423500000000 1.0
C      1  0.4266690000000  0.5895170000000  0.5572050000000 1.0
C      1  0.3958310000000  0.5789520000000  0.4567890000000 1.0
C      1  0.3958310000000  0.4208980000000  0.5427650000000 1.0
C      1  0.4088320000000  0.4247640000000  0.4612970000000 1.0
C      1  0.4088320000000  0.5750850000000  0.5382580000000 1.0
C      1  0.4207860000000  0.5355320000000  0.4594040000000 1.0
C      1  0.4207860000000  0.4643180000000  0.5401510000000 1.0
C      1  0.5608420000000  0.4664990000000  0.4593350000000 1.0
C      1  0.5608410000000  0.5333510000000  0.5402220000000 1.0
C      1  0.3882840000000  0.4956300000000  0.5151460000000 1.0
C      1  0.3882850000000  0.5042190000000  0.4844080000000 1.0
C      1  0.4603510000000  0.5177720000000  0.5023210000000 1.0
C      1  0.4603510000000  0.4820780000000  0.4972340000000 1.0
C      1  0.5905510000000  0.5796930000000  0.4528080000000 1.0
C      1  0.5905510000000  0.4201570000000  0.5467490000000 1.0
C      1  0.4655090000000  0.5974940000000  0.4965050000000 1.0
C      1  0.4655090000000  0.4023560000000  0.5030510000000 1.0
C      1  0.4976780000000  0.4350550000000  0.5140660000000 1.0
C      1  0.4976780000000  0.5647950000000  0.4854900000000 1.0
C      1  0.5925770000000  0.4633620000000  0.4871180000000 1.0
C      1  0.5925770000000  0.5364880000000  0.5124390000000 1.0
C      1  0.4661290000000  0.5661410000000  0.4840520000000 1.0
C      1  0.4661290000000  0.4337080000000  0.5155040000000 1.0
C      1  0.5001590000000  0.5168920000000  0.3825640000000 1.0
C      1  0.5001570000000  0.4829580000000  0.6169920000000 1.0
C      1  0.4173350000000  0.5701660000000  0.5105520000000 1.0
C      1  0.4173350000000  0.4296840000000  0.4890030000000 1.0
C      1  0.4079860000000  0.5035760000000  0.5680080000000 1.0
C      1  0.4079860000000  0.4962730000000  0.4315470000000 1.0
C      1  0.5841640000000  0.4795420000000  0.5103160000000 1.0
C      1  0.5841640000000  0.5203070000000  0.4892410000000 1.0
C      1  0.5121410000000  0.4131790000000  0.4947380000000 1.0
C      1  0.5121410000000  0.5866710000000  0.5048180000000 1.0
C      1  0.5496080000000  0.3864590000000  0.4833210000000 1.0
C      1  0.5496080000000  0.6133910000000  0.5162350000000 1.0
C      1  0.5392560000000  0.3792410000000  0.5170700000000 1.0
C      1  0.5392560000000  0.6206090000000  0.4824870000000 1.0
C      1  0.5356200000000  0.4627750000000  0.5044310000000 1.0
C      1  0.5356200000000  0.5370750000000  0.4951260000000 1.0
C      1  0.6217490000000  0.5029660000000  0.4826980000000 1.0
C      1  0.6217490000000  0.4968830000000  0.5168600000000 1.0
C      1  0.4448680000000  0.5795980000000  0.4636890000000 1.0
C      1  0.4448670000000  0.4202510000000  0.5358660000000 1.0
C      1  0.5139400000000  0.5491170000000  0.4257810000000 1.0
C      1  0.5139400000000  0.4507330000000  0.5737750000000 1.0
C      1  0.4638430000000  0.4125220000000  0.5588310000000 1.0
C      1  0.4638440000000  0.5873270000000  0.4407240000000 1.0
C      1  0.5344530000000  0.5721700000000  0.5179850000000 1.0
C      1  0.5344530000000  0.4276800000000  0.4815710000000 1.0
C      1  0.4588810000000  0.4359480000000  0.4506190000000 1.0
C      1  0.4588800000000  0.5639020000000  0.5489360000000 1.0
C      1  0.5741090000000  0.4665560000000  0.5331940000000 1.0
C      1  0.5741090000000  0.5332940000000  0.4663630000000 1.0
C      1  0.5172070000000  0.6169010000000  0.5179860000000 1.0
C      1  0.5172080000000  0.3829480000000  0.4815700000000 1.0
C      1  0.4218200000000  0.4785640000000  0.4115740000000 1.0
C      1  0.4218190000000  0.5212860000000  0.5879810000000 1.0
C      1  0.5508070000000  0.4779810000000  0.4849350000000 1.0
C      1  0.5508070000000  0.5218690000000  0.5146220000000 1.0
C      1  0.5663510000000  0.4999250000000  0.4997780000000 1.0
END
