TITL C-862507-1800-217 83077.2284113422 125000 -691.115961771261 0 0 121 (C2v) n - 1
REM
REM in /home/nfs/bkarasulu/CARBON/AIRSS/Generating-Clusters/TERSOFF/Higher-Symm/FIRE-HFTN
REM
REM
REM
REM
REM
REM ./C.cell (b20cbc046b6831c77cfcea5457e17084)
REM AIRSS Version 0.9.1 bugfix July 2018 build 013d7b7c2542+ Fri, 06 Jul 2018 19:26:36 +0100
REM compiler GCC version 9.2.1 20190827 (Red Hat 9.2.1-1)
REM options -cpp -mtune=generic -march=x86-64 -g -O0 -fpre-include=/usr/include/finclude/math-vector-fortran.h
REM seed 406504532 -137228799 1586219572 1044559152 1448380617 -1986511661 1024574699 -631679815 -774032775 600160650 1487071757 1357631621 995747602 -1597034222 -361452099 7368551 -420820624 1491758891 -842245056 -1659657971 1610369882 287065289 -1786718646 1422799637 592724683 -1276409663 -1636656043 1153900688 945853665 -615942569 -1270508301 428159800 -1372456400
REM
CELL 1.54180   50.00000   50.00000   50.00000   90.00000   90.00000   90.00000
LATT -1
SFAC C  
C      1  0.5144230000000  0.4410860000000  0.5238570000000 1.0
C      1  0.4843720000000  0.5580810000000  0.5238590000000 1.0
C      1  0.4844590000000  0.4404520000000  0.5237250000000 1.0
C      1  0.5143360000000  0.5587300000000  0.5237230000000 1.0
C      1  0.5503100000000  0.4349880000000  0.4778430000000 1.0
C      1  0.4484870000000  0.5641850000000  0.4778440000000 1.0
C      1  0.4484570000000  0.4349650000000  0.4777560000000 1.0
C      1  0.5503400000000  0.5642080000000  0.4777550000000 1.0
C      1  0.5210040000000  0.5230240000000  0.4032550000000 1.0
C      1  0.4777930000000  0.4761500000000  0.4032550000000 1.0
C      1  0.4777890000000  0.5230370000000  0.4032910000000 1.0
C      1  0.5210080000000  0.4761370000000  0.4032900000000 1.0
C      1  0.4385280000000  0.5582390000000  0.5305320000000 1.0
C      1  0.5602690000000  0.4409360000000  0.5305340000000 1.0
C      1  0.5602850000000  0.5581300000000  0.5306860000000 1.0
C      1  0.4385130000000  0.4410420000000  0.5306840000000 1.0
C      1  0.5203150000000  0.5251050000000  0.4836290000000 1.0
C      1  0.4784810000000  0.4740690000000  0.4836290000000 1.0
C      1  0.4784700000000  0.5250650000000  0.4836840000000 1.0
C      1  0.5203260000000  0.4741080000000  0.4836840000000 1.0
C      1  0.5248230000000  0.5252420000000  0.5842410000000 1.0
C      1  0.4739740000000  0.4739330000000  0.5842430000000 1.0
C      1  0.4739700000000  0.5252360000000  0.5843410000000 1.0
C      1  0.5248270000000  0.4739370000000  0.5843400000000 1.0
C      1  0.5204410000000  0.5344970000000  0.5403560000000 1.0
C      1  0.4783540000000  0.4646830000000  0.5403560000000 1.0
C      1  0.4784470000000  0.5338740000000  0.5403040000000 1.0
C      1  0.5203490000000  0.4652940000000  0.5403040000000 1.0
C      1  0.5497140000000  0.5550670000000  0.4480580000000 1.0
C      1  0.4490840000000  0.4441060000000  0.4480590000000 1.0
C      1  0.4491710000000  0.5551030000000  0.4481390000000 1.0
C      1  0.5496270000000  0.4440720000000  0.4481380000000 1.0
C      1  0.5703990000000  0.4583600000000  0.5551630000000 1.0
C      1  0.4283990000000  0.5408150000000  0.5551630000000 1.0
C      1  0.4283310000000  0.4584710000000  0.5551820000000 1.0
C      1  0.5704670000000  0.5407010000000  0.5551820000000 1.0
C      1  0.4783430000000  0.5205530000000  0.4539900000000 1.0
C      1  0.5204530000000  0.4786210000000  0.4539890000000 1.0
C      1  0.5204400000000  0.5205690000000  0.4539490000000 1.0
C      1  0.4783560000000  0.4786050000000  0.4539490000000 1.0
C      1  0.6007330000000  0.5153270000000  0.5220820000000 1.0
C      1  0.3980650000000  0.4838470000000  0.5220830000000 1.0
C      1  0.3980790000000  0.5153930000000  0.5220790000000 1.0
C      1  0.6007190000000  0.4837810000000  0.5220790000000 1.0
C      1  0.5368230000000  0.5758620000000  0.5323690000000 1.0
C      1  0.4619780000000  0.4233110000000  0.5323640000000 1.0
C      1  0.4622290000000  0.5757760000000  0.5319180000000 1.0
C      1  0.5365710000000  0.4233970000000  0.5319230000000 1.0
C      1  0.4845360000000  0.4528160000000  0.5679000000000 1.0
C      1  0.5142590000000  0.5463600000000  0.5679010000000 1.0
C      1  0.5143050000000  0.4529330000000  0.5678280000000 1.0
C      1  0.4844910000000  0.5462400000000  0.5678270000000 1.0
C      1  0.4846150000000  0.3977370000000  0.4855560000000 1.0
C      1  0.5141820000000  0.6014370000000  0.4855530000000 1.0
C      1  0.5141790000000  0.3977790000000  0.4857570000000 1.0
C      1  0.4846180000000  0.6013940000000  0.4857590000000 1.0
C      1  0.4729480000000  0.4322970000000  0.4319050000000 1.0
C      1  0.5258490000000  0.5668760000000  0.4319040000000 1.0
C      1  0.5257840000000  0.4322770000000  0.4319540000000 1.0
C      1  0.4730130000000  0.5668970000000  0.4319540000000 1.0
C      1  0.4437620000000  0.4751380000000  0.5781590000000 1.0
C      1  0.5550350000000  0.5240360000000  0.5781580000000 1.0
C      1  0.5550280000000  0.4750760000000  0.5782080000000 1.0
C      1  0.4437690000000  0.5240980000000  0.5782080000000 1.0
C      1  0.5961630000000  0.5281640000000  0.5479380000000 1.0
C      1  0.4026350000000  0.4710090000000  0.5479380000000 1.0
C      1  0.4026840000000  0.5282510000000  0.5479280000000 1.0
C      1  0.5961140000000  0.4709240000000  0.5479280000000 1.0
C      1  0.4522160000000  0.4744230000000  0.4412410000000 1.0
C      1  0.5465800000000  0.5247500000000  0.4412410000000 1.0
C      1  0.5465760000000  0.4743910000000  0.4412610000000 1.0
C      1  0.4522200000000  0.5247830000000  0.4412610000000 1.0
C      1  0.5926070000000  0.4660350000000  0.4985230000000 1.0
C      1  0.4061900000000  0.5331390000000  0.4985230000000 1.0
C      1  0.4062080000000  0.4660780000000  0.4985470000000 1.0
C      1  0.5925880000000  0.5330960000000  0.4985460000000 1.0
C      1  0.5262160000000  0.5728420000000  0.5728950000000 1.0
C      1  0.4725770000000  0.4263350000000  0.5728920000000 1.0
C      1  0.4723540000000  0.5726900000000  0.5725620000000 1.0
C      1  0.5264390000000  0.4264820000000  0.5725650000000 1.0
C      1  0.5145950000000  0.4474400000000  0.4078960000000 1.0
C      1  0.4842020000000  0.5517340000000  0.4078960000000 1.0
C      1  0.4841870000000  0.4474520000000  0.4078700000000 1.0
C      1  0.5146100000000  0.5517210000000  0.4078700000000 1.0
C      1  0.4005320000000  0.4754810000000  0.4719550000000 1.0
C      1  0.5982650000000  0.5236920000000  0.4719550000000 1.0
C      1  0.5982890000000  0.4754670000000  0.4719450000000 1.0
C      1  0.4005070000000  0.5237060000000  0.4719450000000 1.0
C      1  0.5654180000000  0.4511370000000  0.5018160000000 1.0
C      1  0.4333780000000  0.5480370000000  0.5018150000000 1.0
C      1  0.4333910000000  0.4511080000000  0.5018710000000 1.0
C      1  0.5654050000000  0.5480650000000  0.5018710000000 1.0
C      1  0.5422550000000  0.4846530000000  0.5348220000000 1.0
C      1  0.4565360000000  0.5145200000000  0.5348240000000 1.0
C      1  0.4565460000000  0.4841660000000  0.5347710000000 1.0
C      1  0.5422460000000  0.5150090000000  0.5347690000000 1.0
C      1  0.5232400000000  0.4259840000000  0.4856710000000 1.0
C      1  0.4755560000000  0.5731890000000  0.4856750000000 1.0
C      1  0.4755810000000  0.4259430000000  0.4853380000000 1.0
C      1  0.5232160000000  0.5732310000000  0.4853330000000 1.0
C      1  0.4504410000000  0.5237220000000  0.4943050000000 1.0
C      1  0.5483560000000  0.4754520000000  0.4943040000000 1.0
C      1  0.5483660000000  0.5237790000000  0.4941670000000 1.0
C      1  0.4504310000000  0.4753950000000  0.4941690000000 1.0
C      1  0.4993850000000  0.5521150000000  0.4853470000000 1.0
C      1  0.4994110000000  0.4470590000000  0.4853470000000 1.0
C      1  0.4346040000000  0.4996040000000  0.4424260000000 1.0
C      1  0.5641920000000  0.4995690000000  0.4424250000000 1.0
C      1  0.5622600000000  0.4996060000000  0.4879560000000 1.0
C      1  0.4365360000000  0.4995680000000  0.4879580000000 1.0
C      1  0.4153790000000  0.4996040000000  0.4650220000000 1.0
C      1  0.5834170000000  0.4995690000000  0.4650210000000 1.0
C      1  0.4994460000000  0.5762950000000  0.4449110000000 1.0
C      1  0.4993520000000  0.4228780000000  0.4449110000000 1.0
C      1  0.4314660000000  0.4996130000000  0.5859480000000 1.0
C      1  0.5673310000000  0.4995610000000  0.5859490000000 1.0
C      1  0.4993980000000  0.4995870000000  0.4412690000000 1.0
C      1  0.4993980000000  0.4995870000000  0.4945770000000 1.0
C      1  0.4993980000000  0.4995870000000  0.4099320000000 1.0
C      1  0.4993980000000  0.4995870000000  0.5539520000000 1.0
C      1  0.4993990000000  0.4995870000000  0.5861310000000 1.0
END
