TITL C-862130-1496-1278 17.9290528830181 125000 -947.063187660247 0 0 164 (C1) n - 1
REM
REM in /home/nfs/bkarasulu/CARBON/AIRSS/Generating-Clusters/TERSOFF/Higher-Symm/FIRE-HFTN
REM
REM
REM
REM
REM
REM ./C.cell (b20cbc046b6831c77cfcea5457e17084)
REM AIRSS Version 0.9.1 bugfix July 2018 build 013d7b7c2542+ Fri, 06 Jul 2018 19:26:36 +0100
REM compiler GCC version 9.2.1 20190827 (Red Hat 9.2.1-1)
REM options -cpp -mtune=generic -march=x86-64 -g -O0 -fpre-include=/usr/include/finclude/math-vector-fortran.h
REM seed -1148362220 1259051751 -1031724405 -646685315 -1716771657 -1887470452 -564664887 251776394 1754366054 -212368452 1194977419 -1091754229 495643689 1445661934 247086228 1619828008 -1046881797 1450564022 -2093502920 505031312 1144123385 -1597026287 -93596471 -1342081764 -785764796 1885173256 -517550133 1343212572 -1466888200 -720086634 -1674034595 -1100905805 -660102529
REM
CELL 1.54180   50.00000   50.00000   50.00000   90.00000   90.00000   90.00000
LATT -1
SFAC C  
C      1  0.5180530000000  0.5127680000000  0.3803420000000 1.0
C      1  0.4102960000000  0.4563960000000  0.4559800000000 1.0
C      1  0.5159710000000  0.4442240000000  0.4081470000000 1.0
C      1  0.4706330000000  0.4729840000000  0.4680820000000 1.0
C      1  0.4487400000000  0.6007070000000  0.4700030000000 1.0
C      1  0.5207220000000  0.4758500000000  0.5011380000000 1.0
C      1  0.5663460000000  0.4916900000000  0.5199420000000 1.0
C      1  0.5095430000000  0.5223590000000  0.6087590000000 1.0
C      1  0.5182480000000  0.5117610000000  0.4293580000000 1.0
C      1  0.5475800000000  0.5621740000000  0.4950690000000 1.0
C      1  0.5777530000000  0.5910270000000  0.4918150000000 1.0
C      1  0.4385180000000  0.4645420000000  0.5078820000000 1.0
C      1  0.5142420000000  0.5193520000000  0.5458110000000 1.0
C      1  0.5588480000000  0.4599840000000  0.4157400000000 1.0
C      1  0.4788780000000  0.4974270000000  0.4564790000000 1.0
C      1  0.5192050000000  0.5409960000000  0.4308090000000 1.0
C      1  0.5223750000000  0.4235940000000  0.4563360000000 1.0
C      1  0.4160650000000  0.5672530000000  0.4380720000000 1.0
C      1  0.4450260000000  0.4671030000000  0.4769210000000 1.0
C      1  0.5308830000000  0.5707290000000  0.4709110000000 1.0
C      1  0.4316020000000  0.4285460000000  0.5724560000000 1.0
C      1  0.5171100000000  0.3579460000000  0.5283340000000 1.0
C      1  0.3995000000000  0.5557150000000  0.4606860000000 1.0
C      1  0.4920650000000  0.5382430000000  0.4727220000000 1.0
C      1  0.4857960000000  0.4391840000000  0.5992210000000 1.0
C      1  0.4997240000000  0.4643270000000  0.5603870000000 1.0
C      1  0.3933580000000  0.4326000000000  0.5412930000000 1.0
C      1  0.5660170000000  0.4216720000000  0.4845830000000 1.0
C      1  0.5709090000000  0.4721180000000  0.5704660000000 1.0
C      1  0.4296030000000  0.5126710000000  0.5272740000000 1.0
C      1  0.5642450000000  0.5774900000000  0.5444350000000 1.0
C      1  0.5314640000000  0.5653040000000  0.5212240000000 1.0
C      1  0.5081840000000  0.5548020000000  0.4544820000000 1.0
C      1  0.5356890000000  0.5216110000000  0.5097960000000 1.0
C      1  0.5099890000000  0.5891960000000  0.5554190000000 1.0
C      1  0.6094840000000  0.5022830000000  0.5408840000000 1.0
C      1  0.4721260000000  0.4310770000000  0.4398420000000 1.0
C      1  0.4451470000000  0.5404870000000  0.4534850000000 1.0
C      1  0.4927420000000  0.5420190000000  0.5541010000000 1.0
C      1  0.4010470000000  0.5382180000000  0.5100890000000 1.0
C      1  0.5302600000000  0.4475680000000  0.5180810000000 1.0
C      1  0.4618060000000  0.4907850000000  0.6037940000000 1.0
C      1  0.5046590000000  0.5625830000000  0.5111450000000 1.0
C      1  0.4282530000000  0.4706020000000  0.5375530000000 1.0
C      1  0.5863950000000  0.5174970000000  0.5265050000000 1.0
C      1  0.5359990000000  0.5907860000000  0.5388200000000 1.0
C      1  0.5341560000000  0.4595840000000  0.4760640000000 1.0
C      1  0.4762270000000  0.5014820000000  0.5808270000000 1.0
C      1  0.4492500000000  0.3944280000000  0.4747060000000 1.0
C      1  0.5089310000000  0.4220370000000  0.4846520000000 1.0
C      1  0.5878820000000  0.4996530000000  0.5652490000000 1.0
C      1  0.5054230000000  0.4268590000000  0.4303660000000 1.0
C      1  0.4459550000000  0.4865970000000  0.5558320000000 1.0
C      1  0.5981990000000  0.4897700000000  0.4410660000000 1.0
C      1  0.4068950000000  0.4726610000000  0.5009980000000 1.0
C      1  0.4636020000000  0.5401310000000  0.4755530000000 1.0
C      1  0.4822630000000  0.5890910000000  0.5390190000000 1.0
C      1  0.4386510000000  0.5001070000000  0.5019970000000 1.0
C      1  0.5262860000000  0.4191090000000  0.5074110000000 1.0
C      1  0.5867940000000  0.5713860000000  0.4698070000000 1.0
C      1  0.5347880000000  0.5462040000000  0.5437280000000 1.0
C      1  0.4642110000000  0.4191730000000  0.4685080000000 1.0
C      1  0.5305830000000  0.6165910000000  0.4760860000000 1.0
C      1  0.5269210000000  0.4589550000000  0.5458320000000 1.0
C      1  0.4696750000000  0.5274640000000  0.5675550000000 1.0
C      1  0.4068800000000  0.5345280000000  0.4810290000000 1.0
C      1  0.5603790000000  0.5506230000000  0.5617170000000 1.0
C      1  0.6092720000000  0.5080310000000  0.4877510000000 1.0
C      1  0.4464710000000  0.5628770000000  0.4341430000000 1.0
C      1  0.4250130000000  0.4894620000000  0.4239950000000 1.0
C      1  0.4801050000000  0.5676330000000  0.5904860000000 1.0
C      1  0.4730950000000  0.6049480000000  0.5146100000000 1.0
C      1  0.3955930000000  0.4638830000000  0.5481610000000 1.0
C      1  0.5122080000000  0.5600150000000  0.3860420000000 1.0
C      1  0.5078390000000  0.4727080000000  0.4031270000000 1.0
C      1  0.4725360000000  0.4558920000000  0.5065970000000 1.0
C      1  0.5225690000000  0.5438820000000  0.5918230000000 1.0
C      1  0.5748540000000  0.5089730000000  0.4295660000000 1.0
C      1  0.5688850000000  0.4480800000000  0.4404340000000 1.0
C      1  0.3953850000000  0.4892990000000  0.5671020000000 1.0
C      1  0.4866020000000  0.4541470000000  0.4560190000000 1.0
C      1  0.4132270000000  0.5602920000000  0.5266320000000 1.0
C      1  0.5562450000000  0.5350640000000  0.4965350000000 1.0
C      1  0.5050680000000  0.5799290000000  0.4879640000000 1.0
C      1  0.5393980000000  0.5057140000000  0.5579210000000 1.0
C      1  0.5145310000000  0.4645990000000  0.4519140000000 1.0
C      1  0.5070910000000  0.4576350000000  0.5888450000000 1.0
C      1  0.6066730000000  0.4501000000000  0.4769150000000 1.0
C      1  0.4807690000000  0.4301590000000  0.4899190000000 1.0
C      1  0.4108420000000  0.4510010000000  0.5747350000000 1.0
C      1  0.4728160000000  0.5314160000000  0.3960670000000 1.0
C      1  0.4223330000000  0.5871470000000  0.5145070000000 1.0
C      1  0.5762060000000  0.5431190000000  0.4242070000000 1.0
C      1  0.5556880000000  0.4892470000000  0.4113820000000 1.0
C      1  0.4674720000000  0.4640580000000  0.5638960000000 1.0
C      1  0.5202520000000  0.4991680000000  0.4778720000000 1.0
C      1  0.4689500000000  0.5055310000000  0.4090290000000 1.0
C      1  0.5082430000000  0.4960410000000  0.4513630000000 1.0
C      1  0.5198430000000  0.6047800000000  0.4491580000000 1.0
C      1  0.4355530000000  0.5444810000000  0.5976920000000 1.0
C      1  0.5660520000000  0.3964670000000  0.5284480000000 1.0
C      1  0.5794510000000  0.5208190000000  0.4803830000000 1.0
C      1  0.3913240000000  0.4842580000000  0.5229750000000 1.0
C      1  0.4940000000000  0.6061750000000  0.4938170000000 1.0
C      1  0.4559470000000  0.5555970000000  0.4051110000000 1.0
C      1  0.6036390000000  0.4642940000000  0.5033570000000 1.0
C      1  0.4572860000000  0.5532140000000  0.5148950000000 1.0
C      1  0.4480970000000  0.5956250000000  0.4999370000000 1.0
C      1  0.5551280000000  0.3832090000000  0.5517430000000 1.0
C      1  0.4616020000000  0.5059230000000  0.4363520000000 1.0
C      1  0.4082520000000  0.5571270000000  0.5566510000000 1.0
C      1  0.5512770000000  0.4011730000000  0.5031780000000 1.0
C      1  0.4329950000000  0.5127310000000  0.4444730000000 1.0
C      1  0.5530210000000  0.4272710000000  0.4570130000000 1.0
C      1  0.5269410000000  0.4969940000000  0.4050360000000 1.0
C      1  0.4472680000000  0.5275080000000  0.5464830000000 1.0
C      1  0.5930690000000  0.5465380000000  0.5131020000000 1.0
C      1  0.4981740000000  0.5353420000000  0.3808830000000 1.0
C      1  0.5307220000000  0.3676490000000  0.5519620000000 1.0
C      1  0.4203560000000  0.5079170000000  0.4726440000000 1.0
C      1  0.4803490000000  0.4809090000000  0.3981850000000 1.0
C      1  0.4312200000000  0.4136530000000  0.5171990000000 1.0
C      1  0.5959380000000  0.5475220000000  0.4827860000000 1.0
C      1  0.5303230000000  0.5564140000000  0.4080840000000 1.0
C      1  0.4277920000000  0.4362600000000  0.4996200000000 1.0
C      1  0.4574230000000  0.4433750000000  0.5849480000000 1.0
C      1  0.5583930000000  0.5524610000000  0.4028450000000 1.0
C      1  0.4486830000000  0.4416890000000  0.4223750000000 1.0
C      1  0.4197860000000  0.5052770000000  0.5691530000000 1.0
C      1  0.4034470000000  0.4808930000000  0.4730480000000 1.0
C      1  0.3993830000000  0.5130210000000  0.5285350000000 1.0
C      1  0.5447920000000  0.5833070000000  0.4447280000000 1.0
C      1  0.5052370000000  0.5635950000000  0.5743430000000 1.0
C      1  0.4186570000000  0.5355790000000  0.5760260000000 1.0
C      1  0.6149840000000  0.4903360000000  0.5103540000000 1.0
C      1  0.4935820000000  0.4768760000000  0.5137990000000 1.0
C      1  0.4162010000000  0.4333530000000  0.4729490000000 1.0
C      1  0.5445850000000  0.3759540000000  0.4887820000000 1.0
C      1  0.4819920000000  0.5598100000000  0.5296810000000 1.0
C      1  0.4642610000000  0.5429660000000  0.5949050000000 1.0
C      1  0.4809380000000  0.5267400000000  0.6140470000000 1.0
C      1  0.4945300000000  0.5825720000000  0.4474690000000 1.0
C      1  0.5293990000000  0.4726080000000  0.6034850000000 1.0
C      1  0.5237620000000  0.4979310000000  0.6188620000000 1.0
C      1  0.5580310000000  0.4661160000000  0.5970480000000 1.0
C      1  0.5463570000000  0.4780870000000  0.5542790000000 1.0
C      1  0.5533720000000  0.3721520000000  0.4613270000000 1.0
C      1  0.5716190000000  0.5680170000000  0.4450700000000 1.0
C      1  0.4386320000000  0.3897300000000  0.5019360000000 1.0
C      1  0.5649240000000  0.5092610000000  0.4577030000000 1.0
C      1  0.4902820000000  0.4979910000000  0.5350320000000 1.0
C      1  0.4633510000000  0.5842810000000  0.4491120000000 1.0
C      1  0.5381550000000  0.4955070000000  0.5169680000000 1.0
C      1  0.4263010000000  0.4610310000000  0.4317630000000 1.0
C      1  0.5564470000000  0.4480640000000  0.4981140000000 1.0
C      1  0.4182990000000  0.4156370000000  0.5443220000000 1.0
C      1  0.5928880000000  0.4620870000000  0.4520250000000 1.0
C      1  0.5761150000000  0.4662520000000  0.5102990000000 1.0
C      1  0.5812840000000  0.5743020000000  0.5202570000000 1.0
C      1  0.5955210000000  0.4229400000000  0.4816050000000 1.0
C      1  0.5292830000000  0.3552000000000  0.5022180000000 1.0
C      1  0.5635100000000  0.5204060000000  0.5659880000000 1.0
C      1  0.5594560000000  0.6150190000000  0.4867620000000 1.0
C      1  0.4492380000000  0.4649980000000  0.6044270000000 1.0
END
