TITL C-862128-1543-1208 2.0455001317158e-05 125000 -266.370800898253 0 0 53 (D4) n - 1
REM
REM in /home/nfs/bkarasulu/CARBON/AIRSS/Generating-Clusters/TERSOFF/Higher-Symm/FIRE-HFTN
REM
REM
REM
REM
REM
REM ./C.cell (b20cbc046b6831c77cfcea5457e17084)
REM AIRSS Version 0.9.1 bugfix July 2018 build 013d7b7c2542+ Fri, 06 Jul 2018 19:26:36 +0100
REM compiler GCC version 9.2.1 20190827 (Red Hat 9.2.1-1)
REM options -cpp -mtune=generic -march=x86-64 -g -O0 -fpre-include=/usr/include/finclude/math-vector-fortran.h
REM seed -1450001377 1683859950 -1808041453 -251677974 -1464923396 -1339701941 -1326808346 483986206 -1503160942 -1316470289 -240814399 -1056333866 -392936894 -1756965441 -1235357575 -772204638 -1934776348 -108118079 1373605363 -599007638 -1152025958 447792502 -672355989 -1246150365 1463503080 -1791813017 -716674760 -872103200 -1268808716 1694235432 662237164 -958545693 2096380090
REM
CELL 1.54180   50.00000   50.00000   50.00000   90.00000   90.00000   90.00000
LATT -1
SFAC C  
C      1  0.4911870000000  0.4388340000000  0.4555810000000 1.0
C      1  0.4388280000000  0.5086260000000  0.4555810000000 1.0
C      1  0.5086210000000  0.5609860000000  0.4555810000000 1.0
C      1  0.5609800000000  0.4911930000000  0.4555810000000 1.0
C      1  0.4911870000000  0.5609860000000  0.5449580000000 1.0
C      1  0.4388280000000  0.4911930000000  0.5449580000000 1.0
C      1  0.5086210000000  0.4388340000000  0.5449580000000 1.0
C      1  0.5609800000000  0.5086260000000  0.5449580000000 1.0
C      1  0.5163290000000  0.4243040000000  0.5193760000000 1.0
C      1  0.4242980000000  0.4834850000000  0.5193760000000 1.0
C      1  0.4834790000000  0.5755160000000  0.5193760000000 1.0
C      1  0.5755100000000  0.5163350000000  0.5193760000000 1.0
C      1  0.5163290000000  0.5755160000000  0.4811620000000 1.0
C      1  0.4242980000000  0.5163350000000  0.4811620000000 1.0
C      1  0.4834790000000  0.4243040000000  0.4811620000000 1.0
C      1  0.5755100000000  0.4834850000000  0.4811620000000 1.0
C      1  0.5123050000000  0.5298070000000  0.4833940000000 1.0
C      1  0.5298010000000  0.4875090000000  0.4833940000000 1.0
C      1  0.4875030000000  0.4700130000000  0.4833940000000 1.0
C      1  0.4700070000000  0.5123110000000  0.4833940000000 1.0
C      1  0.5123050000000  0.4700130000000  0.5171440000000 1.0
C      1  0.5298010000000  0.5123110000000  0.5171440000000 1.0
C      1  0.4875030000000  0.5298070000000  0.5171440000000 1.0
C      1  0.4700070000000  0.4875090000000  0.5171440000000 1.0
C      1  0.5184110000000  0.5521270000000  0.5347510000000 1.0
C      1  0.5521210000000  0.4814030000000  0.5347510000000 1.0
C      1  0.4813970000000  0.4476930000000  0.5347510000000 1.0
C      1  0.4476870000000  0.5184160000000  0.5347510000000 1.0
C      1  0.5184110000000  0.4476930000000  0.4657870000000 1.0
C      1  0.5521210000000  0.5184160000000  0.4657870000000 1.0
C      1  0.4813970000000  0.5521270000000  0.4657870000000 1.0
C      1  0.4476870000000  0.4814030000000  0.4657870000000 1.0
C      1  0.4435440000000  0.5234160000000  0.5040690000000 1.0
C      1  0.5234100000000  0.5562690000000  0.5040690000000 1.0
C      1  0.5562640000000  0.4764040000000  0.5040690000000 1.0
C      1  0.4763980000000  0.4435500000000  0.5040690000000 1.0
C      1  0.4435440000000  0.4764040000000  0.4964690000000 1.0
C      1  0.5234100000000  0.4435500000000  0.4964690000000 1.0
C      1  0.5562640000000  0.5234160000000  0.4964690000000 1.0
C      1  0.4763980000000  0.5562690000000  0.4964690000000 1.0
C      1  0.5253220000000  0.5311730000000  0.4548120000000 1.0
C      1  0.5311670000000  0.4744920000000  0.4548120000000 1.0
C      1  0.4744860000000  0.4686470000000  0.4548120000000 1.0
C      1  0.4686410000000  0.5253280000000  0.4548120000000 1.0
C      1  0.5253220000000  0.4686470000000  0.5457270000000 1.0
C      1  0.5311670000000  0.5253280000000  0.5457270000000 1.0
C      1  0.4744860000000  0.5311730000000  0.5457270000000 1.0
C      1  0.4686410000000  0.4744920000000  0.5457270000000 1.0
C      1  0.5523050000000  0.4475090000000  0.5002690000000 1.0
C      1  0.4475030000000  0.5523110000000  0.5002690000000 1.0
C      1  0.5523050000000  0.5523110000000  0.5002690000000 1.0
C      1  0.4475030000000  0.4475090000000  0.5002690000000 1.0
C      1  0.4999040000000  0.4999100000000  0.5002690000000 1.0
END
