TITL C-862133-5440-446 1223820.78022225 125000 -537.496363423129 0 0 105 (C1) n - 1
REM
REM in /home/nfs/bkarasulu/CARBON/AIRSS/Generating-Clusters/TERSOFF/Higher-Symm/FIRE-HFTN
REM
REM
REM
REM
REM
REM ./C.cell (b20cbc046b6831c77cfcea5457e17084)
REM AIRSS Version 0.9.1 bugfix July 2018 build 013d7b7c2542+ Fri, 06 Jul 2018 19:26:36 +0100
REM compiler GCC version 9.2.1 20190827 (Red Hat 9.2.1-1)
REM options -cpp -mtune=generic -march=x86-64 -g -O0 -fpre-include=/usr/include/finclude/math-vector-fortran.h
REM seed 994755824 -686151493 -569878408 1639567100 1471411528 -1352880481 1068064470 -1521539230 -1742491979 -1154920371 -505845351 -1687413021 -106559047 -728564133 -1458209520 -612663106 196719737 249774772 814436457 -858847772 729474149 1647290147 371044410 528518897 1686354055 -303531022 2096482829 411814684 -1630136123 -1352420847 -1004904732 576167539 1533154446
REM
CELL 1.54180   50.00000   50.00000   50.00000   90.00000   90.00000   90.00000
LATT -1
SFAC C  
C      1  0.4890430000000  0.4446890000000  0.5756620000000 1.0
C      1  0.4887490000000  0.5559230000000  0.4215600000000 1.0
C      1  0.4901160000000  0.5550060000000  0.5752900000000 1.0
C      1  0.4886900000000  0.4464130000000  0.4225870000000 1.0
C      1  0.5224680000000  0.5693890000000  0.5290430000000 1.0
C      1  0.5194440000000  0.4341310000000  0.4706520000000 1.0
C      1  0.5222690000000  0.4286100000000  0.5300230000000 1.0
C      1  0.5195870000000  0.5661500000000  0.4695930000000 1.0
C      1  0.5806110000000  0.4456460000000  0.5148700000000 1.0
C      1  0.5782100000000  0.5528880000000  0.4848480000000 1.0
C      1  0.5794940000000  0.5530890000000  0.5157110000000 1.0
C      1  0.5802180000000  0.4462350000000  0.4835090000000 1.0
C      1  0.5726020000000  0.4835930000000  0.5484710000000 1.0
C      1  0.5688690000000  0.5143840000000  0.4531970000000 1.0
C      1  0.5716970000000  0.5146540000000  0.5480320000000 1.0
C      1  0.5705670000000  0.4847880000000  0.4515040000000 1.0
C      1  0.4269770000000  0.4834010000000  0.5481260000000 1.0
C      1  0.4264240000000  0.5182250000000  0.4488780000000 1.0
C      1  0.4273410000000  0.5181500000000  0.5481370000000 1.0
C      1  0.4270600000000  0.4841270000000  0.4494420000000 1.0
C      1  0.4192750000000  0.4768630000000  0.5197580000000 1.0
C      1  0.4193720000000  0.5250650000000  0.4776260000000 1.0
C      1  0.4197660000000  0.5249690000000  0.5195310000000 1.0
C      1  0.4195960000000  0.4772580000000  0.4778580000000 1.0
C      1  0.5489270000000  0.4672810000000  0.5556100000000 1.0
C      1  0.5423820000000  0.5259560000000  0.4512860000000 1.0
C      1  0.5477610000000  0.5311420000000  0.5548880000000 1.0
C      1  0.5440960000000  0.4729770000000  0.4521150000000 1.0
C      1  0.4420800000000  0.4310450000000  0.5247870000000 1.0
C      1  0.4418380000000  0.5711650000000  0.4725490000000 1.0
C      1  0.4426980000000  0.5704810000000  0.5249620000000 1.0
C      1  0.4411980000000  0.4314330000000  0.4726620000000 1.0
C      1  0.4890240000000  0.4319000000000  0.4515010000000 1.0
C      1  0.4910210000000  0.5707010000000  0.5468100000000 1.0
C      1  0.4895420000000  0.5713360000000  0.4503580000000 1.0
C      1  0.4903350000000  0.4288040000000  0.5470520000000 1.0
C      1  0.4626270000000  0.4485870000000  0.5410430000000 1.0
C      1  0.4604950000000  0.5538900000000  0.4544570000000 1.0
C      1  0.4628470000000  0.5521990000000  0.5408700000000 1.0
C      1  0.4613930000000  0.4499070000000  0.4569960000000 1.0
C      1  0.5524370000000  0.4270070000000  0.5129600000000 1.0
C      1  0.5504520000000  0.5730590000000  0.4814920000000 1.0
C      1  0.5519980000000  0.5717930000000  0.5123260000000 1.0
C      1  0.5509880000000  0.4276600000000  0.4819510000000 1.0
C      1  0.5863270000000  0.4738840000000  0.5244120000000 1.0
C      1  0.5833610000000  0.5245840000000  0.4758790000000 1.0
C      1  0.5840910000000  0.5242730000000  0.5236700000000 1.0
C      1  0.5869460000000  0.4741870000000  0.4736780000000 1.0
C      1  0.4711590000000  0.5293580000000  0.4150670000000 1.0
C      1  0.4719760000000  0.4719620000000  0.5812460000000 1.0
C      1  0.4711400000000  0.4728940000000  0.4152200000000 1.0
C      1  0.4726570000000  0.5281920000000  0.5812560000000 1.0
C      1  0.5247880000000  0.4759470000000  0.5423950000000 1.0
C      1  0.5168960000000  0.5109090000000  0.4648210000000 1.0
C      1  0.5230590000000  0.5228950000000  0.5421320000000 1.0
C      1  0.5264030000000  0.4835400000000  0.4724250000000 1.0
C      1  0.4460000000000  0.4629040000000  0.4347640000000 1.0
C      1  0.4469690000000  0.5389660000000  0.5625370000000 1.0
C      1  0.4445470000000  0.5395880000000  0.4333780000000 1.0
C      1  0.4463330000000  0.4621810000000  0.5622630000000 1.0
C      1  0.4679750000000  0.4115430000000  0.4725110000000 1.0
C      1  0.4695760000000  0.5906530000000  0.5257060000000 1.0
C      1  0.4690290000000  0.5904550000000  0.4730370000000 1.0
C      1  0.4682300000000  0.4101310000000  0.5254440000000 1.0
C      1  0.4716660000000  0.4753950000000  0.5314830000000 1.0
C      1  0.4709660000000  0.5275210000000  0.4637130000000 1.0
C      1  0.4706890000000  0.5252340000000  0.5307180000000 1.0
C      1  0.4690790000000  0.4773550000000  0.4667320000000 1.0
C      1  0.5446490000000  0.5603940000000  0.5520330000000 1.0
C      1  0.5377190000000  0.4454750000000  0.4463670000000 1.0
C      1  0.5450990000000  0.4379070000000  0.5528060000000 1.0
C      1  0.5373360000000  0.5536200000000  0.4467140000000 1.0
C      1  0.5141800000000  0.4581650000000  0.5203580000000 1.0
C      1  0.5129390000000  0.5374240000000  0.4853470000000 1.0
C      1  0.5118110000000  0.5399380000000  0.5182370000000 1.0
C      1  0.5135670000000  0.4620500000000  0.4894030000000 1.0
C      1  0.4507170000000  0.5004940000000  0.5781630000000 1.0
C      1  0.4493990000000  0.5010530000000  0.4182550000000 1.0
C      1  0.4652160000000  0.5003780000000  0.5448610000000 1.0
C      1  0.4650460000000  0.5019400000000  0.4509200000000 1.0
C      1  0.4809570000000  0.5799230000000  0.4992960000000 1.0
C      1  0.4802350000000  0.4208360000000  0.4993510000000 1.0
C      1  0.5343180000000  0.4992200000000  0.5786420000000 1.0
C      1  0.5403970000000  0.4964090000000  0.4174570000000 1.0
C      1  0.5128670000000  0.4991550000000  0.5553540000000 1.0
C      1  0.5152250000000  0.5008400000000  0.4315720000000 1.0
C      1  0.4356500000000  0.5496230000000  0.4984650000000 1.0
C      1  0.4354750000000  0.4524540000000  0.4987270000000 1.0
C      1  0.5099170000000  0.5781680000000  0.4989940000000 1.0
C      1  0.5093020000000  0.4213590000000  0.4994690000000 1.0
C      1  0.4911150000000  0.5009710000000  0.4170930000000 1.0
C      1  0.4923580000000  0.4994610000000  0.5768530000000 1.0
C      1  0.4687630000000  0.5515730000000  0.4980710000000 1.0
C      1  0.4688320000000  0.4496970000000  0.4983970000000 1.0
C      1  0.5091660000000  0.4986980000000  0.5107570000000 1.0
C      1  0.5581030000000  0.4914320000000  0.4987930000000 1.0
C      1  0.6393560000000  0.5226800000000  0.4993930000000 1.0
C      1  0.6225810000000  0.4991240000000  0.4991280000000 1.0
C      1  0.4855330000000  0.5058180000000  0.4965620000000 1.0
C      1  0.6682840000000  0.5223430000000  0.4994010000000 1.0
C      1  0.5913560000000  0.4994850000000  0.4993820000000 1.0
C      1  0.3598760000000  0.5247740000000  0.5021670000000 1.0
C      1  0.5360220000000  0.5083170000000  0.5049390000000 1.0
C      1  0.3762940000000  0.5011790000000  0.4988340000000 1.0
C      1  0.4060110000000  0.5010700000000  0.4987920000000 1.0
END
