TITL C-862503-991-1022 -0.00491441968713258 125000 -1035.93476948874 0 0 183 (C1) n - 1
REM
REM in /home/nfs/bkarasulu/CARBON/AIRSS/Generating-Clusters/TERSOFF/Higher-Symm/FIRE-HFTN
REM
REM
REM
REM
REM
REM ./C.cell (b20cbc046b6831c77cfcea5457e17084)
REM AIRSS Version 0.9.1 bugfix July 2018 build 013d7b7c2542+ Fri, 06 Jul 2018 19:26:36 +0100
REM compiler GCC version 9.2.1 20190827 (Red Hat 9.2.1-1)
REM options -cpp -mtune=generic -march=x86-64 -g -O0 -fpre-include=/usr/include/finclude/math-vector-fortran.h
REM seed -436387124 1669400797 -1128893030 -1913332786 -1556066850 1507324520 1131580163 -1663995057 214908937 -1589567662 1873861363 1440381719 1078559543 1529146738 1295535501 850980064 1311383308 2022671471 1187520853 1551890278 940212855 460419956 1390904163 950030095 141534592 1248783220 -1502445228 -318260908 545175575 1243405467 921648342 1347346653 946935992
REM
CELL 1.54180   50.00000   50.00000   50.00000   90.00000   90.00000   90.00000
LATT -1
SFAC C  
C      1  0.6011860000000  0.5174210000000  0.4827890000000 1.0
C      1  0.4032120000000  0.5144350000000  0.5170190000000 1.0
C      1  0.5992530000000  0.4838270000000  0.4808970000000 1.0
C      1  0.4054690000000  0.4806150000000  0.5163010000000 1.0
C      1  0.3984950000000  0.5172340000000  0.4820630000000 1.0
C      1  0.5976900000000  0.5135600000000  0.5168850000000 1.0
C      1  0.4001940000000  0.4836130000000  0.4807760000000 1.0
C      1  0.5953580000000  0.4795680000000  0.5164670000000 1.0
C      1  0.5897900000000  0.4384230000000  0.4572900000000 1.0
C      1  0.4155890000000  0.4364030000000  0.5435810000000 1.0
C      1  0.5887630000000  0.5612690000000  0.4564650000000 1.0
C      1  0.4099450000000  0.5604400000000  0.5412880000000 1.0
C      1  0.4105230000000  0.4382940000000  0.4570680000000 1.0
C      1  0.5847020000000  0.4351600000000  0.5434010000000 1.0
C      1  0.4091930000000  0.5614440000000  0.4556830000000 1.0
C      1  0.5863200000000  0.5603490000000  0.5408930000000 1.0
C      1  0.4392300000000  0.5484850000000  0.5971760000000 1.0
C      1  0.5645260000000  0.5478390000000  0.4005090000000 1.0
C      1  0.4382090000000  0.4557320000000  0.5980910000000 1.0
C      1  0.5639830000000  0.4538780000000  0.4011230000000 1.0
C      1  0.5664520000000  0.5436530000000  0.5980710000000 1.0
C      1  0.4360420000000  0.5469700000000  0.3984700000000 1.0
C      1  0.5625030000000  0.4535100000000  0.5989170000000 1.0
C      1  0.4365550000000  0.4534230000000  0.4002870000000 1.0
C      1  0.5150260000000  0.4008120000000  0.5512560000000 1.0
C      1  0.4839840000000  0.4107120000000  0.4504250000000 1.0
C      1  0.5136190000000  0.5937730000000  0.5490510000000 1.0
C      1  0.4830090000000  0.5909390000000  0.4480620000000 1.0
C      1  0.4848530000000  0.4010450000000  0.5513500000000 1.0
C      1  0.5161960000000  0.4109070000000  0.4504050000000 1.0
C      1  0.4823790000000  0.5924590000000  0.5509170000000 1.0
C      1  0.5151850000000  0.5904610000000  0.4486170000000 1.0
C      1  0.4434310000000  0.4850430000000  0.4403670000000 1.0
C      1  0.5538550000000  0.4806840000000  0.5563300000000 1.0
C      1  0.4434250000000  0.5186230000000  0.4409450000000 1.0
C      1  0.5579260000000  0.5138500000000  0.5581330000000 1.0
C      1  0.5565790000000  0.4853220000000  0.4412180000000 1.0
C      1  0.4474900000000  0.4827840000000  0.5554950000000 1.0
C      1  0.5567780000000  0.5187700000000  0.4425070000000 1.0
C      1  0.4450360000000  0.5165260000000  0.5573020000000 1.0
C      1  0.4851670000000  0.4468990000000  0.4217280000000 1.0
C      1  0.5162940000000  0.4445750000000  0.5766510000000 1.0
C      1  0.4847860000000  0.5549150000000  0.4201960000000 1.0
C      1  0.5209230000000  0.5519800000000  0.5739200000000 1.0
C      1  0.5149730000000  0.4471390000000  0.4219300000000 1.0
C      1  0.4839980000000  0.4453340000000  0.5763190000000 1.0
C      1  0.5149830000000  0.5547280000000  0.4209540000000 1.0
C      1  0.4901950000000  0.5521650000000  0.5747130000000 1.0
C      1  0.4777030000000  0.5144700000000  0.4114520000000 1.0
C      1  0.5241440000000  0.5128550000000  0.5911840000000 1.0
C      1  0.4774560000000  0.4869800000000  0.4119430000000 1.0
C      1  0.5212380000000  0.4859520000000  0.5915200000000 1.0
C      1  0.5235490000000  0.5146510000000  0.4118350000000 1.0
C      1  0.4782650000000  0.5149470000000  0.5900660000000 1.0
C      1  0.5231160000000  0.4871710000000  0.4122900000000 1.0
C      1  0.4792870000000  0.4876090000000  0.5906320000000 1.0
C      1  0.4501730000000  0.4153300000000  0.4890590000000 1.0
C      1  0.5483750000000  0.4126040000000  0.5177110000000 1.0
C      1  0.4473500000000  0.5891420000000  0.4847640000000 1.0
C      1  0.5481970000000  0.5877500000000  0.5158410000000 1.0
C      1  0.5498600000000  0.4154460000000  0.4891080000000 1.0
C      1  0.4515080000000  0.4129210000000  0.5177420000000 1.0
C      1  0.5509520000000  0.5905730000000  0.4861900000000 1.0
C      1  0.4493240000000  0.5853850000000  0.5139700000000 1.0
C      1  0.4856670000000  0.5363420000000  0.5139590000000 1.0
C      1  0.5179350000000  0.5419230000000  0.4863520000000 1.0
C      1  0.4756400000000  0.4600610000000  0.5191760000000 1.0
C      1  0.5155960000000  0.4576230000000  0.4907320000000 1.0
C      1  0.5164830000000  0.5350120000000  0.5171560000000 1.0
C      1  0.4858850000000  0.5462070000000  0.4832500000000 1.0
C      1  0.5249320000000  0.4601060000000  0.5195000000000 1.0
C      1  0.4846330000000  0.4571990000000  0.4905280000000 1.0
C      1  0.4345160000000  0.4334260000000  0.4398820000000 1.0
C      1  0.5638320000000  0.4283980000000  0.5652780000000 1.0
C      1  0.4328650000000  0.5664850000000  0.4380430000000 1.0
C      1  0.5650350000000  0.5686180000000  0.5612840000000 1.0
C      1  0.5658050000000  0.4337030000000  0.4400440000000 1.0
C      1  0.4364270000000  0.4294300000000  0.5653810000000 1.0
C      1  0.5646680000000  0.5654020000000  0.4391170000000 1.0
C      1  0.4325760000000  0.5669780000000  0.5600630000000 1.0
C      1  0.5215110000000  0.5128770000000  0.5374070000000 1.0
C      1  0.4806320000000  0.5244690000000  0.4638700000000 1.0
C      1  0.5147790000000  0.4823590000000  0.5372530000000 1.0
C      1  0.4788460000000  0.4783970000000  0.4677820000000 1.0
C      1  0.4797200000000  0.5134050000000  0.5340580000000 1.0
C      1  0.5222950000000  0.5208770000000  0.4663780000000 1.0
C      1  0.4859140000000  0.4825860000000  0.5364900000000 1.0
C      1  0.5207390000000  0.4789430000000  0.4681050000000 1.0
C      1  0.6031690000000  0.5170460000000  0.4293140000000 1.0
C      1  0.3994770000000  0.5160280000000  0.5687750000000 1.0
C      1  0.6026420000000  0.4828970000000  0.4292580000000 1.0
C      1  0.3998970000000  0.4825830000000  0.5690730000000 1.0
C      1  0.3971900000000  0.5167780000000  0.4286880000000 1.0
C      1  0.6041020000000  0.5146190000000  0.5690810000000 1.0
C      1  0.3976300000000  0.4825080000000  0.4287550000000 1.0
C      1  0.6018610000000  0.4803290000000  0.5692000000000 1.0
C      1  0.4272620000000  0.5269070000000  0.5777480000000 1.0
C      1  0.5750410000000  0.5284150000000  0.4218530000000 1.0
C      1  0.4282670000000  0.4723730000000  0.5750330000000 1.0
C      1  0.5743880000000  0.4748370000000  0.4207950000000 1.0
C      1  0.5765130000000  0.5236240000000  0.5777150000000 1.0
C      1  0.4251240000000  0.5279010000000  0.4201190000000 1.0
C      1  0.5731020000000  0.4699930000000  0.5757260000000 1.0
C      1  0.4258060000000  0.4744370000000  0.4197760000000 1.0
C      1  0.5378620000000  0.5584210000000  0.5250730000000 1.0
C      1  0.4583230000000  0.5594980000000  0.4796560000000 1.0
C      1  0.5379100000000  0.4365600000000  0.5323780000000 1.0
C      1  0.4590540000000  0.4437940000000  0.4809850000000 1.0
C      1  0.4613060000000  0.5559170000000  0.5213760000000 1.0
C      1  0.5413750000000  0.5606110000000  0.4817540000000 1.0
C      1  0.4624360000000  0.4368220000000  0.5322510000000 1.0
C      1  0.5410990000000  0.4440820000000  0.4811510000000 1.0
C      1  0.4309620000000  0.5197010000000  0.4745760000000 1.0
C      1  0.5659790000000  0.5135020000000  0.5250510000000 1.0
C      1  0.4315780000000  0.4871310000000  0.4705640000000 1.0
C      1  0.5622100000000  0.4793170000000  0.5212410000000 1.0
C      1  0.5685340000000  0.5207610000000  0.4764860000000 1.0
C      1  0.4351910000000  0.5141630000000  0.5235360000000 1.0
C      1  0.5680070000000  0.4880470000000  0.4714320000000 1.0
C      1  0.4387550000000  0.4800440000000  0.5206000000000 1.0
C      1  0.4595550000000  0.5680780000000  0.4505680000000 1.0
C      1  0.5336150000000  0.5698480000000  0.5551770000000 1.0
C      1  0.4609840000000  0.4334040000000  0.4527640000000 1.0
C      1  0.5312100000000  0.4260520000000  0.5601820000000 1.0
C      1  0.5385820000000  0.5679740000000  0.4527150000000 1.0
C      1  0.4605720000000  0.5673640000000  0.5501470000000 1.0
C      1  0.5392990000000  0.4337030000000  0.4528400000000 1.0
C      1  0.4688800000000  0.4266690000000  0.5601910000000 1.0
C      1  0.5344880000000  0.5541350000000  0.3955280000000 1.0
C      1  0.4700820000000  0.5548100000000  0.6004410000000 1.0
C      1  0.5340500000000  0.4474600000000  0.3963670000000 1.0
C      1  0.4677720000000  0.4491840000000  0.6030360000000 1.0
C      1  0.4661980000000  0.5535660000000  0.3941700000000 1.0
C      1  0.5368800000000  0.5516050000000  0.6011530000000 1.0
C      1  0.4665780000000  0.4471450000000  0.3959010000000 1.0
C      1  0.5325200000000  0.4473680000000  0.6036250000000 1.0
C      1  0.5252750000000  0.3992060000000  0.4774920000000 1.0
C      1  0.4747600000000  0.3931390000000  0.5241500000000 1.0
C      1  0.5237140000000  0.6031790000000  0.4756330000000 1.0
C      1  0.4733780000000  0.6026480000000  0.5232450000000 1.0
C      1  0.4748100000000  0.3990340000000  0.4775170000000 1.0
C      1  0.5250500000000  0.3929030000000  0.5240270000000 1.0
C      1  0.4739210000000  0.6033010000000  0.4750340000000 1.0
C      1  0.5225680000000  0.6043970000000  0.5228660000000 1.0
C      1  0.5291250000000  0.4721260000000  0.4397840000000 1.0
C      1  0.4756170000000  0.4735410000000  0.5646220000000 1.0
C      1  0.5289050000000  0.5298590000000  0.4381550000000 1.0
C      1  0.4741450000000  0.5271050000000  0.5616540000000 1.0
C      1  0.4708400000000  0.4717770000000  0.4393120000000 1.0
C      1  0.5251900000000  0.4723440000000  0.5652190000000 1.0
C      1  0.4710010000000  0.5300950000000  0.4370470000000 1.0
C      1  0.5300570000000  0.5241400000000  0.5643900000000 1.0
C      1  0.6045320000000  0.4659530000000  0.4564040000000 1.0
C      1  0.4005530000000  0.4641190000000  0.5422780000000 1.0
C      1  0.6041540000000  0.5343700000000  0.4564640000000 1.0
C      1  0.3968270000000  0.5320820000000  0.5415080000000 1.0
C      1  0.3957370000000  0.4657000000000  0.4559170000000 1.0
C      1  0.6002010000000  0.4625380000000  0.5422070000000 1.0
C      1  0.3950280000000  0.5339630000000  0.4556220000000 1.0
C      1  0.6023310000000  0.5321030000000  0.5414040000000 1.0
C      1  0.5154120000000  0.4699710000000  0.6169070000000 1.0
C      1  0.4851700000000  0.4711050000000  0.3874280000000 1.0
C      1  0.5174460000000  0.5308920000000  0.6147160000000 1.0
C      1  0.4855680000000  0.5296770000000  0.3866420000000 1.0
C      1  0.4849760000000  0.4714610000000  0.6159950000000 1.0
C      1  0.5154960000000  0.4713320000000  0.3876290000000 1.0
C      1  0.4872390000000  0.5320580000000  0.6136070000000 1.0
C      1  0.5159260000000  0.5300330000000  0.3870050000000 1.0
C      1  0.5851100000000  0.4212380000000  0.4841600000000 1.0
C      1  0.4201760000000  0.4187790000000  0.5189080000000 1.0
C      1  0.5850930000000  0.5794000000000  0.4817400000000 1.0
C      1  0.4170540000000  0.5770540000000  0.5155450000000 1.0
C      1  0.4149970000000  0.4213970000000  0.4840660000000 1.0
C      1  0.5797200000000  0.4178730000000  0.5187150000000 1.0
C      1  0.4128920000000  0.5791640000000  0.4812700000000 1.0
C      1  0.5796400000000  0.5768950000000  0.5152650000000 1.0
C      1  0.5555610000000  0.4705090000000  0.4912290000000 1.0
C      1  0.4445990000000  0.5346680000000  0.4993400000000 1.0
C      1  0.5559850000000  0.5360070000000  0.5030430000000 1.0
C      1  0.4445240000000  0.4702100000000  0.4905570000000 1.0
C      1  0.4999610000000  0.3893450000000  0.4996300000000 1.0
C      1  0.4985820000000  0.6096320000000  0.4988440000000 1.0
C      1  0.4990660000000  0.5007460000000  0.4688660000000 1.0
END
