TITL C-862502-1143-148 -26300.1438404319 125000 -191.551324750118 0 0 34 (C1) n - 1
REM
REM in /home/nfs/bkarasulu/CARBON/AIRSS/Generating-Clusters/TERSOFF/Higher-Symm/FIRE-HFTN
REM
REM
REM
REM
REM
REM ./C.cell (b20cbc046b6831c77cfcea5457e17084)
REM AIRSS Version 0.9.1 bugfix July 2018 build 013d7b7c2542+ Fri, 06 Jul 2018 19:26:36 +0100
REM compiler GCC version 9.2.1 20190827 (Red Hat 9.2.1-1)
REM options -cpp -mtune=generic -march=x86-64 -g -O0 -fpre-include=/usr/include/finclude/math-vector-fortran.h
REM seed 1233424523 1884059874 -878917363 -636088013 490958128 -1761069851 -1273148310 1729374770 256426661 -34320814 -455769829 -1760599938 1639694435 -19136674 -1254863947 -433823210 417351197 -1711519765 1657394782 -1590876465 1652847840 -1501166104 -1939474070 491096788 70445686 790453595 -290993836 712804625 1763217262 1165563974 1786783725 1488208583 -536713781
REM
CELL 1.54180   50.00000   50.00000   50.00000   90.00000   90.00000   90.00000
LATT -1
SFAC C  
C      1  0.5040720000000  0.5495630000000  0.5039010000000 1.0
C      1  0.4952040000000  0.5414460000000  0.5525030000000 1.0
C      1  0.4859970000000  0.4681200000000  0.5300760000000 1.0
C      1  0.4991250000000  0.4789740000000  0.4419980000000 1.0
C      1  0.5149660000000  0.4678040000000  0.5311800000000 1.0
C      1  0.5531040000000  0.5207960000000  0.4849850000000 1.0
C      1  0.4903160000000  0.4500330000000  0.4421970000000 1.0
C      1  0.4945760000000  0.5761510000000  0.4971180000000 1.0
C      1  0.5295880000000  0.4845220000000  0.4383650000000 1.0
C      1  0.4368890000000  0.4757070000000  0.4845740000000 1.0
C      1  0.4643940000000  0.4646080000000  0.4825380000000 1.0
C      1  0.4727470000000  0.4532520000000  0.5089550000000 1.0
C      1  0.4845470000000  0.4929630000000  0.4196600000000 1.0
C      1  0.5292530000000  0.4714020000000  0.5562990000000 1.0
C      1  0.5684600000000  0.5007150000000  0.4700950000000 1.0
C      1  0.5489780000000  0.5189520000000  0.5581480000000 1.0
C      1  0.5142830000000  0.5435800000000  0.5305920000000 1.0
C      1  0.4794740000000  0.5149450000000  0.4763530000000 1.0
C      1  0.5262960000000  0.5109990000000  0.4822280000000 1.0
C      1  0.5336350000000  0.4969930000000  0.5693830000000 1.0
C      1  0.4567010000000  0.5089760000000  0.5406100000000 1.0
C      1  0.5228390000000  0.4823420000000  0.4832160000000 1.0
C      1  0.4706850000000  0.4846940000000  0.5481980000000 1.0
C      1  0.4318220000000  0.5072520000000  0.5252250000000 1.0
C      1  0.5601980000000  0.5324400000000  0.5106580000000 1.0
C      1  0.5290360000000  0.4661600000000  0.5061290000000 1.0
C      1  0.4825190000000  0.4867470000000  0.4688060000000 1.0
C      1  0.4302100000000  0.5013520000000  0.4966820000000 1.0
C      1  0.5539690000000  0.4797460000000  0.4551420000000 1.0
C      1  0.5419920000000  0.5333530000000  0.5338400000000 1.0
C      1  0.5036810000000  0.5281580000000  0.4844630000000 1.0
C      1  0.4669720000000  0.5349290000000  0.5493630000000 1.0
C      1  0.4539330000000  0.5286200000000  0.4752890000000 1.0
C      1  0.4695410000000  0.4437060000000  0.4612310000000 1.0
END
