TITL C-862503-991-93 2.13630674160166e-07 125000 -154.390617925496 0 0 30 (D4h) n - 1
REM
REM in /home/nfs/bkarasulu/CARBON/AIRSS/Generating-Clusters/TERSOFF/Higher-Symm/FIRE-HFTN
REM
REM
REM
REM
REM
REM ./C.cell (b20cbc046b6831c77cfcea5457e17084)
REM AIRSS Version 0.9.1 bugfix July 2018 build 013d7b7c2542+ Fri, 06 Jul 2018 19:26:36 +0100
REM compiler GCC version 9.2.1 20190827 (Red Hat 9.2.1-1)
REM options -cpp -mtune=generic -march=x86-64 -g -O0 -fpre-include=/usr/include/finclude/math-vector-fortran.h
REM seed 357734485 -1880149288 -1525943013 -1008368926 472351492 823838753 -461854130 -75109053 59060873 -433888964 -569688834 -2088734063 -361339410 -1662613377 -52589442 1421461670 -841254441 -959510882 2023230959 88209522 -1006734162 -2123887555 -982549742 -937755499 1055938359 -1026194016 387617173 228478949 1868783699 -881529704 -700083191 2070688782 1332001691
REM
CELL 1.54180   50.00000   50.00000   50.00000   90.00000   90.00000   90.00000
LATT -1
SFAC C  
C      1  0.5244580000000  0.4656920000000  0.4833320000000 1.0
C      1  0.5244580000000  0.5165650000000  0.4658670000000 1.0
C      1  0.5244580000000  0.5340300000000  0.5167400000000 1.0
C      1  0.5244580000000  0.4831570000000  0.5342050000000 1.0
C      1  0.4715490000000  0.4656920000000  0.4833320000000 1.0
C      1  0.4715490000000  0.5165650000000  0.4658670000000 1.0
C      1  0.4715490000000  0.5340300000000  0.5167400000000 1.0
C      1  0.4715490000000  0.4831570000000  0.5342050000000 1.0
C      1  0.4543080000000  0.5096720000000  0.5286140000000 1.0
C      1  0.4543080000000  0.4712830000000  0.5098470000000 1.0
C      1  0.4543080000000  0.4900500000000  0.4714580000000 1.0
C      1  0.4543080000000  0.5284390000000  0.4902250000000 1.0
C      1  0.5416990000000  0.5096720000000  0.5286140000000 1.0
C      1  0.5416990000000  0.4712830000000  0.5098470000000 1.0
C      1  0.5416990000000  0.4900500000000  0.4714580000000 1.0
C      1  0.5416990000000  0.5284390000000  0.4902250000000 1.0
C      1  0.5128130000000  0.5288740000000  0.4406880000000 1.0
C      1  0.5128130000000  0.5592090000000  0.5290490000000 1.0
C      1  0.5128130000000  0.4708480000000  0.5593830000000 1.0
C      1  0.5128130000000  0.4405140000000  0.4710230000000 1.0
C      1  0.4831950000000  0.5288740000000  0.4406880000000 1.0
C      1  0.4831950000000  0.5592090000000  0.5290490000000 1.0
C      1  0.4831950000000  0.4708480000000  0.5593830000000 1.0
C      1  0.4831950000000  0.4405140000000  0.4710230000000 1.0
C      1  0.4980040000000  0.5095140000000  0.4802900000000 1.0
C      1  0.4980040000000  0.4801160000000  0.4903830000000 1.0
C      1  0.4980040000000  0.5196070000000  0.5096890000000 1.0
C      1  0.4980040000000  0.4902080000000  0.5197810000000 1.0
C      1  0.4358760000000  0.4998610000000  0.5000360000000 1.0
C      1  0.5601310000000  0.4998610000000  0.5000360000000 1.0
END
