TITL C-862131-2149-188 -0.00336654928583922 125000 -672.538534688042 0 0 113 (C5) n - 1
REM
REM in /home/nfs/bkarasulu/CARBON/AIRSS/Generating-Clusters/TERSOFF/Higher-Symm/FIRE-HFTN
REM
REM
REM
REM
REM
REM ./C.cell (b20cbc046b6831c77cfcea5457e17084)
REM AIRSS Version 0.9.1 bugfix July 2018 build 013d7b7c2542+ Fri, 06 Jul 2018 19:26:36 +0100
REM compiler GCC version 9.2.1 20190827 (Red Hat 9.2.1-1)
REM options -cpp -mtune=generic -march=x86-64 -g -O0 -fpre-include=/usr/include/finclude/math-vector-fortran.h
REM seed 1507474168 -1852658330 437791231 1301784028 404332598 -1223225896 -1734314003 -172135353 -667722477 68870417 -2029243095 1100958960 -1321752042 1533296844 -58771696 2096371342 1557776928 527136582 976825133 1243028756 -25093982 -1970633925 261130974 -187424302 -1192447106 -918111736 -1920295942 214439211 1532036685 615930409 1536648737 1024752281 688067959
REM
CELL 1.54180   50.00000   50.00000   50.00000   90.00000   90.00000   90.00000
LATT -1
SFAC C  
C      1  0.5368630000000  0.5605040000000  0.5477390000000 1.0
C      1  0.4942660000000  0.5700920000000  0.4517140000000 1.0
C      1  0.4540820000000  0.5531120000000  0.5477390000000 1.0
C      1  0.4317990000000  0.5155630000000  0.4517150000000 1.0
C      1  0.4355310000000  0.4720990000000  0.5477400000000 1.0
C      1  0.4643560000000  0.4393040000000  0.4517150000000 1.0
C      1  0.5068470000000  0.4294210000000  0.5477400000000 1.0
C      1  0.5469440000000  0.4467020000000  0.4517150000000 1.0
C      1  0.5694730000000  0.4840590000000  0.5477390000000 1.0
C      1  0.5654290000000  0.5275340000000  0.4517150000000 1.0
C      1  0.5840810000000  0.5298330000000  0.4783880000000 1.0
C      1  0.5505690000000  0.5733150000000  0.5210430000000 1.0
C      1  0.4978430000000  0.5885420000000  0.4783880000000 1.0
C      1  0.4461330000000  0.5701070000000  0.5210430000000 1.0
C      1  0.4153580000000  0.5246660000000  0.4783880000000 1.0
C      1  0.4169120000000  0.4697910000000  0.5210430000000 1.0
C      1  0.4506180000000  0.4264800000000  0.4783880000000 1.0
C      1  0.5032880000000  0.4110010000000  0.5210430000000 1.0
C      1  0.5548950000000  0.4296730000000  0.4783880000000 1.0
C      1  0.5858930000000  0.4749820000000  0.5210430000000 1.0
C      1  0.4718780000000  0.5345120000000  0.4930620000000 1.0
C      1  0.4570610000000  0.5109930000000  0.5065570000000 1.0
C      1  0.4587210000000  0.4832760000000  0.4930620000000 1.0
C      1  0.4765090000000  0.4619160000000  0.5065570000000 1.0
C      1  0.5033830000000  0.4549300000000  0.4930620000000 1.0
C      1  0.5291940000000  0.4652470000000  0.5065570000000 1.0
C      1  0.5441430000000  0.4886470000000  0.4930620000000 1.0
C      1  0.5423060000000  0.5163830000000  0.5065570000000 1.0
C      1  0.5246720000000  0.5378310000000  0.4930620000000 1.0
C      1  0.4977260000000  0.5446550000000  0.5065560000000 1.0
C      1  0.4166760000000  0.5677330000000  0.5102280000000 1.0
C      1  0.3928730000000  0.5054680000000  0.4891340000000 1.0
C      1  0.4100670000000  0.4410420000000  0.5102290000000 1.0
C      1  0.4619280000000  0.3991630000000  0.4891350000000 1.0
C      1  0.5285150000000  0.3956070000000  0.5102290000000 1.0
C      1  0.5843700000000  0.4319880000000  0.4891350000000 1.0
C      1  0.6083290000000  0.4942170000000  0.5102290000000 1.0
C      1  0.5909880000000  0.5585810000000  0.4891340000000 1.0
C      1  0.5392080000000  0.6005970000000  0.5102280000000 1.0
C      1  0.4726360000000  0.6039940000000  0.4891340000000 1.0
C      1  0.5700040000000  0.5260070000000  0.5053290000000 1.0
C      1  0.5413870000000  0.5618600000000  0.4941550000000 1.0
C      1  0.4971320000000  0.5739720000000  0.5053290000000 1.0
C      1  0.4541900000000  0.5578340000000  0.4941550000000 1.0
C      1  0.4289960000000  0.5194870000000  0.5053290000000 1.0
C      1  0.4310740000000  0.4736610000000  0.4941550000000 1.0
C      1  0.4597580000000  0.4378500000000  0.5053300000000 1.0
C      1  0.5039840000000  0.4256650000000  0.4941550000000 1.0
C      1  0.5469060000000  0.4418790000000  0.5053300000000 1.0
C      1  0.5721610000000  0.4801750000000  0.4941550000000 1.0
C      1  0.4923420000000  0.5249610000000  0.5755360000000 1.0
C      1  0.4791550000000  0.5153020000000  0.4238360000000 1.0
C      1  0.4741280000000  0.4997870000000  0.5755360000000 1.0
C      1  0.4792380000000  0.4842610000000  0.4238360000000 1.0
C      1  0.4924410000000  0.4746850000000  0.5755360000000 1.0
C      1  0.5087860000000  0.4747480000000  0.4238360000000 1.0
C      1  0.5219740000000  0.4843450000000  0.5755360000000 1.0
C      1  0.5269640000000  0.4999100000000  0.4238360000000 1.0
C      1  0.5219120000000  0.5154180000000  0.5755360000000 1.0
C      1  0.5086510000000  0.5249740000000  0.4238360000000 1.0
C      1  0.4976170000000  0.5352460000000  0.5340570000000 1.0
C      1  0.4774550000000  0.5268370000000  0.4655670000000 1.0
C      1  0.4659760000000  0.5079820000000  0.5340570000000 1.0
C      1  0.4677430000000  0.4862090000000  0.4655670000000 1.0
C      1  0.4821280000000  0.4694650000000  0.5340570000000 1.0
C      1  0.5033820000000  0.4644170000000  0.4655670000000 1.0
C      1  0.5237510000000  0.4729240000000  0.5340570000000 1.0
C      1  0.5351190000000  0.4915780000000  0.4655670000000 1.0
C      1  0.5333240000000  0.5135790000000  0.5340570000000 1.0
C      1  0.5190960000000  0.5301550000000  0.4655670000000 1.0
C      1  0.5844170000000  0.5273110000000  0.5302260000000 1.0
C      1  0.5521750000000  0.5713370000000  0.4691840000000 1.0
C      1  0.5003460000000  0.5880820000000  0.5302260000000 1.0
C      1  0.4485110000000  0.5710220000000  0.4691840000000 1.0
C      1  0.4165700000000  0.5269040000000  0.5302260000000 1.0
C      1  0.4167760000000  0.4723350000000  0.4691850000000 1.0
C      1  0.4488640000000  0.4283240000000  0.5302260000000 1.0
C      1  0.5008260000000  0.4116570000000  0.4691850000000 1.0
C      1  0.5526000000000  0.4285750000000  0.5302260000000 1.0
C      1  0.5845080000000  0.4728430000000  0.4691850000000 1.0
C      1  0.5486140000000  0.5532250000000  0.4465840000000 1.0
C      1  0.5081130000000  0.5714070000000  0.5528670000000 1.0
C      1  0.4646360000000  0.5620390000000  0.4465840000000 1.0
C      1  0.4348290000000  0.5291390000000  0.5528670000000 1.0
C      1  0.4303020000000  0.4848940000000  0.4465840000000 1.0
C      1  0.4523810000000  0.4463800000000  0.5528670000000 1.0
C      1  0.4930610000000  0.4284020000000  0.4465840000000 1.0
C      1  0.5365140000000  0.4375000000000  0.5528670000000 1.0
C      1  0.5661820000000  0.4706330000000  0.4465840000000 1.0
C      1  0.5709580000000  0.5147700000000  0.5528670000000 1.0
C      1  0.5804450000000  0.5698110000000  0.5146640000000 1.0
C      1  0.5240440000000  0.6033640000000  0.4847000000000 1.0
C      1  0.4586980000000  0.5974380000000  0.5146630000000 1.0
C      1  0.4093580000000  0.5541650000000  0.4847000000000 1.0
C      1  0.3948010000000  0.4901860000000  0.5146640000000 1.0
C      1  0.4207090000000  0.4298890000000  0.4847010000000 1.0
C      1  0.4770590000000  0.3962740000000  0.5146640000000 1.0
C      1  0.5424100000000  0.4022820000000  0.4847010000000 1.0
C      1  0.5917930000000  0.4454860000000  0.5146640000000 1.0
C      1  0.6062740000000  0.5094950000000  0.4847000000000 1.0
C      1  0.5431930000000  0.5303420000000  0.5571770000000 1.0
C      1  0.5170230000000  0.5493370000000  0.4423560000000 1.0
C      1  0.4847240000000  0.5498130000000  0.5571770000000 1.0
C      1  0.4585710000000  0.5307930000000  0.4423560000000 1.0
C      1  0.4481380000000  0.5002210000000  0.5571770000000 1.0
C      1  0.4581450000000  0.4694710000000  0.4423560000000 1.0
C      1  0.4839970000000  0.4501020000000  0.5571770000000 1.0
C      1  0.5163340000000  0.4501160000000  0.4423560000000 1.0
C      1  0.5427440000000  0.4687180000000  0.5571770000000 1.0
C      1  0.5527230000000  0.4994770000000  0.4423560000000 1.0
C      1  0.5005590000000  0.4998390000000  0.5380050000000 1.0
C      1  0.5005590000000  0.4998390000000  0.4631580000000 1.0
C      1  0.5005590000000  0.4998390000000  0.4957620000000 1.0
END
