TITL C-862500-986-611 14.940468577446 125000 -960.883655127041 0 0 162 (C1) n - 1
REM
REM in /home/nfs/bkarasulu/CARBON/AIRSS/Generating-Clusters/TERSOFF/Higher-Symm/FIRE-HFTN
REM
REM
REM
REM
REM
REM ./C.cell (b20cbc046b6831c77cfcea5457e17084)
REM AIRSS Version 0.9.1 bugfix July 2018 build 013d7b7c2542+ Fri, 06 Jul 2018 19:26:36 +0100
REM compiler GCC version 9.2.1 20190827 (Red Hat 9.2.1-1)
REM options -cpp -mtune=generic -march=x86-64 -g -O0 -fpre-include=/usr/include/finclude/math-vector-fortran.h
REM seed -1776068804 1054779693 1219049118 2110926876 -1516006730 -751977689 -232350140 -758660681 -796885018 -2125549326 -1213803430 1513148230 -102468798 924258941 1880244178 -109836925 -553018055 -1154248476 -350004172 -1887660025 -328301035 -766147359 -915182117 -1435891189 1983618464 -67556690 136006618 324514851 2064520776 1465302370 -302670023 417796449 66599501
REM
CELL 1.54180   50.00000   50.00000   50.00000   90.00000   90.00000   90.00000
LATT -1
SFAC C  
C      1  0.5614450000000  0.5351730000000  0.5448730000000 1.0
C      1  0.4376310000000  0.5377120000000  0.5442220000000 1.0
C      1  0.5629570000000  0.5930770000000  0.4700860000000 1.0
C      1  0.4335060000000  0.5910750000000  0.4691380000000 1.0
C      1  0.4687910000000  0.4655550000000  0.4687140000000 1.0
C      1  0.5315250000000  0.4656350000000  0.4687060000000 1.0
C      1  0.5138590000000  0.5255890000000  0.5289950000000 1.0
C      1  0.4849780000000  0.5265090000000  0.5289670000000 1.0
C      1  0.5249210000000  0.5312370000000  0.5030310000000 1.0
C      1  0.4737770000000  0.5325060000000  0.5029340000000 1.0
C      1  0.5529710000000  0.5759420000000  0.4936460000000 1.0
C      1  0.4498640000000  0.5826560000000  0.4928620000000 1.0
C      1  0.5272310000000  0.4163780000000  0.5655560000000 1.0
C      1  0.4730590000000  0.4157290000000  0.5654550000000 1.0
C      1  0.5147860000000  0.4118310000000  0.5399230000000 1.0
C      1  0.4857700000000  0.4112980000000  0.5399480000000 1.0
C      1  0.4258510000000  0.5239830000000  0.5130020000000 1.0
C      1  0.5731730000000  0.5218200000000  0.5135050000000 1.0
C      1  0.4701280000000  0.6059910000000  0.5443460000000 1.0
C      1  0.5362420000000  0.6066210000000  0.5395050000000 1.0
C      1  0.5868220000000  0.4950670000000  0.5125260000000 1.0
C      1  0.4125670000000  0.4969800000000  0.5127830000000 1.0
C      1  0.4141870000000  0.5581860000000  0.4425210000000 1.0
C      1  0.5841980000000  0.5595830000000  0.4443610000000 1.0
C      1  0.5145990000000  0.5574950000000  0.5589970000000 1.0
C      1  0.4859410000000  0.5573870000000  0.5608260000000 1.0
C      1  0.5525460000000  0.3868090000000  0.5187390000000 1.0
C      1  0.4487310000000  0.3853310000000  0.5185610000000 1.0
C      1  0.3969710000000  0.4898660000000  0.5591920000000 1.0
C      1  0.6032840000000  0.4911160000000  0.5621780000000 1.0
C      1  0.4265920000000  0.4355520000000  0.5782860000000 1.0
C      1  0.5731770000000  0.4365690000000  0.5795920000000 1.0
C      1  0.5154030000000  0.3908800000000  0.4784430000000 1.0
C      1  0.4853000000000  0.3909480000000  0.4784650000000 1.0
C      1  0.5293410000000  0.5191730000000  0.4591040000000 1.0
C      1  0.4696550000000  0.5190440000000  0.4587650000000 1.0
C      1  0.5550860000000  0.4819050000000  0.3929650000000 1.0
C      1  0.4450440000000  0.4801360000000  0.3927620000000 1.0
C      1  0.5156490000000  0.5118610000000  0.4831130000000 1.0
C      1  0.4829640000000  0.5125400000000  0.4830970000000 1.0
C      1  0.4857030000000  0.5994610000000  0.5200950000000 1.0
C      1  0.5174060000000  0.6033520000000  0.5169250000000 1.0
C      1  0.5470470000000  0.5842990000000  0.5558990000000 1.0
C      1  0.4552260000000  0.5860050000000  0.5607560000000 1.0
C      1  0.5175700000000  0.5212710000000  0.5856000000000 1.0
C      1  0.4814950000000  0.5211310000000  0.5854470000000 1.0
C      1  0.5639020000000  0.5651430000000  0.5412320000000 1.0
C      1  0.4345590000000  0.5681520000000  0.5482190000000 1.0
C      1  0.4406220000000  0.5237610000000  0.4606410000000 1.0
C      1  0.5584140000000  0.5239530000000  0.4613790000000 1.0
C      1  0.4720020000000  0.6077730000000  0.4675100000000 1.0
C      1  0.5274780000000  0.6140120000000  0.4619410000000 1.0
C      1  0.5846570000000  0.4733970000000  0.5484210000000 1.0
C      1  0.4157080000000  0.4717130000000  0.5461670000000 1.0
C      1  0.4009640000000  0.4835900000000  0.4887370000000 1.0
C      1  0.5988060000000  0.4826920000000  0.4882200000000 1.0
C      1  0.5913750000000  0.5881220000000  0.4815890000000 1.0
C      1  0.4055420000000  0.5863220000000  0.4802170000000 1.0
C      1  0.5284180000000  0.5489920000000  0.5977060000000 1.0
C      1  0.4724470000000  0.5479310000000  0.5994370000000 1.0
C      1  0.4051900000000  0.5570490000000  0.4729450000000 1.0
C      1  0.5930390000000  0.5583800000000  0.4749740000000 1.0
C      1  0.4714760000000  0.5472450000000  0.4183970000000 1.0
C      1  0.5278810000000  0.5480620000000  0.4190630000000 1.0
C      1  0.5622690000000  0.5805670000000  0.4425770000000 1.0
C      1  0.4363390000000  0.5791900000000  0.4415940000000 1.0
C      1  0.6063860000000  0.4912310000000  0.5909560000000 1.0
C      1  0.3930090000000  0.4903370000000  0.5878620000000 1.0
C      1  0.5739270000000  0.5336770000000  0.4382680000000 1.0
C      1  0.4250990000000  0.5324840000000  0.4370630000000 1.0
C      1  0.4488000000000  0.4513120000000  0.4022170000000 1.0
C      1  0.5509550000000  0.4530090000000  0.4014610000000 1.0
C      1  0.4373330000000  0.5163560000000  0.6098920000000 1.0
C      1  0.5608360000000  0.5172670000000  0.6113350000000 1.0
C      1  0.4681990000000  0.4340770000000  0.3887690000000 1.0
C      1  0.5309890000000  0.4368550000000  0.3875450000000 1.0
C      1  0.5714040000000  0.5732260000000  0.5153900000000 1.0
C      1  0.4403450000000  0.5953200000000  0.5167450000000 1.0
C      1  0.4145760000000  0.4597960000000  0.4445370000000 1.0
C      1  0.5854470000000  0.4598510000000  0.4436260000000 1.0
C      1  0.5140210000000  0.5314830000000  0.4378670000000 1.0
C      1  0.4852300000000  0.5309510000000  0.4374360000000 1.0
C      1  0.4687570000000  0.5016420000000  0.3907440000000 1.0
C      1  0.5312630000000  0.5029650000000  0.3909610000000 1.0
C      1  0.4308320000000  0.4824050000000  0.4362240000000 1.0
C      1  0.5693870000000  0.4829440000000  0.4362780000000 1.0
C      1  0.5146870000000  0.5031780000000  0.3663340000000 1.0
C      1  0.4854900000000  0.5021380000000  0.3662180000000 1.0
C      1  0.4294240000000  0.5225080000000  0.4106810000000 1.0
C      1  0.5702520000000  0.5239880000000  0.4116320000000 1.0
C      1  0.4760620000000  0.4178910000000  0.4897110000000 1.0
C      1  0.5243940000000  0.4179450000000  0.4894010000000 1.0
C      1  0.5743580000000  0.4954500000000  0.4104200000000 1.0
C      1  0.4257540000000  0.4939780000000  0.4100010000000 1.0
C      1  0.4090670000000  0.4746470000000  0.6061530000000 1.0
C      1  0.5897620000000  0.4753810000000  0.6086080000000 1.0
C      1  0.5814820000000  0.5268210000000  0.5657180000000 1.0
C      1  0.4176210000000  0.5261210000000  0.5639220000000 1.0
C      1  0.4860910000000  0.6158680000000  0.4918980000000 1.0
C      1  0.5168190000000  0.6206870000000  0.4887870000000 1.0
C      1  0.5695670000000  0.4010000000000  0.5415480000000 1.0
C      1  0.4311980000000  0.3995050000000  0.5409340000000 1.0
C      1  0.5668530000000  0.4597570000000  0.5992090000000 1.0
C      1  0.4323110000000  0.4590690000000  0.5975510000000 1.0
C      1  0.4856260000000  0.4376020000000  0.5791170000000 1.0
C      1  0.5141700000000  0.4377960000000  0.5794150000000 1.0
C      1  0.5130930000000  0.4467830000000  0.3669110000000 1.0
C      1  0.4844050000000  0.4419690000000  0.3660260000000 1.0
C      1  0.4862230000000  0.4597160000000  0.5241620000000 1.0
C      1  0.5155340000000  0.4600790000000  0.5248580000000 1.0
C      1  0.4683710000000  0.4694270000000  0.5452420000000 1.0
C      1  0.5320650000000  0.4703780000000  0.5466650000000 1.0
C      1  0.4354130000000  0.4413520000000  0.4286590000000 1.0
C      1  0.5641020000000  0.4421880000000  0.4276260000000 1.0
C      1  0.5874240000000  0.4451430000000  0.5550270000000 1.0
C      1  0.4127710000000  0.4436300000000  0.5533340000000 1.0
C      1  0.5259150000000  0.4632180000000  0.5742350000000 1.0
C      1  0.4737070000000  0.4627830000000  0.5731560000000 1.0
C      1  0.5441840000000  0.5313740000000  0.3997730000000 1.0
C      1  0.4554870000000  0.5301120000000  0.3991440000000 1.0
C      1  0.5577160000000  0.4836730000000  0.5405710000000 1.0
C      1  0.4425910000000  0.4817780000000  0.5379000000000 1.0
C      1  0.5788570000000  0.5315590000000  0.5941990000000 1.0
C      1  0.4186670000000  0.5296850000000  0.5926630000000 1.0
C      1  0.4857990000000  0.4946080000000  0.4143660000000 1.0
C      1  0.5143130000000  0.4955210000000  0.4145700000000 1.0
C      1  0.4275330000000  0.5373230000000  0.4856060000000 1.0
C      1  0.5712500000000  0.5366470000000  0.4867770000000 1.0
C      1  0.4606390000000  0.5023750000000  0.5999550000000 1.0
C      1  0.5378980000000  0.5028280000000  0.6012600000000 1.0
C      1  0.5877810000000  0.4589860000000  0.4736320000000 1.0
C      1  0.4125680000000  0.4597340000000  0.4746220000000 1.0
C      1  0.4517860000000  0.4261780000000  0.4473010000000 1.0
C      1  0.5475500000000  0.4268150000000  0.4460720000000 1.0
C      1  0.5414420000000  0.4744550000000  0.5946530000000 1.0
C      1  0.4574930000000  0.4740670000000  0.5930170000000 1.0
C      1  0.4840940000000  0.5918050000000  0.4453790000000 1.0
C      1  0.5148610000000  0.5944540000000  0.4427990000000 1.0
C      1  0.4696130000000  0.5319480000000  0.5530680000000 1.0
C      1  0.5297130000000  0.5308200000000  0.5530140000000 1.0
C      1  0.4121640000000  0.4215800000000  0.5338740000000 1.0
C      1  0.5884370000000  0.4234590000000  0.5351350000000 1.0
C      1  0.5300850000000  0.5742210000000  0.5792810000000 1.0
C      1  0.4723270000000  0.5737920000000  0.5829800000000 1.0
C      1  0.5316530000000  0.4089350000000  0.5167890000000 1.0
C      1  0.4691180000000  0.4079690000000  0.5168590000000 1.0
C      1  0.5344780000000  0.3731500000000  0.4949920000000 1.0
C      1  0.4665690000000  0.3725750000000  0.4943980000000 1.0
C      1  0.4442760000000  0.4116910000000  0.5672670000000 1.0
C      1  0.5559860000000  0.4126790000000  0.5677840000000 1.0
C      1  0.4719740000000  0.5618110000000  0.4925160000000 1.0
C      1  0.5280250000000  0.5599420000000  0.4932330000000 1.0
C      1  0.4323730000000  0.4429220000000  0.4877040000000 1.0
C      1  0.5681470000000  0.4419070000000  0.4864190000000 1.0
C      1  0.5412490000000  0.4813330000000  0.4453240000000 1.0
C      1  0.4590270000000  0.4807960000000  0.4450600000000 1.0
C      1  0.5157610000000  0.4805100000000  0.4881770000000 1.0
C      1  0.4843160000000  0.4809710000000  0.4880000000000 1.0
C      1  0.4638470000000  0.5745000000000  0.4294150000000 1.0
C      1  0.5353370000000  0.5754730000000  0.4294670000000 1.0
C      1  0.5413710000000  0.4367560000000  0.4737830000000 1.0
C      1  0.4587820000000  0.4367900000000  0.4744950000000 1.0
END
