TITL C-862134-6730-154 -0.000234313640926925 125000 -752.838353696878 0 0 138 (C3) n - 1
REM
REM in /home/nfs/bkarasulu/CARBON/AIRSS/Generating-Clusters/TERSOFF/Higher-Symm/FIRE-HFTN
REM
REM
REM
REM
REM
REM ./C.cell (b20cbc046b6831c77cfcea5457e17084)
REM AIRSS Version 0.9.1 bugfix July 2018 build 013d7b7c2542+ Fri, 06 Jul 2018 19:26:36 +0100
REM compiler GCC version 9.2.1 20190827 (Red Hat 9.2.1-1)
REM options -cpp -mtune=generic -march=x86-64 -g -O0 -fpre-include=/usr/include/finclude/math-vector-fortran.h
REM seed 1192480253 -1971932526 -68703550 1219856942 -388427357 -1798159471 874984970 -637244536 877881729 655084544 -803999980 -1489303670 1251369649 -1453156290 -422472486 84867998 515086809 -483484202 -1798317415 143562608 799688004 -104360873 1124992010 1514153190 1761765683 1707939167 1669383038 329784351 -1916217134 -1738362767 1540057726 1902647228 1922323075
REM
CELL 1.54180   50.00000   50.00000   50.00000   90.00000   90.00000   90.00000
LATT -1
SFAC C  
C      1  0.4153810000000  0.4761620000000  0.4478030000000 1.0
C      1  0.4971060000000  0.4761620000000  0.5993810000000 1.0
C      1  0.5875130000000  0.4761620000000  0.4528160000000 1.0
C      1  0.4586760000000  0.5462890000000  0.4968130000000 1.0
C      1  0.5179020000000  0.5462890000000  0.5373810000000 1.0
C      1  0.5234220000000  0.5462890000000  0.4658060000000 1.0
C      1  0.4919650000000  0.5247440000000  0.4833490000000 1.0
C      1  0.4895970000000  0.5247440000000  0.5152840000000 1.0
C      1  0.5184370000000  0.5247440000000  0.5013670000000 1.0
C      1  0.4151660000000  0.4464260000000  0.4522240000000 1.0
C      1  0.5010410000000  0.4464260000000  0.5973570000000 1.0
C      1  0.5837930000000  0.4464260000000  0.4504200000000 1.0
C      1  0.4586500000000  0.5356460000000  0.4078480000000 1.0
C      1  0.4408700000000  0.5356460000000  0.5818860000000 1.0
C      1  0.6004810000000  0.5356460000000  0.5102650000000 1.0
C      1  0.6102050000000  0.4958890000000  0.4488500000000 1.0
C      1  0.4006000000000  0.4958890000000  0.4301350000000 1.0
C      1  0.4891950000000  0.4958890000000  0.6210150000000 1.0
C      1  0.4115160000000  0.4866490000000  0.5149730000000 1.0
C      1  0.5572090000000  0.4866490000000  0.5691430000000 1.0
C      1  0.5312750000000  0.4866490000000  0.4158840000000 1.0
C      1  0.4757030000000  0.5107670000000  0.4042920000000 1.0
C      1  0.4292630000000  0.5107670000000  0.5688960000000 1.0
C      1  0.5950340000000  0.5107670000000  0.5268120000000 1.0
C      1  0.5460770000000  0.5458650000000  0.4197790000000 1.0
C      1  0.4074880000000  0.5458650000000  0.5002070000000 1.0
C      1  0.5464350000000  0.5458650000000  0.5800140000000 1.0
C      1  0.5254780000000  0.5749430000000  0.4821420000000 1.0
C      1  0.4717960000000  0.5749430000000  0.4868640000000 1.0
C      1  0.5027260000000  0.5749430000000  0.5309940000000 1.0
C      1  0.4326120000000  0.4250600000000  0.5230560000000 1.0
C      1  0.5536610000000  0.4250600000000  0.5468320000000 1.0
C      1  0.5137270000000  0.4250600000000  0.4301120000000 1.0
C      1  0.5919300000000  0.5584220000000  0.5285170000000 1.0
C      1  0.4787310000000  0.5584220000000  0.4061280000000 1.0
C      1  0.4293390000000  0.5584220000000  0.5653550000000 1.0
C      1  0.4611780000000  0.4702740000000  0.4744920000000 1.0
C      1  0.4973210000000  0.4702740000000  0.5463750000000 1.0
C      1  0.5415010000000  0.4702740000000  0.4791330000000 1.0
C      1  0.4572070000000  0.4913000000000  0.4974160000000 1.0
C      1  0.5191590000000  0.4913000000000  0.5383510000000 1.0
C      1  0.5236340000000  0.4913000000000  0.4642320000000 1.0
C      1  0.4441170000000  0.4850580000000  0.4483180000000 1.0
C      1  0.4831840000000  0.4850580000000  0.5742380000000 1.0
C      1  0.5727000000000  0.4850580000000  0.4774450000000 1.0
C      1  0.4670860000000  0.4505640000000  0.4995990000000 1.0
C      1  0.5161100000000  0.4505640000000  0.5287050000000 1.0
C      1  0.5168050000000  0.4505640000000  0.4716960000000 1.0
C      1  0.4888820000000  0.4314870000000  0.4462350000000 1.0
C      1  0.4589970000000  0.4314870000000  0.5365110000000 1.0
C      1  0.5521210000000  0.4314870000000  0.5172540000000 1.0
C      1  0.5440280000000  0.4620500000000  0.5107780000000 1.0
C      1  0.4873200000000  0.4620500000000  0.4564820000000 1.0
C      1  0.4686520000000  0.4620500000000  0.5327400000000 1.0
C      1  0.4718380000000  0.5837160000000  0.3936370000000 1.0
C      1  0.4219680000000  0.5837150000000  0.5775700000000 1.0
C      1  0.6061940000000  0.5837160000000  0.5287930000000 1.0
C      1  0.5069060000000  0.5221180000000  0.4185310000000 1.0
C      1  0.4259930000000  0.5221180000000  0.5347540000000 1.0
C      1  0.5671010000000  0.5221180000000  0.5467150000000 1.0
C      1  0.5365290000000  0.5069430000000  0.5583140000000 1.0
C      1  0.5322370000000  0.5069430000000  0.4392080000000 1.0
C      1  0.4312340000000  0.5069430000000  0.5024780000000 1.0
C      1  0.5405380000000  0.5384110000000  0.5174850000000 1.0
C      1  0.4948740000000  0.5384110000000  0.4561510000000 1.0
C      1  0.4645880000000  0.5384110000000  0.5263640000000 1.0
C      1  0.5712860000000  0.4864450000000  0.4284870000000 1.0
C      1  0.4024250000000  0.4864450000000  0.4740200000000 1.0
C      1  0.5262880000000  0.4864450000000  0.5974920000000 1.0
C      1  0.4959000000000  0.5239930000000  0.6117920000000 1.0
C      1  0.5988650000000  0.5239930000000  0.4476550000000 1.0
C      1  0.4052360000000  0.5239930000000  0.4405530000000 1.0
C      1  0.5588380000000  0.4388370000000  0.4368860000000 1.0
C      1  0.4159220000000  0.4388370000000  0.4806020000000 1.0
C      1  0.5252390000000  0.4388360000000  0.5825130000000 1.0
C      1  0.5300730000000  0.4143330000000  0.5045830000000 1.0
C      1  0.4889320000000  0.4143330000000  0.4716650000000 1.0
C      1  0.4809950000000  0.4143330000000  0.5237530000000 1.0
C      1  0.4251560000000  0.5533090000000  0.5309780000000 1.0
C      1  0.5642500000000  0.5533090000000  0.5493280000000 1.0
C      1  0.5105940000000  0.5533090000000  0.4196950000000 1.0
C      1  0.6018630000000  0.4587860000000  0.5219460000000 1.0
C      1  0.4680750000000  0.4587870000000  0.4008110000000 1.0
C      1  0.4300630000000  0.4587860000000  0.5772420000000 1.0
C      1  0.5210840000000  0.4425560000000  0.4077100000000 1.0
C      1  0.4095330000000  0.4425560000000  0.5278860000000 1.0
C      1  0.5693840000000  0.4425560000000  0.5644040000000 1.0
C      1  0.5042500000000  0.4808440000000  0.4114070000000 1.0
C      1  0.4211510000000  0.4808440000000  0.5406160000000 1.0
C      1  0.5745990000000  0.4808440000000  0.5479770000000 1.0
C      1  0.5202150000000  0.4203130000000  0.4769500000000 1.0
C      1  0.4699300000000  0.4203130000000  0.4940190000000 1.0
C      1  0.5098550000000  0.4203130000000  0.5290310000000 1.0
C      1  0.4479560000000  0.4830680000000  0.5750930000000 1.0
C      1  0.5910540000000  0.4830680000000  0.5075250000000 1.0
C      1  0.4609900000000  0.4830680000000  0.4173820000000 1.0
C      1  0.5281640000000  0.5784340000000  0.5124290000000 1.0
C      1  0.4966820000000  0.5784340000000  0.4693950000000 1.0
C      1  0.4751550000000  0.5784340000000  0.5181760000000 1.0
C      1  0.4365270000000  0.4189540000000  0.4934980000000 1.0
C      1  0.5261060000000  0.4189540000000  0.5582200000000 1.0
C      1  0.5373670000000  0.4189540000000  0.4482810000000 1.0
C      1  0.4431470000000  0.5795210000000  0.4762290000000 1.0
C      1  0.5078400000000  0.5795210000000  0.5611210000000 1.0
C      1  0.5490120000000  0.5795210000000  0.4626490000000 1.0
C      1  0.4758030000000  0.5153940000000  0.4458540000000 1.0
C      1  0.4652060000000  0.5153940000000  0.5480280000000 1.0
C      1  0.5589910000000  0.5153940000000  0.5061180000000 1.0
C      1  0.4795220000000  0.4973750000000  0.5129580000000 1.0
C      1  0.5214610000000  0.4973750000000  0.5112550000000 1.0
C      1  0.4990170000000  0.4973750000000  0.4757870000000 1.0
C      1  0.5296740000000  0.5204630000000  0.5997200000000 1.0
C      1  0.5715230000000  0.5204630000000  0.4244410000000 1.0
C      1  0.3988030000000  0.5204630000000  0.4758390000000 1.0
C      1  0.5167810000000  0.5570310000000  0.5779550000000 1.0
C      1  0.5591200000000  0.5570310000000  0.4464900000000 1.0
C      1  0.4240990000000  0.5570310000000  0.4755560000000 1.0
C      1  0.5929080000000  0.5342750000000  0.4784010000000 1.0
C      1  0.4348410000000  0.5342750000000  0.4303380000000 1.0
C      1  0.4722510000000  0.5342740000000  0.5912600000000 1.0
C      1  0.5543120000000  0.5769890000000  0.5267420000000 1.0
C      1  0.4960030000000  0.5769890000000  0.4395940000000 1.0
C      1  0.4496850000000  0.5769890000000  0.5336650000000 1.0
C      1  0.5673360000000  0.5171490000000  0.4780290000000 1.0
C      1  0.4473040000000  0.5171490000000  0.4526710000000 1.0
C      1  0.4853600000000  0.5171490000000  0.5693010000000 1.0
C      1  0.4511870000000  0.4856080000000  0.5434430000000 1.0
C      1  0.5620290000000  0.4856080000000  0.5205520000000 1.0
C      1  0.4867840000000  0.4856080000000  0.4360050000000 1.0
C      1  0.4014320000000  0.4615230000000  0.4994340000000 1.0
C      1  0.5487940000000  0.4615230000000  0.5856450000000 1.0
C      1  0.5497740000000  0.4615230000000  0.4149210000000 1.0
C      1  0.4397210000000  0.5289160000000  0.4792980000000 1.0
C      1  0.5122110000000  0.5289160000000  0.5625540000000 1.0
C      1  0.5480680000000  0.5289160000000  0.4581480000000 1.0
C      1  0.4976420000000  0.4571030000000  0.3937030000000 1.0
C      1  0.4091230000000  0.4571030000000  0.5551910000000 1.0
C      1  0.5932350000000  0.4571030000000  0.5511060000000 1.0
END
