TITL C-862127-1500-844 106.441078462114 125000 -1121.33022394725 0 0 193 (C3) n - 1
REM
REM in /home/nfs/bkarasulu/CARBON/AIRSS/Generating-Clusters/TERSOFF/Higher-Symm/FIRE-HFTN
REM
REM
REM
REM
REM
REM ./C.cell (b20cbc046b6831c77cfcea5457e17084)
REM AIRSS Version 0.9.1 bugfix July 2018 build 013d7b7c2542+ Fri, 06 Jul 2018 19:26:36 +0100
REM compiler GCC version 9.2.1 20190827 (Red Hat 9.2.1-1)
REM options -cpp -mtune=generic -march=x86-64 -g -O0 -fpre-include=/usr/include/finclude/math-vector-fortran.h
REM seed -2084765935 1522963983 -692842580 -9191445 888888508 553169244 -1418872006 -1109720879 -775100717 1176278418 2037486290 -1619126869 -1008541991 -899905752 -244375961 1366828416 507168324 -1988514165 -73743553 1972833977 2069594387 -1216592493 -285881902 694015668 -1242047408 -52688736 795907437 1269553251 254747554 -900394734 1005931446 64809817 987654943
REM
CELL 1.54180   50.00000   50.00000   50.00000   90.00000   90.00000   90.00000
LATT -1
SFAC C  
C      1  0.5634930000000  0.4623250000000  0.5135240000000 1.0
C      1  0.5006410000000  0.5734890000000  0.5135240000000 1.0
C      1  0.4357960000000  0.4634750000000  0.5135250000000 1.0
C      1  0.4657960000000  0.3869500000000  0.5105520000000 1.0
C      1  0.6147660000000  0.5265680000000  0.5105510000000 1.0
C      1  0.4193680000000  0.5857710000000  0.5105510000000 1.0
C      1  0.5044080000000  0.6076360000000  0.4762180000000 1.0
C      1  0.4043400000000  0.4496640000000  0.4762190000000 1.0
C      1  0.5911820000000  0.4419880000000  0.4762180000000 1.0
C      1  0.4797240000000  0.4666230000000  0.4302500000000 1.0
C      1  0.5388020000000  0.4987930000000  0.4302500000000 1.0
C      1  0.4814030000000  0.5338720000000  0.4302500000000 1.0
C      1  0.5097020000000  0.5479750000000  0.6283620000000 1.0
C      1  0.4533620000000  0.4840800000000  0.6283620000000 1.0
C      1  0.5368670000000  0.4672360000000  0.6283620000000 1.0
C      1  0.5206170000000  0.4980820000000  0.5380870000000 1.0
C      1  0.4911130000000  0.5184790000000  0.5380870000000 1.0
C      1  0.4882010000000  0.4827290000000  0.5380870000000 1.0
C      1  0.4450780000000  0.5359460000000  0.5348150000000 1.0
C      1  0.4960910000000  0.4341280000000  0.5348150000000 1.0
C      1  0.5587610000000  0.5292150000000  0.5348140000000 1.0
C      1  0.4998540000000  0.4338900000000  0.4866310000000 1.0
C      1  0.5570850000000  0.5325930000000  0.4866300000000 1.0
C      1  0.4429900000000  0.5328050000000  0.4866310000000 1.0
C      1  0.5303350000000  0.4571670000000  0.5642580000000 1.0
C      1  0.5216870000000  0.5473520000000  0.5642570000000 1.0
C      1  0.4479090000000  0.4947710000000  0.5642580000000 1.0
C      1  0.4981100000000  0.4392940000000  0.6009470000000 1.0
C      1  0.5532790000000  0.5283810000000  0.6009470000000 1.0
C      1  0.4485430000000  0.5316160000000  0.6009470000000 1.0
C      1  0.5246540000000  0.4786520000000  0.4494680000000 1.0
C      1  0.5059200000000  0.5316890000000  0.4494680000000 1.0
C      1  0.4693550000000  0.4889470000000  0.4494680000000 1.0
C      1  0.5279850000000  0.3807520000000  0.4799680000000 1.0
C      1  0.5890390000000  0.5835250000000  0.4799670000000 1.0
C      1  0.3829060000000  0.5350120000000  0.4799680000000 1.0
C      1  0.4652650000000  0.5540680000000  0.4106380000000 1.0
C      1  0.4703020000000  0.4425490000000  0.4106380000000 1.0
C      1  0.5643620000000  0.5026700000000  0.4106370000000 1.0
C      1  0.5389520000000  0.4963720000000  0.5144320000000 1.0
C      1  0.4834260000000  0.5352120000000  0.5144320000000 1.0
C      1  0.4775520000000  0.4677050000000  0.5144320000000 1.0
C      1  0.5450380000000  0.5908830000000  0.5077920000000 1.0
C      1  0.3985330000000  0.4932270000000  0.5077930000000 1.0
C      1  0.5563580000000  0.4151780000000  0.5077930000000 1.0
C      1  0.5071630000000  0.3731960000000  0.5480850000000 1.0
C      1  0.6059940000000  0.5692700000000  0.5480830000000 1.0
C      1  0.3867730000000  0.5568230000000  0.5480840000000 1.0
C      1  0.5233080000000  0.4442700000000  0.5378460000000 1.0
C      1  0.5363700000000  0.5477150000000  0.5378450000000 1.0
C      1  0.4402530000000  0.5073040000000  0.5378460000000 1.0
C      1  0.5922550000000  0.4551030000000  0.5043680000000 1.0
C      1  0.4925140000000  0.6020090000000  0.5043670000000 1.0
C      1  0.4151610000000  0.4421770000000  0.5043680000000 1.0
C      1  0.4461540000000  0.5526330000000  0.5579610000000 1.0
C      1  0.4811020000000  0.4267160000000  0.5579620000000 1.0
C      1  0.5726750000000  0.5199410000000  0.5579610000000 1.0
C      1  0.6008200000000  0.4806770000000  0.5193440000000 1.0
C      1  0.4660840000000  0.5966390000000  0.5193440000000 1.0
C      1  0.4330260000000  0.4219730000000  0.5193450000000 1.0
C      1  0.4223920000000  0.4486450000000  0.4486970000000 1.0
C      1  0.5830380000000  0.4581310000000  0.4486960000000 1.0
C      1  0.4945000000000  0.5925120000000  0.4486960000000 1.0
C      1  0.4989170000000  0.4144500000000  0.5797650000000 1.0
C      1  0.5743910000000  0.5415020000000  0.5797640000000 1.0
C      1  0.4266230000000  0.5433380000000  0.5797640000000 1.0
C      1  0.4531360000000  0.4656010000000  0.5760700000000 1.0
C      1  0.5529830000000  0.4762790000000  0.5760700000000 1.0
C      1  0.4938120000000  0.5574100000000  0.5760690000000 1.0
C      1  0.4376500000000  0.5043980000000  0.4879900000000 1.0
C      1  0.5271260000000  0.4434690000000  0.4879900000000 1.0
C      1  0.5351540000000  0.5514210000000  0.4879890000000 1.0
C      1  0.4410730000000  0.6051390000000  0.3716150000000 1.0
C      1  0.4381710000000  0.3960630000000  0.3716160000000 1.0
C      1  0.6206880000000  0.4980830000000  0.3716150000000 1.0
C      1  0.3723250000000  0.4896930000000  0.4643970000000 1.0
C      1  0.5725230000000  0.3942480000000  0.4643960000000 1.0
C      1  0.5550810000000  0.6153470000000  0.4643950000000 1.0
C      1  0.5203730000000  0.4848210000000  0.6041120000000 1.0
C      1  0.5027200000000  0.5248990000000  0.6041120000000 1.0
C      1  0.4768380000000  0.4895710000000  0.6041130000000 1.0
C      1  0.4799370000000  0.3735350000000  0.4899790000000 1.0
C      1  0.6193130000000  0.5455220000000  0.4899770000000 1.0
C      1  0.4006800000000  0.5802320000000  0.4899780000000 1.0
C      1  0.4979770000000  0.5666110000000  0.6049510000000 1.0
C      1  0.4430860000000  0.4646080000000  0.6049520000000 1.0
C      1  0.5588680000000  0.4680720000000  0.6049520000000 1.0
C      1  0.4952670000000  0.3846650000000  0.5724310000000 1.0
C      1  0.6020100000000  0.5532330000000  0.5724290000000 1.0
C      1  0.4026540000000  0.5613910000000  0.5724300000000 1.0
C      1  0.4860880000000  0.5157990000000  0.3782020000000 1.0
C      1  0.4930320000000  0.4797170000000  0.3782020000000 1.0
C      1  0.5208080000000  0.5037710000000  0.3782020000000 1.0
C      1  0.4549090000000  0.5468560000000  0.5093230000000 1.0
C      1  0.4817270000000  0.4371870000000  0.5093240000000 1.0
C      1  0.5632940000000  0.5152460000000  0.5093230000000 1.0
C      1  0.5751750000000  0.5879340000000  0.5073680000000 1.0
C      1  0.3860190000000  0.5208010000000  0.5073690000000 1.0
C      1  0.5387360000000  0.3905530000000  0.5073690000000 1.0
C      1  0.4982270000000  0.5289340000000  0.4039610000000 1.0
C      1  0.4755880000000  0.4836620000000  0.4039620000000 1.0
C      1  0.5261140000000  0.4866920000000  0.4039610000000 1.0
C      1  0.5478000000000  0.5873580000000  0.4092090000000 1.0
C      1  0.4002040000000  0.4973810000000  0.4092100000000 1.0
C      1  0.5519240000000  0.4145480000000  0.4092100000000 1.0
C      1  0.5709000000000  0.4189390000000  0.4801750000000 1.0
C      1  0.5345100000000  0.6015960000000  0.4801750000000 1.0
C      1  0.3945190000000  0.4787530000000  0.4801760000000 1.0
C      1  0.5284830000000  0.5654160000000  0.4176450000000 1.0
C      1  0.4288650000000  0.4916230000000  0.4176460000000 1.0
C      1  0.5425800000000  0.4422480000000  0.4176450000000 1.0
C      1  0.4017740000000  0.5564170000000  0.4746190000000 1.0
C      1  0.5000140000000  0.3863900000000  0.4746190000000 1.0
C      1  0.5981410000000  0.5564820000000  0.4746180000000 1.0
C      1  0.5951650000000  0.4732320000000  0.5479830000000 1.0
C      1  0.4753590000000  0.5954650000000  0.5479830000000 1.0
C      1  0.4294060000000  0.4305930000000  0.5479840000000 1.0
C      1  0.4006440000000  0.5177680000000  0.4343940000000 1.0
C      1  0.5340490000000  0.4047360000000  0.4343940000000 1.0
C      1  0.5652360000000  0.5767840000000  0.4343930000000 1.0
C      1  0.5379250000000  0.5083450000000  0.6199030000000 1.0
C      1  0.4735720000000  0.5283370000000  0.6199030000000 1.0
C      1  0.4884350000000  0.4626090000000  0.6199030000000 1.0
C      1  0.5903000000000  0.4405540000000  0.5374250000000 1.0
C      1  0.5060920000000  0.6075900000000  0.5374250000000 1.0
C      1  0.4035380000000  0.4511450000000  0.5374260000000 1.0
C      1  0.5466620000000  0.4340330000000  0.4682370000000 1.0
C      1  0.5335570000000  0.5730590000000  0.4682370000000 1.0
C      1  0.4197100000000  0.4921970000000  0.4682380000000 1.0
C      1  0.3933090000000  0.5072930000000  0.5540110000000 1.0
C      1  0.5467900000000  0.4036210000000  0.5540110000000 1.0
C      1  0.5598320000000  0.5883760000000  0.5540100000000 1.0
C      1  0.4290830000000  0.5284710000000  0.4431450000000 1.0
C      1  0.5105610000000  0.4240130000000  0.4431450000000 1.0
C      1  0.5602850000000  0.5468040000000  0.4431440000000 1.0
C      1  0.4718360000000  0.5076720000000  0.6416150000000 1.0
C      1  0.5071990000000  0.4714390000000  0.6416150000000 1.0
C      1  0.5208960000000  0.5201810000000  0.6416150000000 1.0
C      1  0.4179530000000  0.4464940000000  0.4183760000000 1.0
C      1  0.5871200000000  0.4553630000000  0.4183750000000 1.0
C      1  0.4948560000000  0.5974310000000  0.4183750000000 1.0
C      1  0.5806670000000  0.4280040000000  0.4071530000000 1.0
C      1  0.5217750000000  0.6055220000000  0.4071520000000 1.0
C      1  0.3974860000000  0.4657610000000  0.4071530000000 1.0
C      1  0.3830440000000  0.5299930000000  0.5368120000000 1.0
C      1  0.5322630000000  0.3833810000000  0.5368120000000 1.0
C      1  0.5846240000000  0.5859150000000  0.5368110000000 1.0
C      1  0.4953750000000  0.4486350000000  0.3910370000000 1.0
C      1  0.5465540000000  0.5213420000000  0.3910370000000 1.0
C      1  0.4579990000000  0.5293110000000  0.3910370000000 1.0
C      1  0.4834150000000  0.4724360000000  0.5663460000000 1.0
C      1  0.5319240000000  0.4990840000000  0.5663460000000 1.0
C      1  0.4845920000000  0.5277700000000  0.5663460000000 1.0
C      1  0.5686230000000  0.4181980000000  0.5362720000000 1.0
C      1  0.5362910000000  0.5999950000000  0.5362710000000 1.0
C      1  0.3950160000000  0.4810960000000  0.5362730000000 1.0
C      1  0.5342040000000  0.5266420000000  0.4404770000000 1.0
C      1  0.4595840000000  0.5159650000000  0.4404770000000 1.0
C      1  0.5061410000000  0.4566810000000  0.4404770000000 1.0
C      1  0.5540050000000  0.4490930000000  0.4447300000000 1.0
C      1  0.5168430000000  0.5718880000000  0.4447290000000 1.0
C      1  0.4290810000000  0.4783070000000  0.4447300000000 1.0
C      1  0.4592380000000  0.4153490000000  0.5103540000000 1.0
C      1  0.5934500000000  0.5066890000000  0.5103530000000 1.0
C      1  0.4472410000000  0.5772500000000  0.5103530000000 1.0
C      1  0.4305820000000  0.4922410000000  0.5144270000000 1.0
C      1  0.5411880000000  0.4434270000000  0.5144270000000 1.0
C      1  0.5281600000000  0.5636220000000  0.5144260000000 1.0
C      1  0.4524740000000  0.5001620000000  0.4022880000000 1.0
C      1  0.5233810000000  0.4584250000000  0.4022870000000 1.0
C      1  0.5240730000000  0.5407010000000  0.4022870000000 1.0
C      1  0.3787880000000  0.5168010000000  0.4558160000000 1.0
C      1  0.5458150000000  0.3862910000000  0.4558160000000 1.0
C      1  0.5753260000000  0.5961960000000  0.4558150000000 1.0
C      1  0.5562280000000  0.5682700000000  0.5757640000000 1.0
C      1  0.4125220000000  0.5142250000000  0.5757650000000 1.0
C      1  0.5311800000000  0.4167950000000  0.5757650000000 1.0
C      1  0.5758980000000  0.4897670000000  0.5629220000000 1.0
C      1  0.4706730000000  0.5705110000000  0.5629220000000 1.0
C      1  0.4533600000000  0.4390120000000  0.5629230000000 1.0
C      1  0.5827820000000  0.4802510000000  0.4014770000000 1.0
C      1  0.4754710000000  0.5812300000000  0.4014770000000 1.0
C      1  0.4416760000000  0.4378070000000  0.4014780000000 1.0
C      1  0.5072810000000  0.4637320000000  0.5824310000000 1.0
C      1  0.5275290000000  0.5241040000000  0.5824310000000 1.0
C      1  0.4651210000000  0.5114540000000  0.5824310000000 1.0
C      1  0.4369050000000  0.4246520000000  0.3759520000000 1.0
C      1  0.5965590000000  0.4826960000000  0.3759510000000 1.0
C      1  0.4664640000000  0.5919380000000  0.3759510000000 1.0
C      1  0.5765680000000  0.5387460000000  0.4661780000000 1.0
C      1  0.4279200000000  0.5466020000000  0.4661780000000 1.0
C      1  0.4954410000000  0.4139410000000  0.4661790000000 1.0
C      1  0.4999770000000  0.4997640000000  0.6499680000000 1.0
END
