TITL C-862506-1665-255 -0.0180016021287798 125000 -277.091954256678 0 0 60 (C1) n - 1
REM
REM in /home/nfs/bkarasulu/CARBON/AIRSS/Generating-Clusters/TERSOFF/Higher-Symm/FIRE-HFTN
REM
REM
REM
REM
REM
REM ./C.cell (b20cbc046b6831c77cfcea5457e17084)
REM AIRSS Version 0.9.1 bugfix July 2018 build 013d7b7c2542+ Fri, 06 Jul 2018 19:26:36 +0100
REM compiler GCC version 9.2.1 20190827 (Red Hat 9.2.1-1)
REM options -cpp -mtune=generic -march=x86-64 -g -O0 -fpre-include=/usr/include/finclude/math-vector-fortran.h
REM seed -1206460281 -927220384 -148520577 1795703761 1352912648 -1244456571 324918187 -1180868303 -452435004 -154150697 -754621901 -1967595200 -1227625570 49243631 -22066440 -2023181428 -1505801879 1679435815 -790914898 -1295910630 2027863309 -287398932 -1623402259 -756609416 -1760534709 -2133290928 -1680687684 -496927751 1975390070 -529142392 -978785324 51467461 -494641521
REM
CELL 1.54180   50.00000   50.00000   50.00000   90.00000   90.00000   90.00000
LATT -1
SFAC C  
C      1  0.5727070000000  0.5320370000000  0.4661870000000 1.0
C      1  0.5704540000000  0.4770420000000  0.4565490000000 1.0
C      1  0.5686080000000  0.4510580000000  0.5046920000000 1.0
C      1  0.5706770000000  0.4907820000000  0.5434800000000 1.0
C      1  0.5713960000000  0.5422400000000  0.5216710000000 1.0
C      1  0.4905920000000  0.5271670000000  0.5213330000000 1.0
C      1  0.4910210000000  0.5315580000000  0.4796350000000 1.0
C      1  0.4898390000000  0.4932860000000  0.4625520000000 1.0
C      1  0.4878550000000  0.4652720000000  0.4936920000000 1.0
C      1  0.4889810000000  0.4861780000000  0.5300230000000 1.0
C      1  0.5328950000000  0.5301380000000  0.4791620000000 1.0
C      1  0.5316580000000  0.4910820000000  0.4639780000000 1.0
C      1  0.5296640000000  0.4637310000000  0.4956790000000 1.0
C      1  0.5308770000000  0.4860870000000  0.5311380000000 1.0
C      1  0.5324860000000  0.5267060000000  0.5209140000000 1.0
C      1  0.4463870000000  0.5374230000000  0.5044150000000 1.0
C      1  0.4462480000000  0.5202450000000  0.4661070000000 1.0
C      1  0.4447610000000  0.4785330000000  0.4706000000000 1.0
C      1  0.4438310000000  0.4699470000000  0.5116850000000 1.0
C      1  0.4450110000000  0.5063320000000  0.5325920000000 1.0
C      1  0.5252470000000  0.4417660000000  0.4601790000000 1.0
C      1  0.5253460000000  0.4456400000000  0.5408350000000 1.0
C      1  0.5277950000000  0.5237130000000  0.5625020000000 1.0
C      1  0.5290920000000  0.5689370000000  0.4947100000000 1.0
C      1  0.5291510000000  0.5179870000000  0.4318720000000 1.0
C      1  0.4961390000000  0.4490710000000  0.4691850000000 1.0
C      1  0.4964220000000  0.4574770000000  0.5376330000000 1.0
C      1  0.4987120000000  0.5252500000000  0.5508290000000 1.0
C      1  0.4998730000000  0.5586630000000  0.4904710000000 1.0
C      1  0.4994560000000  0.5117190000000  0.4400270000000 1.0
C      1  0.4753420000000  0.5524690000000  0.5124890000000 1.0
C      1  0.4753170000000  0.5315100000000  0.4530700000000 1.0
C      1  0.4731160000000  0.4685740000000  0.4545250000000 1.0
C      1  0.4714710000000  0.4509010000000  0.5155010000000 1.0
C      1  0.4732750000000  0.5027870000000  0.5507900000000 1.0
C      1  0.4967430000000  0.5534090000000  0.4442720000000 1.0
C      1  0.4946040000000  0.4661880000000  0.4308730000000 1.0
C      1  0.4912410000000  0.4266070000000  0.5096440000000 1.0
C      1  0.4932610000000  0.4891990000000  0.5716550000000 1.0
C      1  0.4962140000000  0.5675220000000  0.5313530000000 1.0
C      1  0.5229360000000  0.5550710000000  0.5338640000000 1.0
C      1  0.5235460000000  0.5515130000000  0.4565240000000 1.0
C      1  0.5218090000000  0.4763310000000  0.4365830000000 1.0
C      1  0.5185840000000  0.4336610000000  0.5011620000000 1.0
C      1  0.5202140000000  0.4824240000000  0.5616210000000 1.0
C      1  0.5553470000000  0.4625670000000  0.5302420000000 1.0
C      1  0.5572780000000  0.5187230000000  0.5424160000000 1.0
C      1  0.5583630000000  0.5479780000000  0.4938370000000 1.0
C      1  0.5579310000000  0.5088270000000  0.4515270000000 1.0
C      1  0.5551890000000  0.4562230000000  0.4740170000000 1.0
C      1  0.5838720000000  0.5089160000000  0.4994200000000 1.0
C      1  0.5611800000000  0.4914620000000  0.4959930000000 1.0
C      1  0.4065160000000  0.5038970000000  0.4966040000000 1.0
C      1  0.4673550000000  0.5017310000000  0.4973380000000 1.0
C      1  0.3601810000000  0.4830750000000  0.5037510000000 1.0
C      1  0.4969360000000  0.5003430000000  0.4975060000000 1.0
C      1  0.4378690000000  0.5027620000000  0.4969920000000 1.0
C      1  0.6115020000000  0.5008980000000  0.4962480000000 1.0
C      1  0.5283950000000  0.4999210000000  0.4982620000000 1.0
C      1  0.3891040000000  0.4820260000000  0.5041030000000 1.0
END
