TITL C-862131-2149-1121 -0.00100165842481246 125000 -1007.0688833414 0 0 176 (C1) n - 1
REM
REM in /home/nfs/bkarasulu/CARBON/AIRSS/Generating-Clusters/TERSOFF/Higher-Symm/FIRE-HFTN
REM
REM
REM
REM
REM
REM ./C.cell (b20cbc046b6831c77cfcea5457e17084)
REM AIRSS Version 0.9.1 bugfix July 2018 build 013d7b7c2542+ Fri, 06 Jul 2018 19:26:36 +0100
REM compiler GCC version 9.2.1 20190827 (Red Hat 9.2.1-1)
REM options -cpp -mtune=generic -march=x86-64 -g -O0 -fpre-include=/usr/include/finclude/math-vector-fortran.h
REM seed -183426323 -1691685361 -380905312 167350455 3416542 1913227052 1894164566 -949648107 -242611141 1231787944 277276618 -1799733929 -1049117025 -1094281415 368631171 -992946467 508625240 -1645361947 341988273 651580471 -1581704477 1675432016 991928165 -1299192473 1667007918 828362643 -599181728 -179102365 -1936680860 852582233 -352930084 455888223 -175599557
REM
CELL 1.54180   50.00000   50.00000   50.00000   90.00000   90.00000   90.00000
LATT -1
SFAC C  
C      1  0.5027100000000  0.3851250000000  0.5213290000000 1.0
C      1  0.4128710000000  0.4269850000000  0.5183980000000 1.0
C      1  0.3960030000000  0.5203480000000  0.5215910000000 1.0
C      1  0.4475760000000  0.6028770000000  0.5199650000000 1.0
C      1  0.5447480000000  0.5989160000000  0.5222100000000 1.0
C      1  0.6129920000000  0.5299480000000  0.5207490000000 1.0
C      1  0.5855330000000  0.4351030000000  0.5204680000000 1.0
C      1  0.5781630000000  0.4480240000000  0.4666130000000 1.0
C      1  0.5064950000000  0.3979710000000  0.4642540000000 1.0
C      1  0.4262240000000  0.4310640000000  0.4630740000000 1.0
C      1  0.4080630000000  0.5121490000000  0.4676260000000 1.0
C      1  0.4503330000000  0.5905650000000  0.4627280000000 1.0
C      1  0.5335870000000  0.5886150000000  0.4706170000000 1.0
C      1  0.6012780000000  0.5305830000000  0.4641390000000 1.0
C      1  0.3963140000000  0.4717600000000  0.5413920000000 1.0
C      1  0.4155020000000  0.5632430000000  0.5427940000000 1.0
C      1  0.4963260000000  0.6089430000000  0.5409580000000 1.0
C      1  0.5815310000000  0.5700740000000  0.5440940000000 1.0
C      1  0.6066020000000  0.4804190000000  0.5404490000000 1.0
C      1  0.5470430000000  0.4077350000000  0.5427610000000 1.0
C      1  0.4544840000000  0.3986640000000  0.5398730000000 1.0
C      1  0.5840530000000  0.5129800000000  0.4226850000000 1.0
C      1  0.5560320000000  0.4433970000000  0.4235630000000 1.0
C      1  0.4897020000000  0.4132710000000  0.4207180000000 1.0
C      1  0.4304530000000  0.4518900000000  0.4195440000000 1.0
C      1  0.4240970000000  0.5287380000000  0.4241830000000 1.0
C      1  0.4715920000000  0.5801450000000  0.4205250000000 1.0
C      1  0.5460290000000  0.5679190000000  0.4293100000000 1.0
C      1  0.5069920000000  0.5336110000000  0.6077310000000 1.0
C      1  0.5304260000000  0.5169860000000  0.6125050000000 1.0
C      1  0.5309840000000  0.4848760000000  0.6051790000000 1.0
C      1  0.5075940000000  0.4691810000000  0.6046150000000 1.0
C      1  0.4846780000000  0.4780410000000  0.6193490000000 1.0
C      1  0.4675100000000  0.4974960000000  0.6070840000000 1.0
C      1  0.4752000000000  0.5249070000000  0.6103980000000 1.0
C      1  0.5334200000000  0.4914060000000  0.3916590000000 1.0
C      1  0.5104280000000  0.4706270000000  0.3929570000000 1.0
C      1  0.4853930000000  0.4774100000000  0.3798460000000 1.0
C      1  0.4650230000000  0.4930060000000  0.3934260000000 1.0
C      1  0.4686490000000  0.5236270000000  0.3956300000000 1.0
C      1  0.4976500000000  0.5371860000000  0.3913170000000 1.0
C      1  0.5264780000000  0.5227350000000  0.3930980000000 1.0
C      1  0.4898580000000  0.4319930000000  0.5357000000000 1.0
C      1  0.4430700000000  0.4632460000000  0.5351340000000 1.0
C      1  0.4411200000000  0.5223410000000  0.5408590000000 1.0
C      1  0.4770530000000  0.5643390000000  0.5338200000000 1.0
C      1  0.5354020000000  0.5548270000000  0.5410060000000 1.0
C      1  0.5684450000000  0.5109880000000  0.5339170000000 1.0
C      1  0.5448330000000  0.4565970000000  0.5393330000000 1.0
C      1  0.5639540000000  0.5604970000000  0.4775480000000 1.0
C      1  0.5841750000000  0.4894690000000  0.4690730000000 1.0
C      1  0.5395490000000  0.4325720000000  0.4717910000000 1.0
C      1  0.4669000000000  0.4117550000000  0.4661340000000 1.0
C      1  0.4219000000000  0.4725870000000  0.4674830000000 1.0
C      1  0.4305900000000  0.5471240000000  0.4723770000000 1.0
C      1  0.4919250000000  0.5854350000000  0.4672670000000 1.0
C      1  0.4362970000000  0.4273130000000  0.4351780000000 1.0
C      1  0.4128990000000  0.5054150000000  0.4393150000000 1.0
C      1  0.4460590000000  0.5785400000000  0.4358330000000 1.0
C      1  0.5261690000000  0.5855480000000  0.4423630000000 1.0
C      1  0.5888520000000  0.5379290000000  0.4382340000000 1.0
C      1  0.5779180000000  0.4574080000000  0.4386260000000 1.0
C      1  0.5142240000000  0.4072690000000  0.4368590000000 1.0
C      1  0.5038340000000  0.5457990000000  0.5766710000000 1.0
C      1  0.5455510000000  0.5187550000000  0.5852140000000 1.0
C      1  0.5446410000000  0.4881810000000  0.5763500000000 1.0
C      1  0.5024050000000  0.4563330000000  0.5779610000000 1.0
C      1  0.4717170000000  0.4599510000000  0.5776700000000 1.0
C      1  0.4583630000000  0.4892140000000  0.5791200000000 1.0
C      1  0.4728920000000  0.5396140000000  0.5840550000000 1.0
C      1  0.4572820000000  0.4351850000000  0.5728590000000 1.0
C      1  0.4282750000000  0.4876410000000  0.5752410000000 1.0
C      1  0.4500120000000  0.5551490000000  0.5758520000000 1.0
C      1  0.5065060000000  0.5747890000000  0.5740310000000 1.0
C      1  0.5656100000000  0.5382620000000  0.5773250000000 1.0
C      1  0.5716570000000  0.4783420000000  0.5738690000000 1.0
C      1  0.5189560000000  0.4310250000000  0.5749910000000 1.0
C      1  0.3904070000000  0.5349810000000  0.4736770000000 1.0
C      1  0.4630950000000  0.6171000000000  0.4666080000000 1.0
C      1  0.5592890000000  0.6022170000000  0.4767200000000 1.0
C      1  0.6236030000000  0.5111300000000  0.4671560000000 1.0
C      1  0.5793090000000  0.4190420000000  0.4717600000000 1.0
C      1  0.4876820000000  0.3753650000000  0.4687720000000 1.0
C      1  0.3977740000000  0.4382140000000  0.4680440000000 1.0
C      1  0.5746920000000  0.5896870000000  0.5216590000000 1.0
C      1  0.6176540000000  0.4969990000000  0.5166310000000 1.0
C      1  0.5657960000000  0.4104590000000  0.5188550000000 1.0
C      1  0.4706240000000  0.3837900000000  0.5172150000000 1.0
C      1  0.3943810000000  0.4533480000000  0.5163550000000 1.0
C      1  0.3990490000000  0.5514190000000  0.5197800000000 1.0
C      1  0.4780450000000  0.6156910000000  0.5165230000000 1.0
C      1  0.5168980000000  0.4551190000000  0.4584930000000 1.0
C      1  0.4693040000000  0.4448110000000  0.4542410000000 1.0
C      1  0.4493700000000  0.4891700000000  0.4522860000000 1.0
C      1  0.4583610000000  0.5300060000000  0.4576960000000 1.0
C      1  0.4989810000000  0.5543630000000  0.4495340000000 1.0
C      1  0.5389910000000  0.5271370000000  0.4529930000000 1.0
C      1  0.5518750000000  0.4871760000000  0.4527160000000 1.0
C      1  0.6028600000000  0.5457180000000  0.5456610000000 1.0
C      1  0.5969220000000  0.4495360000000  0.5445280000000 1.0
C      1  0.5196230000000  0.3918530000000  0.5458440000000 1.0
C      1  0.4256800000000  0.4143100000000  0.5428250000000 1.0
C      1  0.3918620000000  0.5029350000000  0.5457420000000 1.0
C      1  0.4343430000000  0.5896040000000  0.5446670000000 1.0
C      1  0.5283110000000  0.6075310000000  0.5457500000000 1.0
C      1  0.5030560000000  0.4068900000000  0.5666690000000 1.0
C      1  0.4288880000000  0.4357990000000  0.5649350000000 1.0
C      1  0.4112220000000  0.5127240000000  0.5687160000000 1.0
C      1  0.4552690000000  0.5826400000000  0.5657270000000 1.0
C      1  0.5337510000000  0.5864510000000  0.5685780000000 1.0
C      1  0.5911570000000  0.5267860000000  0.5664800000000 1.0
C      1  0.5753520000000  0.4492530000000  0.5672190000000 1.0
C      1  0.5567980000000  0.5631970000000  0.5616850000000 1.0
C      1  0.5866260000000  0.4971530000000  0.5564440000000 1.0
C      1  0.5463500000000  0.4332250000000  0.5599010000000 1.0
C      1  0.4736450000000  0.4158800000000  0.5570160000000 1.0
C      1  0.4214840000000  0.4649740000000  0.5570880000000 1.0
C      1  0.4276320000000  0.5409910000000  0.5610390000000 1.0
C      1  0.4850720000000  0.5850710000000  0.5563380000000 1.0
C      1  0.5316580000000  0.5610370000000  0.4911250000000 1.0
C      1  0.5800480000000  0.5185550000000  0.4832820000000 1.0
C      1  0.5545630000000  0.4604950000000  0.4891260000000 1.0
C      1  0.4961360000000  0.4204590000000  0.4855640000000 1.0
C      1  0.4413790000000  0.4519260000000  0.4846630000000 1.0
C      1  0.4359710000000  0.5156070000000  0.4901360000000 1.0
C      1  0.4665260000000  0.5727710000000  0.4833640000000 1.0
C      1  0.3931240000000  0.4625610000000  0.4868190000000 1.0
C      1  0.4027670000000  0.5575810000000  0.4902820000000 1.0
C      1  0.4869600000000  0.6155450000000  0.4867040000000 1.0
C      1  0.5796110000000  0.5848270000000  0.4920910000000 1.0
C      1  0.6154530000000  0.4885740000000  0.4869690000000 1.0
C      1  0.5572830000000  0.4073640000000  0.4898090000000 1.0
C      1  0.4635910000000  0.3832310000000  0.4872920000000 1.0
C      1  0.5675680000000  0.5572030000000  0.4470590000000 1.0
C      1  0.5900540000000  0.4862840000000  0.4354670000000 1.0
C      1  0.5392950000000  0.4246400000000  0.4404210000000 1.0
C      1  0.4622060000000  0.4092920000000  0.4331510000000 1.0
C      1  0.4150100000000  0.4742450000000  0.4334000000000 1.0
C      1  0.4286510000000  0.5539170000000  0.4403330000000 1.0
C      1  0.4961950000000  0.5929160000000  0.4335160000000 1.0
C      1  0.4355060000000  0.4458600000000  0.5122740000000 1.0
C      1  0.4250080000000  0.5151990000000  0.5173260000000 1.0
C      1  0.4614250000000  0.5774560000000  0.5115830000000 1.0
C      1  0.5328180000000  0.5720570000000  0.5179600000000 1.0
C      1  0.5850300000000  0.5229820000000  0.5118000000000 1.0
C      1  0.5633330000000  0.4547650000000  0.5163370000000 1.0
C      1  0.4995550000000  0.4140030000000  0.5134770000000 1.0
C      1  0.4745080000000  0.4928420000000  0.4684430000000 1.0
C      1  0.4718160000000  0.5452980000000  0.4801690000000 1.0
C      1  0.5111780000000  0.5303410000000  0.4637560000000 1.0
C      1  0.5518390000000  0.5196020000000  0.4793940000000 1.0
C      1  0.5243540000000  0.4828120000000  0.4653180000000 1.0
C      1  0.4993730000000  0.4491610000000  0.4830330000000 1.0
C      1  0.4705130000000  0.4622610000000  0.4797930000000 1.0
C      1  0.5155950000000  0.5326990000000  0.5474060000000 1.0
C      1  0.5369140000000  0.5092600000000  0.5334100000000 1.0
C      1  0.5301820000000  0.4823390000000  0.5482640000000 1.0
C      1  0.4994670000000  0.4642460000000  0.5429310000000 1.0
C      1  0.4688450000000  0.4789170000000  0.5364460000000 1.0
C      1  0.4664900000000  0.5079340000000  0.5492100000000 1.0
C      1  0.4861870000000  0.5339410000000  0.5337980000000 1.0
C      1  0.4697390000000  0.5181830000000  0.4298890000000 1.0
C      1  0.4983130000000  0.5327320000000  0.4238940000000 1.0
C      1  0.5284470000000  0.5150520000000  0.4260000000000 1.0
C      1  0.5358560000000  0.4829560000000  0.4239970000000 1.0
C      1  0.5091080000000  0.4586570000000  0.4247710000000 1.0
C      1  0.4781790000000  0.4584200000000  0.4296810000000 1.0
C      1  0.4609580000000  0.4835320000000  0.4230380000000 1.0
C      1  0.5298530000000  0.4814890000000  0.4941530000000 1.0
C      1  0.5074600000000  0.4668480000000  0.5078210000000 1.0
C      1  0.4776880000000  0.4802290000000  0.5082920000000 1.0
C      1  0.4673150000000  0.5060690000000  0.4943060000000 1.0
C      1  0.4862260000000  0.5298820000000  0.5029420000000 1.0
C      1  0.5144050000000  0.5333060000000  0.4925240000000 1.0
C      1  0.5331990000000  0.5098610000000  0.5028530000000 1.0
C      1  0.5017020000000  0.5016650000000  0.4591260000000 1.0
END
