TITL C-862134-6730-1336 1.43310779446496e-07 125000 -39.3544315102893 0 0 9 (D3h) n - 1
REM
REM in /home/nfs/bkarasulu/CARBON/AIRSS/Generating-Clusters/TERSOFF/Higher-Symm/FIRE-HFTN
REM
REM
REM
REM
REM
REM ./C.cell (b20cbc046b6831c77cfcea5457e17084)
REM AIRSS Version 0.9.1 bugfix July 2018 build 013d7b7c2542+ Fri, 06 Jul 2018 19:26:36 +0100
REM compiler GCC version 9.2.1 20190827 (Red Hat 9.2.1-1)
REM options -cpp -mtune=generic -march=x86-64 -g -O0 -fpre-include=/usr/include/finclude/math-vector-fortran.h
REM seed -1563986643 -590914054 -1257005288 103319198 -1634705923 -909772146 -1322643304 2040716168 1500609948 1638986214 1056586586 139014787 -1824063695 238236849 -1582373142 2101477062 405634063 548249712 -2142786117 -449266739 80164668 1312278451 -1227985984 606774109 -42302168 2130789986 1863155107 -1949477351 1409501642 -489497486 1206765 -282064127 744118377
REM
CELL 1.54180   50.00000   50.00000   50.00000   90.00000   90.00000   90.00000
LATT -1
SFAC C  
C      1  0.4783780000000  0.5101340000000  0.5175530000000 1.0
C      1  0.4783780000000  0.5101340000000  0.4824470000000 1.0
C      1  0.4783780000000  0.4797320000000  0.5000000000000 1.0
C      1  0.5293030000000  0.5101340000000  0.4824470000000 1.0
C      1  0.5293030000000  0.5101340000000  0.5175530000000 1.0
C      1  0.5293030000000  0.4797320000000  0.5000000000000 1.0
C      1  0.5038410000000  0.5174520000000  0.4697730000000 1.0
C      1  0.5038410000000  0.5174520000000  0.5302270000000 1.0
C      1  0.5038410000000  0.4650960000000  0.5000000000000 1.0
END
