TITL C-862130-1496-742 0.020041920290485 125000 -192.242511412939 0 0 35 (C1) n - 1
REM
REM in /home/nfs/bkarasulu/CARBON/AIRSS/Generating-Clusters/TERSOFF/Higher-Symm/FIRE-HFTN
REM
REM
REM
REM
REM
REM ./C.cell (b20cbc046b6831c77cfcea5457e17084)
REM AIRSS Version 0.9.1 bugfix July 2018 build 013d7b7c2542+ Fri, 06 Jul 2018 19:26:36 +0100
REM compiler GCC version 9.2.1 20190827 (Red Hat 9.2.1-1)
REM options -cpp -mtune=generic -march=x86-64 -g -O0 -fpre-include=/usr/include/finclude/math-vector-fortran.h
REM seed -683082267 -1837290325 -166126741 -497593861 1855506463 1845262837 -722578727 -1607274353 1764153538 532488366 -1800317855 -630958633 59899338 2034820459 750237423 500131015 -1245851644 -2134613318 -617538244 -1839106129 -1862848347 341594124 -115204521 1388922304 -452080092 -2146436527 -1286643865 -1092310446 1516533073 -1970994498 -1049311518 -144472138 -1599110378
REM
CELL 1.54180   50.00000   50.00000   50.00000   90.00000   90.00000   90.00000
LATT -1
SFAC C  
C      1  0.4933890000000  0.5461290000000  0.5242180000000 1.0
C      1  0.5073740000000  0.5310550000000  0.5041910000000 1.0
C      1  0.5209910000000  0.5039310000000  0.5440090000000 1.0
C      1  0.5347230000000  0.4451510000000  0.4584650000000 1.0
C      1  0.5460300000000  0.4484900000000  0.4852870000000 1.0
C      1  0.4739030000000  0.5319360000000  0.4744970000000 1.0
C      1  0.4920550000000  0.5366630000000  0.5514790000000 1.0
C      1  0.4260040000000  0.5436230000000  0.5560450000000 1.0
C      1  0.4899760000000  0.4742690000000  0.5536380000000 1.0
C      1  0.4625740000000  0.5098700000000  0.5647680000000 1.0
C      1  0.5059170000000  0.5375550000000  0.4716090000000 1.0
C      1  0.4528100000000  0.4673730000000  0.5205090000000 1.0
C      1  0.4478430000000  0.5187700000000  0.5176840000000 1.0
C      1  0.4602110000000  0.5385540000000  0.4996050000000 1.0
C      1  0.5260560000000  0.4452500000000  0.5069420000000 1.0
C      1  0.5513330000000  0.5443820000000  0.4960620000000 1.0
C      1  0.4765490000000  0.4824510000000  0.4568370000000 1.0
C      1  0.5000720000000  0.4961130000000  0.4726710000000 1.0
C      1  0.5002550000000  0.4605130000000  0.5055570000000 1.0
C      1  0.5304250000000  0.5556100000000  0.4791060000000 1.0
C      1  0.5484020000000  0.5050570000000  0.4560990000000 1.0
C      1  0.4626710000000  0.5095780000000  0.4591120000000 1.0
C      1  0.5600780000000  0.4978920000000  0.4820410000000 1.0
C      1  0.5507960000000  0.5157050000000  0.5033840000000 1.0
C      1  0.5083380000000  0.4554960000000  0.4517870000000 1.0
C      1  0.4934820000000  0.5051790000000  0.5599710000000 1.0
C      1  0.4453230000000  0.5242440000000  0.5462950000000 1.0
C      1  0.4875850000000  0.4560780000000  0.4760310000000 1.0
C      1  0.5043310000000  0.4828190000000  0.4332230000000 1.0
C      1  0.5236090000000  0.5075330000000  0.5148110000000 1.0
C      1  0.5088840000000  0.4877440000000  0.4976060000000 1.0
C      1  0.4807830000000  0.4633820000000  0.5279590000000 1.0
C      1  0.5657370000000  0.4698720000000  0.4880450000000 1.0
C      1  0.5192520000000  0.5100850000000  0.4521340000000 1.0
C      1  0.4422390000000  0.4916460000000  0.5083230000000 1.0
END
