TITL C-862132-7359-90 0.420926120446332 125000 -1015.04994666434 0 0 187 (C1) n - 1
REM
REM in /home/nfs/bkarasulu/CARBON/AIRSS/Generating-Clusters/TERSOFF/Higher-Symm/FIRE-HFTN
REM
REM
REM
REM
REM
REM ./C.cell (b20cbc046b6831c77cfcea5457e17084)
REM AIRSS Version 0.9.1 bugfix July 2018 build 013d7b7c2542+ Fri, 06 Jul 2018 19:26:36 +0100
REM compiler GCC version 9.2.1 20190827 (Red Hat 9.2.1-1)
REM options -cpp -mtune=generic -march=x86-64 -g -O0 -fpre-include=/usr/include/finclude/math-vector-fortran.h
REM seed -1645642128 890429951 2028559020 784489780 1190669350 -762086279 -1071833722 427113187 -1497282862 1775141162 382926323 929471590 -1755142601 189292878 2056504685 140988140 -777067483 -1872053680 1946099410 -82962024 282081836 1867339489 -1395252193 -90840599 -557150375 -1308371196 -1256771375 807402097 2075028071 -1451806384 -291539337 -442923036 129535965
REM
CELL 1.54180   50.00000   50.00000   50.00000   90.00000   90.00000   90.00000
LATT -1
SFAC C  
C      1  0.5181730000000  0.5642570000000  0.3450050000000 1.0
C      1  0.6404700000000  0.5752700000000  0.4340490000000 1.0
C      1  0.6288560000000  0.5798650000000  0.5889550000000 1.0
C      1  0.4889850000000  0.5832080000000  0.6581670000000 1.0
C      1  0.3602120000000  0.5772940000000  0.5667830000000 1.0
C      1  0.3740060000000  0.5680510000000  0.4067320000000 1.0
C      1  0.5179440000000  0.5816990000000  0.6569400000000 1.0
C      1  0.6423830000000  0.5766490000000  0.5634920000000 1.0
C      1  0.6254600000000  0.5712980000000  0.4095430000000 1.0
C      1  0.4892050000000  0.5637870000000  0.3434830000000 1.0
C      1  0.3585810000000  0.5724740000000  0.4309020000000 1.0
C      1  0.3758220000000  0.5789950000000  0.5911730000000 1.0
C      1  0.5556820000000  0.4677890000000  0.5177720000000 1.0
C      1  0.5172700000000  0.4666500000000  0.5540110000000 1.0
C      1  0.4719840000000  0.4586610000000  0.5260700000000 1.0
C      1  0.4366200000000  0.4680030000000  0.4869900000000 1.0
C      1  0.4891320000000  0.4618240000000  0.4694620000000 1.0
C      1  0.5430380000000  0.4677810000000  0.4576240000000 1.0
C      1  0.5611650000000  0.4690370000000  0.4854610000000 1.0
C      1  0.5111100000000  0.4711260000000  0.4496380000000 1.0
C      1  0.4603560000000  0.4698580000000  0.4639600000000 1.0
C      1  0.4443480000000  0.4699890000000  0.5184800000000 1.0
C      1  0.4843990000000  0.4675920000000  0.5523230000000 1.0
C      1  0.5281250000000  0.4586070000000  0.5269200000000 1.0
C      1  0.5659310000000  0.3880750000000  0.4773250000000 1.0
C      1  0.5404550000000  0.3856750000000  0.5317010000000 1.0
C      1  0.4830380000000  0.3906610000000  0.5561910000000 1.0
C      1  0.4335940000000  0.3918340000000  0.5115200000000 1.0
C      1  0.4501130000000  0.3900280000000  0.4526420000000 1.0
C      1  0.5167920000000  0.3889780000000  0.4346780000000 1.0
C      1  0.5643940000000  0.3908390000000  0.5105470000000 1.0
C      1  0.5492430000000  0.3889490000000  0.4502670000000 1.0
C      1  0.4843020000000  0.3859330000000  0.4416060000000 1.0
C      1  0.4325070000000  0.3868980000000  0.4786300000000 1.0
C      1  0.4570940000000  0.3860090000000  0.5327370000000 1.0
C      1  0.5143550000000  0.3895540000000  0.5556650000000 1.0
C      1  0.4864770000000  0.5780810000000  0.6079300000000 1.0
C      1  0.4026670000000  0.5790480000000  0.5393270000000 1.0
C      1  0.4169510000000  0.5740370000000  0.4328340000000 1.0
C      1  0.5155680000000  0.5761570000000  0.3941070000000 1.0
C      1  0.5972590000000  0.5808210000000  0.4597140000000 1.0
C      1  0.5844050000000  0.5826780000000  0.5650410000000 1.0
C      1  0.4862710000000  0.5756880000000  0.3925650000000 1.0
C      1  0.4013510000000  0.5786710000000  0.4571450000000 1.0
C      1  0.4184470000000  0.5807140000000  0.5639590000000 1.0
C      1  0.5156810000000  0.5765480000000  0.6066840000000 1.0
C      1  0.5979630000000  0.5792270000000  0.5393540000000 1.0
C      1  0.5820590000000  0.5766400000000  0.4350340000000 1.0
C      1  0.5670450000000  0.5464710000000  0.4852550000000 1.0
C      1  0.5477490000000  0.5478220000000  0.5508580000000 1.0
C      1  0.4805330000000  0.5431340000000  0.5678730000000 1.0
C      1  0.4332230000000  0.5417860000000  0.5179150000000 1.0
C      1  0.4524680000000  0.5411200000000  0.4536560000000 1.0
C      1  0.5171200000000  0.5454980000000  0.4368700000000 1.0
C      1  0.5664260000000  0.5413690000000  0.5204870000000 1.0
C      1  0.5481060000000  0.5417740000000  0.4548370000000 1.0
C      1  0.4809610000000  0.5432760000000  0.4336630000000 1.0
C      1  0.4320890000000  0.5453160000000  0.4832780000000 1.0
C      1  0.4509150000000  0.5419770000000  0.5496060000000 1.0
C      1  0.5167300000000  0.5406400000000  0.5677370000000 1.0
C      1  0.5325010000000  0.4906130000000  0.4139390000000 1.0
C      1  0.5974320000000  0.4899720000000  0.4829040000000 1.0
C      1  0.5593370000000  0.4868160000000  0.5686850000000 1.0
C      1  0.4670360000000  0.4869920000000  0.5852210000000 1.0
C      1  0.4040160000000  0.4892970000000  0.5151980000000 1.0
C      1  0.4408730000000  0.4884760000000  0.4304900000000 1.0
C      1  0.5330910000000  0.4852800000000  0.5881530000000 1.0
C      1  0.5964010000000  0.4886220000000  0.5153560000000 1.0
C      1  0.5619330000000  0.4901060000000  0.4274890000000 1.0
C      1  0.4697350000000  0.4889880000000  0.4167330000000 1.0
C      1  0.4009800000000  0.4897390000000  0.4826750000000 1.0
C      1  0.4402870000000  0.4876320000000  0.5673170000000 1.0
C      1  0.5161890000000  0.5110650000000  0.5827300000000 1.0
C      1  0.4316690000000  0.5144060000000  0.5562310000000 1.0
C      1  0.4162190000000  0.5160520000000  0.4729570000000 1.0
C      1  0.4842390000000  0.5155330000000  0.4148520000000 1.0
C      1  0.5640530000000  0.5151380000000  0.4462660000000 1.0
C      1  0.5826110000000  0.5135820000000  0.5282220000000 1.0
C      1  0.5143370000000  0.5149300000000  0.4223640000000 1.0
C      1  0.4371390000000  0.5138750000000  0.4473600000000 1.0
C      1  0.4191610000000  0.5136990000000  0.5276480000000 1.0
C      1  0.4838440000000  0.5124740000000  0.5795130000000 1.0
C      1  0.5628970000000  0.5153420000000  0.5546350000000 1.0
C      1  0.5834160000000  0.5171690000000  0.4732430000000 1.0
C      1  0.4377710000000  0.4352630000000  0.5199180000000 1.0
C      1  0.4559160000000  0.4363070000000  0.4673310000000 1.0
C      1  0.5145150000000  0.4365940000000  0.4476760000000 1.0
C      1  0.5611050000000  0.4363570000000  0.4834060000000 1.0
C      1  0.5306720000000  0.4262270000000  0.5277470000000 1.0
C      1  0.4844170000000  0.4327060000000  0.5565730000000 1.0
C      1  0.4351100000000  0.4355020000000  0.4891650000000 1.0
C      1  0.4672060000000  0.4265410000000  0.5294600000000 1.0
C      1  0.5139460000000  0.4321300000000  0.5561700000000 1.0
C      1  0.5591570000000  0.4335520000000  0.5140640000000 1.0
C      1  0.5435230000000  0.4353310000000  0.4588790000000 1.0
C      1  0.4892250000000  0.4294280000000  0.4670370000000 1.0
C      1  0.4296260000000  0.4361330000000  0.5693190000000 1.0
C      1  0.3910700000000  0.4386170000000  0.4737050000000 1.0
C      1  0.4744190000000  0.4374860000000  0.4108580000000 1.0
C      1  0.5738260000000  0.4389650000000  0.4215300000000 1.0
C      1  0.6063320000000  0.4383920000000  0.5223700000000 1.0
C      1  0.5305590000000  0.4344100000000  0.5990360000000 1.0
C      1  0.4290730000000  0.4369780000000  0.4255850000000 1.0
C      1  0.3920930000000  0.4395480000000  0.5226010000000 1.0
C      1  0.4677090000000  0.4361470000000  0.5992330000000 1.0
C      1  0.5690600000000  0.4350900000000  0.5689060000000 1.0
C      1  0.6069770000000  0.4386200000000  0.4736620000000 1.0
C      1  0.5303990000000  0.4405010000000  0.4002740000000 1.0
C      1  0.4733580000000  0.5814010000000  0.6337450000000 1.0
C      1  0.3736120000000  0.5773170000000  0.5410220000000 1.0
C      1  0.4030220000000  0.5688620000000  0.4077390000000 1.0
C      1  0.5312380000000  0.5704140000000  0.3702000000000 1.0
C      1  0.6263850000000  0.5799840000000  0.4590000000000 1.0
C      1  0.5999810000000  0.5828360000000  0.5896730000000 1.0
C      1  0.4733820000000  0.5694780000000  0.3671610000000 1.0
C      1  0.3722430000000  0.5777340000000  0.4559810000000 1.0
C      1  0.4047740000000  0.5807000000000  0.5897140000000 1.0
C      1  0.5311900000000  0.5783860000000  0.6312980000000 1.0
C      1  0.6269860000000  0.5763670000000  0.5388650000000 1.0
C      1  0.5964300000000  0.5720110000000  0.4100810000000 1.0
C      1  0.4118240000000  0.4155530000000  0.4831420000000 1.0
C      1  0.4777680000000  0.4184270000000  0.4362620000000 1.0
C      1  0.5551920000000  0.4180650000000  0.4363130000000 1.0
C      1  0.5852650000000  0.4152400000000  0.5181720000000 1.0
C      1  0.5260250000000  0.4120410000000  0.5769740000000 1.0
C      1  0.4474420000000  0.4129390000000  0.5550690000000 1.0
C      1  0.4118900000000  0.4150190000000  0.5195420000000 1.0
C      1  0.4726230000000  0.4129380000000  0.5783860000000 1.0
C      1  0.5510250000000  0.4127040000000  0.5534460000000 1.0
C      1  0.5853170000000  0.4164370000000  0.4818420000000 1.0
C      1  0.5235600000000  0.4191370000000  0.4222550000000 1.0
C      1  0.4462980000000  0.4201070000000  0.4439800000000 1.0
C      1  0.4468070000000  0.5732240000000  0.5599070000000 1.0
C      1  0.4176290000000  0.5761810000000  0.4821530000000 1.0
C      1  0.4730040000000  0.5736520000000  0.4195090000000 1.0
C      1  0.5540100000000  0.5690640000000  0.4398330000000 1.0
C      1  0.5799440000000  0.5704590000000  0.5177800000000 1.0
C      1  0.5266700000000  0.5689150000000  0.5804280000000 1.0
C      1  0.4451500000000  0.5675290000000  0.4379050000000 1.0
C      1  0.4187700000000  0.5702660000000  0.5161810000000 1.0
C      1  0.4722250000000  0.5723810000000  0.5819910000000 1.0
C      1  0.5550260000000  0.5780460000000  0.5634150000000 1.0
C      1  0.5806000000000  0.5774820000000  0.4843360000000 1.0
C      1  0.5258970000000  0.5744950000000  0.4220120000000 1.0
C      1  0.4851270000000  0.5903410000000  0.5589500000000 1.0
C      1  0.4446880000000  0.5873270000000  0.5122280000000 1.0
C      1  0.4603900000000  0.5867000000000  0.4573830000000 1.0
C      1  0.5141360000000  0.5987490000000  0.4426220000000 1.0
C      1  0.5524150000000  0.5978080000000  0.4846350000000 1.0
C      1  0.5385550000000  0.5972650000000  0.5393370000000 1.0
C      1  0.4839750000000  0.5980910000000  0.4405990000000 1.0
C      1  0.4461570000000  0.5967400000000  0.4820330000000 1.0
C      1  0.4628280000000  0.5930580000000  0.5362430000000 1.0
C      1  0.5143300000000  0.5857510000000  0.5567160000000 1.0
C      1  0.5534500000000  0.5877020000000  0.5146600000000 1.0
C      1  0.5382860000000  0.5878570000000  0.4598260000000 1.0
C      1  0.4840800000000  0.5002040000000  0.5491860000000 1.0
C      1  0.4462600000000  0.5018850000000  0.5169530000000 1.0
C      1  0.4625390000000  0.5014480000000  0.4646050000000 1.0
C      1  0.5109420000000  0.5036040000000  0.4509080000000 1.0
C      1  0.5576090000000  0.5028000000000  0.4865110000000 1.0
C      1  0.5346410000000  0.5113800000000  0.5353220000000 1.0
C      1  0.4884410000000  0.5138490000000  0.4660830000000 1.0
C      1  0.4412540000000  0.5006910000000  0.4869940000000 1.0
C      1  0.4711970000000  0.5131370000000  0.5268270000000 1.0
C      1  0.5151560000000  0.4982850000000  0.5525280000000 1.0
C      1  0.5557290000000  0.4989640000000  0.5166820000000 1.0
C      1  0.5394480000000  0.4997160000000  0.4616050000000 1.0
C      1  0.5963990000000  0.4648340000000  0.4630470000000 1.0
C      1  0.5745680000000  0.4616980000000  0.5566550000000 1.0
C      1  0.4832710000000  0.4613450000000  0.5948600000000 1.0
C      1  0.4051410000000  0.4642460000000  0.5323670000000 1.0
C      1  0.4224730000000  0.4637560000000  0.4378070000000 1.0
C      1  0.5166040000000  0.4659890000000  0.4055780000000 1.0
C      1  0.5946710000000  0.4634900000000  0.5327150000000 1.0
C      1  0.5789840000000  0.4649370000000  0.4361250000000 1.0
C      1  0.4868900000000  0.4640960000000  0.4110350000000 1.0
C      1  0.4024210000000  0.4645120000000  0.4629660000000 1.0
C      1  0.4252490000000  0.4622890000000  0.5559880000000 1.0
C      1  0.5159020000000  0.4604230000000  0.5955150000000 1.0
C      1  0.5593380000000  0.4419480000000  0.3959450000000 1.0
C      1  0.5600360000000  0.4362430000000  0.5969120000000 1.0
C      1  0.4463850000000  0.4372740000000  0.4016720000000 1.0
C      1  0.4383750000000  0.4384730000000  0.5973230000000 1.0
C      1  0.3754980000000  0.4420710000000  0.4986240000000 1.0
C      1  0.6229460000000  0.4409300000000  0.4983660000000 1.0
C      1  0.4828130000000  0.5367350000000  0.5145130000000 1.0
END
