TITL C-862133-5440-1257 -0.00073129731750619 125000 -451.251222547686 0 0 75 (C5) n - 1
REM
REM in /home/nfs/bkarasulu/CARBON/AIRSS/Generating-Clusters/TERSOFF/Higher-Symm/FIRE-HFTN
REM
REM
REM
REM
REM
REM ./C.cell (b20cbc046b6831c77cfcea5457e17084)
REM AIRSS Version 0.9.1 bugfix July 2018 build 013d7b7c2542+ Fri, 06 Jul 2018 19:26:36 +0100
REM compiler GCC version 9.2.1 20190827 (Red Hat 9.2.1-1)
REM options -cpp -mtune=generic -march=x86-64 -g -O0 -fpre-include=/usr/include/finclude/math-vector-fortran.h
REM seed 121875206 703972577 218157047 481798681 656407133 1608544840 131886824 -1129731027 -775021544 1736672771 -1006517191 -544505325 -139335701 -1108670362 -900202364 -642463002 -1795635154 -1325403617 2085688435 -1423781297 -1254159840 540072225 -475393655 334709455 642140892 -117536190 -1135602905 1284826194 -667837350 -855537850 304073072 682825876 1408911247
REM
CELL 1.54180   50.00000   50.00000   50.00000   90.00000   90.00000   90.00000
LATT -1
SFAC C  
C      1  0.5065770000000  0.5260870000000  0.5161970000000 1.0
C      1  0.4772220000000  0.5143160000000  0.5161970000000 1.0
C      1  0.4793460000000  0.4827610000000  0.5161970000000 1.0
C      1  0.5100130000000  0.4750300000000  0.5161970000000 1.0
C      1  0.5268420000000  0.5018060000000  0.5161970000000 1.0
C      1  0.5586720000000  0.4446140000000  0.4666600000000 1.0
C      1  0.5708060000000  0.5386860000000  0.4666600000000 1.0
C      1  0.4850880000000  0.5792950000000  0.4666600000000 1.0
C      1  0.4199780000000  0.5103210000000  0.4666600000000 1.0
C      1  0.4654560000000  0.4270840000000  0.4666600000000 1.0
C      1  0.4739840000000  0.5338690000000  0.4428240000000 1.0
C      1  0.4597490000000  0.4857240000000  0.4428240000000 1.0
C      1  0.5011390000000  0.4573070000000  0.4428240000000 1.0
C      1  0.5409550000000  0.4878910000000  0.4428240000000 1.0
C      1  0.5241720000000  0.5352090000000  0.4428240000000 1.0
C      1  0.5059570000000  0.4133550000000  0.5454540000000 1.0
C      1  0.5842450000000  0.4788910000000  0.5454540000000 1.0
C      1  0.5461090000000  0.5735980000000  0.5454540000000 1.0
C      1  0.4442520000000  0.5665960000000  0.5454540000000 1.0
C      1  0.4194370000000  0.4675600000000  0.5454540000000 1.0
C      1  0.5411920000000  0.5026550000000  0.5423090000000 1.0
C      1  0.5102040000000  0.5399960000000  0.5423090000000 1.0
C      1  0.4651140000000  0.5220640000000  0.5423090000000 1.0
C      1  0.4682360000000  0.4736400000000  0.5423090000000 1.0
C      1  0.5152540000000  0.4616450000000  0.5423090000000 1.0
C      1  0.4678120000000  0.5809990000000  0.5579510000000 1.0
C      1  0.4130190000000  0.4944170000000  0.5579510000000 1.0
C      1  0.4784310000000  0.4155510000000  0.5579510000000 1.0
C      1  0.5736510000000  0.4533900000000  0.5579510000000 1.0
C      1  0.5670880000000  0.5556430000000  0.5579510000000 1.0
C      1  0.5171450000000  0.5671310000000  0.5436370000000 1.0
C      1  0.4414530000000  0.5370500000000  0.5436370000000 1.0
C      1  0.4466710000000  0.4557670000000  0.5436370000000 1.0
C      1  0.5255880000000  0.4356130000000  0.5436370000000 1.0
C      1  0.5691430000000  0.5044390000000  0.5436370000000 1.0
C      1  0.4651090000000  0.5615390000000  0.4525600000000 1.0
C      1  0.4306910000000  0.4858330000000  0.4525600000000 1.0
C      1  0.4920550000000  0.4297050000000  0.4525600000000 1.0
C      1  0.5643990000000  0.4707220000000  0.4525600000000 1.0
C      1  0.5477460000000  0.5522000000000  0.4525600000000 1.0
C      1  0.5109050000000  0.5227850000000  0.4661250000000 1.0
C      1  0.4817000000000  0.5174120000000  0.4661250000000 1.0
C      1  0.4777850000000  0.4879760000000  0.4661250000000 1.0
C      1  0.5045710000000  0.4751570000000  0.4661250000000 1.0
C      1  0.5250400000000  0.4966700000000  0.4661250000000 1.0
C      1  0.5693470000000  0.5120300000000  0.4808350000000 1.0
C      1  0.5099890000000  0.5696710000000  0.4808350000000 1.0
C      1  0.4368260000000  0.5310290000000  0.4808350000000 1.0
C      1  0.4509680000000  0.4495060000000  0.4808350000000 1.0
C      1  0.5328710000000  0.4377640000000  0.4808350000000 1.0
C      1  0.5551380000000  0.4328930000000  0.5454700000000 1.0
C      1  0.5808620000000  0.5317020000000  0.5454700000000 1.0
C      1  0.4948370000000  0.5867010000000  0.5454700000000 1.0
C      1  0.4159470000000  0.5218820000000  0.5454700000000 1.0
C      1  0.4532160000000  0.4268230000000  0.5454700000000 1.0
C      1  0.5824600000000  0.4893700000000  0.4669080000000 1.0
C      1  0.5355920000000  0.5751390000000  0.4669080000000 1.0
C      1  0.4395370000000  0.5570690000000  0.4669080000000 1.0
C      1  0.4270400000000  0.4601320000000  0.4669080000000 1.0
C      1  0.5153710000000  0.4182910000000  0.4669080000000 1.0
C      1  0.5157620000000  0.5214700000000  0.4166950000000 1.0
C      1  0.4844520000000  0.5216250000000  0.4166950000000 1.0
C      1  0.4746290000000  0.4918950000000  0.4166950000000 1.0
C      1  0.4998680000000  0.4733660000000  0.4166950000000 1.0
C      1  0.5252900000000  0.4916440000000  0.4166950000000 1.0
C      1  0.5116120000000  0.5405200000000  0.4896030000000 1.0
C      1  0.4650520000000  0.5235650000000  0.4896030000000 1.0
C      1  0.4667890000000  0.4740440000000  0.4896030000000 1.0
C      1  0.5144230000000  0.4603940000000  0.4896030000000 1.0
C      1  0.5421250000000  0.5014780000000  0.4896030000000 1.0
C      1  0.4787330000000  0.5134550000000  0.5667720000000 1.0
C      1  0.4806320000000  0.4839320000000  0.5667720000000 1.0
C      1  0.5092960000000  0.4766140000000  0.5667720000000 1.0
C      1  0.5251140000000  0.5016150000000  0.5667720000000 1.0
C      1  0.5062250000000  0.5243840000000  0.5667720000000 1.0
END
