TITL C-862500-986-547 110356.615726518 125000 -471.235145510287 0 0 82 (C1) n - 1
REM
REM in /home/nfs/bkarasulu/CARBON/AIRSS/Generating-Clusters/TERSOFF/Higher-Symm/FIRE-HFTN
REM
REM
REM
REM
REM
REM ./C.cell (b20cbc046b6831c77cfcea5457e17084)
REM AIRSS Version 0.9.1 bugfix July 2018 build 013d7b7c2542+ Fri, 06 Jul 2018 19:26:36 +0100
REM compiler GCC version 9.2.1 20190827 (Red Hat 9.2.1-1)
REM options -cpp -mtune=generic -march=x86-64 -g -O0 -fpre-include=/usr/include/finclude/math-vector-fortran.h
REM seed 733766706 1325815177 220866022 -1281980159 314190962 71509068 1875512528 -1791321252 1130920909 -1142942481 907380456 -144409539 -1940200279 -1767188692 1544361410 1827837665 976281383 -1285721232 602385986 -296510018 -1783396255 -629701786 466393609 941335398 228338070 1713731443 532103700 1422014886 9258006 -1216169491 385802754 -1280010698 -740154718
REM
CELL 1.54180   50.00000   50.00000   50.00000   90.00000   90.00000   90.00000
LATT -1
SFAC C  
C      1  0.5377090000000  0.4795540000000  0.4222430000000 1.0
C      1  0.5373600000000  0.5537390000000  0.5405540000000 1.0
C      1  0.5133390000000  0.5919060000000  0.4611340000000 1.0
C      1  0.5183650000000  0.5525740000000  0.5639520000000 1.0
C      1  0.5825540000000  0.4421340000000  0.5022350000000 1.0
C      1  0.5589050000000  0.4397940000000  0.5487490000000 1.0
C      1  0.4186930000000  0.5209840000000  0.5365800000000 1.0
C      1  0.4707310000000  0.4904810000000  0.5424050000000 1.0
C      1  0.5423410000000  0.5861100000000  0.4627710000000 1.0
C      1  0.5096780000000  0.4363100000000  0.5583160000000 1.0
C      1  0.4953800000000  0.4157300000000  0.5140880000000 1.0
C      1  0.4228120000000  0.4725240000000  0.5223010000000 1.0
C      1  0.5044860000000  0.4312240000000  0.4667950000000 1.0
C      1  0.5412380000000  0.5247970000000  0.5341410000000 1.0
C      1  0.4479490000000  0.4583350000000  0.5171170000000 1.0
C      1  0.4645080000000  0.5419080000000  0.5223860000000 1.0
C      1  0.4631040000000  0.4450840000000  0.4418900000000 1.0
C      1  0.4405480000000  0.5477190000000  0.4721740000000 1.0
C      1  0.4660950000000  0.4791620000000  0.4063950000000 1.0
C      1  0.4098630000000  0.5083280000000  0.4877280000000 1.0
C      1  0.4632700000000  0.5297750000000  0.4742220000000 1.0
C      1  0.5577020000000  0.5167060000000  0.5118380000000 1.0
C      1  0.5405410000000  0.4570680000000  0.4407770000000 1.0
C      1  0.5174290000000  0.5234420000000  0.5725680000000 1.0
C      1  0.5003700000000  0.5150570000000  0.5943330000000 1.0
C      1  0.5066410000000  0.4565270000000  0.5800440000000 1.0
C      1  0.4917570000000  0.5630060000000  0.5568710000000 1.0
C      1  0.5201010000000  0.5002330000000  0.4820420000000 1.0
C      1  0.4684360000000  0.4891100000000  0.4841880000000 1.0
C      1  0.4956760000000  0.5330940000000  0.3835000000000 1.0
C      1  0.5674890000000  0.4825740000000  0.4761930000000 1.0
C      1  0.5432080000000  0.5047760000000  0.4366060000000 1.0
C      1  0.5308230000000  0.4678600000000  0.5935650000000 1.0
C      1  0.5543640000000  0.5595710000000  0.4592240000000 1.0
C      1  0.4657460000000  0.5928430000000  0.4802950000000 1.0
C      1  0.5581030000000  0.4693560000000  0.5501580000000 1.0
C      1  0.5272090000000  0.5428370000000  0.4956790000000 1.0
C      1  0.5182670000000  0.4777330000000  0.4001380000000 1.0
C      1  0.4875330000000  0.4405150000000  0.4236690000000 1.0
C      1  0.4838520000000  0.4954970000000  0.4613870000000 1.0
C      1  0.4628250000000  0.4408830000000  0.4711470000000 1.0
C      1  0.5072240000000  0.5218180000000  0.4980070000000 1.0
C      1  0.4457530000000  0.5725810000000  0.4881740000000 1.0
C      1  0.5204170000000  0.5060010000000  0.5467690000000 1.0
C      1  0.5630830000000  0.4222960000000  0.5107990000000 1.0
C      1  0.4495130000000  0.4682040000000  0.4283480000000 1.0
C      1  0.5067290000000  0.5842760000000  0.5125930000000 1.0
C      1  0.4714620000000  0.5168080000000  0.5938620000000 1.0
C      1  0.5293600000000  0.4781650000000  0.5471420000000 1.0
C      1  0.5420550000000  0.4113470000000  0.4939940000000 1.0
C      1  0.5138760000000  0.4550400000000  0.4529610000000 1.0
C      1  0.4628380000000  0.4457630000000  0.5392660000000 1.0
C      1  0.5481970000000  0.5370630000000  0.4763850000000 1.0
C      1  0.5145930000000  0.4216310000000  0.4925020000000 1.0
C      1  0.4955200000000  0.4762010000000  0.4443140000000 1.0
C      1  0.4802140000000  0.4665620000000  0.5868300000000 1.0
C      1  0.4469470000000  0.5635870000000  0.5153040000000 1.0
C      1  0.5556220000000  0.4753700000000  0.5797980000000 1.0
C      1  0.5469710000000  0.5063690000000  0.4671060000000 1.0
C      1  0.5746630000000  0.4826070000000  0.5294900000000 1.0
C      1  0.4732630000000  0.5413870000000  0.5496220000000 1.0
C      1  0.5781430000000  0.4710820000000  0.5027220000000 1.0
C      1  0.4605740000000  0.4624340000000  0.4912440000000 1.0
C      1  0.4929760000000  0.5074000000000  0.5347840000000 1.0
C      1  0.5018080000000  0.5988940000000  0.4353130000000 1.0
C      1  0.4584300000000  0.5258270000000  0.5693110000000 1.0
C      1  0.5237780000000  0.4910310000000  0.3748820000000 1.0
C      1  0.4176850000000  0.5008040000000  0.5154320000000 1.0
C      1  0.5136220000000  0.5170830000000  0.3673740000000 1.0
C      1  0.5283960000000  0.5647820000000  0.5142540000000 1.0
C      1  0.4894440000000  0.4333850000000  0.5368310000000 1.0
C      1  0.4952980000000  0.5906320000000  0.4851520000000 1.0
C      1  0.5636360000000  0.4596050000000  0.4578470000000 1.0
C      1  0.4142880000000  0.5347650000000  0.4752150000000 1.0
C      1  0.4921530000000  0.4641010000000  0.4042410000000 1.0
C      1  0.4313800000000  0.5172260000000  0.5626110000000 1.0
C      1  0.4557620000000  0.5097640000000  0.6172640000000 1.0
C      1  0.5356910000000  0.4242050000000  0.5543590000000 1.0
C      1  0.4639900000000  0.4833090000000  0.5696540000000 1.0
C      1  0.4913300000000  0.5857060000000  0.5375870000000 1.0
C      1  0.4781530000000  0.5271030000000  0.4992190000000 1.0
C      1  0.4581610000000  0.5009260000000  0.3890420000000 1.0
END
