TITL C-862506-1665-1466 110.667398807537 125000 -659.952857988205 0 0 114 (C1) n - 1
REM
REM in /home/nfs/bkarasulu/CARBON/AIRSS/Generating-Clusters/TERSOFF/Higher-Symm/FIRE-HFTN
REM
REM
REM
REM
REM
REM ./C.cell (b20cbc046b6831c77cfcea5457e17084)
REM AIRSS Version 0.9.1 bugfix July 2018 build 013d7b7c2542+ Fri, 06 Jul 2018 19:26:36 +0100
REM compiler GCC version 9.2.1 20190827 (Red Hat 9.2.1-1)
REM options -cpp -mtune=generic -march=x86-64 -g -O0 -fpre-include=/usr/include/finclude/math-vector-fortran.h
REM seed -184931893 391636931 883601696 -571605293 -1041140891 -1121784325 -1671961446 -1369170104 2023609166 -357431487 52688918 1091521600 -1737803432 160816291 -301040807 1708572460 1775091241 -1766261927 -687707586 -287983893 -1605044817 -547352501 100004037 -1623367169 -636033856 1136916578 281741827 -307908920 -2090707160 2111571716 -431430170 1589786615 -2119703428
REM
CELL 1.54180   50.00000   50.00000   50.00000   90.00000   90.00000   90.00000
LATT -1
SFAC C  
C      1  0.3964750000000  0.5369760000000  0.5233990000000 1.0
C      1  0.6029840000000  0.4785100000000  0.5368510000000 1.0
C      1  0.3965860000000  0.4627170000000  0.4775340000000 1.0
C      1  0.6016770000000  0.5247050000000  0.4641980000000 1.0
C      1  0.5237840000000  0.5650640000000  0.5384020000000 1.0
C      1  0.4751280000000  0.4644570000000  0.5661420000000 1.0
C      1  0.5235480000000  0.4344360000000  0.4603040000000 1.0
C      1  0.4749940000000  0.5374890000000  0.4359920000000 1.0
C      1  0.5731550000000  0.4732190000000  0.4579380000000 1.0
C      1  0.4274130000000  0.5395710000000  0.4766080000000 1.0
C      1  0.5725140000000  0.5247600000000  0.5393210000000 1.0
C      1  0.4288300000000  0.4603240000000  0.5212730000000 1.0
C      1  0.4634030000000  0.4218730000000  0.5455570000000 1.0
C      1  0.5347510000000  0.4551580000000  0.4173740000000 1.0
C      1  0.4656250000000  0.5786490000000  0.4601280000000 1.0
C      1  0.5361100000000  0.5461770000000  0.5814910000000 1.0
C      1  0.4390640000000  0.5677610000000  0.5428320000000 1.0
C      1  0.5611770000000  0.4587110000000  0.5671610000000 1.0
C      1  0.4386460000000  0.4323380000000  0.4557270000000 1.0
C      1  0.5586320000000  0.5419480000000  0.4360870000000 1.0
C      1  0.5292260000000  0.5904050000000  0.4925430000000 1.0
C      1  0.4690030000000  0.5091600000000  0.5939780000000 1.0
C      1  0.5293330000000  0.4093630000000  0.5066980000000 1.0
C      1  0.4679640000000  0.4937420000000  0.4081310000000 1.0
C      1  0.5573100000000  0.4730030000000  0.4820450000000 1.0
C      1  0.4429640000000  0.5161220000000  0.4699930000000 1.0
C      1  0.5604630000000  0.5218860000000  0.5129940000000 1.0
C      1  0.4363670000000  0.4862590000000  0.5108450000000 1.0
C      1  0.5191210000000  0.5140100000000  0.5146640000000 1.0
C      1  0.4777700000000  0.4919550000000  0.5148520000000 1.0
C      1  0.5168120000000  0.4832080000000  0.4864520000000 1.0
C      1  0.4792890000000  0.5052720000000  0.4880630000000 1.0
C      1  0.4665340000000  0.4197230000000  0.4613330000000 1.0
C      1  0.5306930000000  0.5335150000000  0.4263360000000 1.0
C      1  0.4677840000000  0.5773780000000  0.5352600000000 1.0
C      1  0.5328250000000  0.4659880000000  0.5777590000000 1.0
C      1  0.5056770000000  0.5501030000000  0.4284650000000 1.0
C      1  0.4932840000000  0.5731910000000  0.5513490000000 1.0
C      1  0.5073460000000  0.4505400000000  0.5724010000000 1.0
C      1  0.4920900000000  0.4265950000000  0.4464740000000 1.0
C      1  0.5025930000000  0.5492100000000  0.4868840000000 1.0
C      1  0.4993510000000  0.5103310000000  0.5558510000000 1.0
C      1  0.5010790000000  0.4483420000000  0.5156100000000 1.0
C      1  0.4995100000000  0.4898450000000  0.4455790000000 1.0
C      1  0.5419330000000  0.4230070000000  0.4828720000000 1.0
C      1  0.4551170000000  0.5170710000000  0.4224490000000 1.0
C      1  0.5421060000000  0.5783400000000  0.5170020000000 1.0
C      1  0.4564290000000  0.4860660000000  0.5785370000000 1.0
C      1  0.4612100000000  0.4493980000000  0.4946540000000 1.0
C      1  0.5443110000000  0.5044900000000  0.4534660000000 1.0
C      1  0.4604930000000  0.5466280000000  0.5076090000000 1.0
C      1  0.5426940000000  0.4947640000000  0.5488160000000 1.0
C      1  0.4288840000000  0.4994990000000  0.5637570000000 1.0
C      1  0.5736560000000  0.4362020000000  0.4939810000000 1.0
C      1  0.4237430000000  0.5041380000000  0.4346420000000 1.0
C      1  0.5744940000000  0.5676040000000  0.5054910000000 1.0
C      1  0.4643960000000  0.4508620000000  0.5427230000000 1.0
C      1  0.5338230000000  0.4578340000000  0.4462800000000 1.0
C      1  0.4665680000000  0.5496060000000  0.4607890000000 1.0
C      1  0.5343260000000  0.5420490000000  0.5527650000000 1.0
C      1  0.4087140000000  0.4906590000000  0.5421370000000 1.0
C      1  0.5961420000000  0.4592820000000  0.4902040000000 1.0
C      1  0.4030270000000  0.5108030000000  0.4581520000000 1.0
C      1  0.5954840000000  0.5449230000000  0.5105340000000 1.0
C      1  0.5479980000000  0.4092330000000  0.5296120000000 1.0
C      1  0.4503340000000  0.4698310000000  0.4083230000000 1.0
C      1  0.5478210000000  0.5920210000000  0.4696280000000 1.0
C      1  0.4518900000000  0.5337820000000  0.5918790000000 1.0
C      1  0.5425300000000  0.4705790000000  0.5314510000000 1.0
C      1  0.4664930000000  0.4611260000000  0.4683640000000 1.0
C      1  0.5455450000000  0.5269230000000  0.4730570000000 1.0
C      1  0.4630300000000  0.5345040000000  0.5337040000000 1.0
C      1  0.5143590000000  0.5591840000000  0.5950880000000 1.0
C      1  0.4863340000000  0.4077110000000  0.5557710000000 1.0
C      1  0.5122150000000  0.4440210000000  0.4034790000000 1.0
C      1  0.4866680000000  0.5930830000000  0.4468610000000 1.0
C      1  0.4343990000000  0.4393700000000  0.5020620000000 1.0
C      1  0.5695020000000  0.4954440000000  0.4391220000000 1.0
C      1  0.4347910000000  0.5556370000000  0.4989440000000 1.0
C      1  0.5681030000000  0.5046080000000  0.5597020000000 1.0
C      1  0.4957530000000  0.5121010000000  0.5841680000000 1.0
C      1  0.5036260000000  0.4200450000000  0.5130760000000 1.0
C      1  0.4947360000000  0.4898470000000  0.4174330000000 1.0
C      1  0.5045930000000  0.5776600000000  0.4864990000000 1.0
C      1  0.4638100000000  0.5605570000000  0.5917960000000 1.0
C      1  0.5372700000000  0.4111050000000  0.5569740000000 1.0
C      1  0.4615910000000  0.4426980000000  0.4079580000000 1.0
C      1  0.5370680000000  0.5889580000000  0.4423930000000 1.0
C      1  0.5979490000000  0.4851810000000  0.5073100000000 1.0
C      1  0.3984530000000  0.4935590000000  0.4838910000000 1.0
C      1  0.5976500000000  0.5185970000000  0.4937550000000 1.0
C      1  0.4006480000000  0.5073680000000  0.5171600000000 1.0
C      1  0.4884170000000  0.4354700000000  0.4179260000000 1.0
C      1  0.5098800000000  0.5790730000000  0.4360630000000 1.0
C      1  0.4902290000000  0.5670950000000  0.5806940000000 1.0
C      1  0.5105470000000  0.4218380000000  0.5639380000000 1.0
C      1  0.5229820000000  0.4651170000000  0.5094730000000 1.0
C      1  0.4780510000000  0.4877670000000  0.4644390000000 1.0
C      1  0.5249450000000  0.5327670000000  0.4934010000000 1.0
C      1  0.4766370000000  0.5095290000000  0.5382170000000 1.0
C      1  0.5251020000000  0.4836020000000  0.4572780000000 1.0
C      1  0.4767460000000  0.5362990000000  0.4858510000000 1.0
C      1  0.5245480000000  0.5159990000000  0.5433740000000 1.0
C      1  0.4752640000000  0.4611480000000  0.5172380000000 1.0
C      1  0.5809090000000  0.5222050000000  0.4429530000000 1.0
C      1  0.4179130000000  0.5581350000000  0.5219540000000 1.0
C      1  0.5824420000000  0.4795680000000  0.5587550000000 1.0
C      1  0.4192580000000  0.4414910000000  0.4776310000000 1.0
C      1  0.5728190000000  0.4227300000000  0.5213660000000 1.0
C      1  0.4252310000000  0.4765950000000  0.4222920000000 1.0
C      1  0.5735260000000  0.5804280000000  0.4780370000000 1.0
C      1  0.4284310000000  0.5270080000000  0.5753540000000 1.0
C      1  0.5542330000000  0.4961240000000  0.5002590000000 1.0
C      1  0.4403010000000  0.4906800000000  0.4826130000000 1.0
END
