TITL C-862500-986-342 0.0263584950260601 125000 -770.370319609337 0 0 148 (C1) n - 1
REM
REM in /home/nfs/bkarasulu/CARBON/AIRSS/Generating-Clusters/TERSOFF/Higher-Symm/FIRE-HFTN
REM
REM
REM
REM
REM
REM ./C.cell (b20cbc046b6831c77cfcea5457e17084)
REM AIRSS Version 0.9.1 bugfix July 2018 build 013d7b7c2542+ Fri, 06 Jul 2018 19:26:36 +0100
REM compiler GCC version 9.2.1 20190827 (Red Hat 9.2.1-1)
REM options -cpp -mtune=generic -march=x86-64 -g -O0 -fpre-include=/usr/include/finclude/math-vector-fortran.h
REM seed 33859979 849487542 -367306047 478600540 1830806893 -276240254 -685433832 2089940163 193665671 785131379 -1045450345 1625602022 -1902933442 1115438383 -1632793650 264827672 -220321899 324062256 -15390517 -33792482 1136253163 -1568121578 1326103509 -2089823672 1976884599 1648396900 -2027872391 -633793238 -1250572809 -1988893037 943279025 1113750577 704567045
REM
CELL 1.54180   50.00000   50.00000   50.00000   90.00000   90.00000   90.00000
LATT -1
SFAC C  
C      1  0.4408620000000  0.4783520000000  0.5489810000000 1.0
C      1  0.5020680000000  0.4385990000000  0.5466390000000 1.0
C      1  0.5610140000000  0.4827150000000  0.5487930000000 1.0
C      1  0.5351090000000  0.5513520000000  0.5479930000000 1.0
C      1  0.4613240000000  0.5493330000000  0.5485730000000 1.0
C      1  0.6079370000000  0.5232430000000  0.4840280000000 1.0
C      1  0.5109230000000  0.6088970000000  0.4844800000000 1.0
C      1  0.3988070000000  0.5443510000000  0.4838510000000 1.0
C      1  0.4260950000000  0.4196340000000  0.4832340000000 1.0
C      1  0.5556220000000  0.4045530000000  0.4845020000000 1.0
C      1  0.4442250000000  0.5257190000000  0.5358320000000 1.0
C      1  0.4578180000000  0.4548750000000  0.5352820000000 1.0
C      1  0.5294560000000  0.4463870000000  0.5320540000000 1.0
C      1  0.5613180000000  0.5119840000000  0.5361880000000 1.0
C      1  0.5078810000000  0.5602460000000  0.5329400000000 1.0
C      1  0.4547010000000  0.4188720000000  0.5139280000000 1.0
C      1  0.5676870000000  0.4319430000000  0.5143450000000 1.0
C      1  0.5857520000000  0.5393910000000  0.5158230000000 1.0
C      1  0.4846010000000  0.5940500000000  0.5137020000000 1.0
C      1  0.4068210000000  0.5178030000000  0.5153900000000 1.0
C      1  0.4358900000000  0.4482460000000  0.4681380000000 1.0
C      1  0.5320240000000  0.4235880000000  0.4720090000000 1.0
C      1  0.5835900000000  0.5040580000000  0.4689730000000 1.0
C      1  0.5187590000000  0.5793030000000  0.4724430000000 1.0
C      1  0.4296050000000  0.5440800000000  0.4695250000000 1.0
C      1  0.4553650000000  0.5891490000000  0.4762860000000 1.0
C      1  0.4013430000000  0.4868610000000  0.4751810000000 1.0
C      1  0.4826850000000  0.4046200000000  0.4739860000000 1.0
C      1  0.5884300000000  0.4526630000000  0.4758270000000 1.0
C      1  0.5697960000000  0.5668320000000  0.4748510000000 1.0
C      1  0.4520520000000  0.5491460000000  0.4252160000000 1.0
C      1  0.4384520000000  0.4703940000000  0.4250300000000 1.0
C      1  0.5094150000000  0.4307720000000  0.4272520000000 1.0
C      1  0.5682670000000  0.4862250000000  0.4250280000000 1.0
C      1  0.5310010000000  0.5577260000000  0.4291550000000 1.0
C      1  0.4416370000000  0.5171370000000  0.5831200000000 1.0
C      1  0.4661600000000  0.4489990000000  0.5826160000000 1.0
C      1  0.5376560000000  0.4508930000000  0.5806540000000 1.0
C      1  0.5576130000000  0.5204660000000  0.5834720000000 1.0
C      1  0.4983380000000  0.5616960000000  0.5812720000000 1.0
C      1  0.5829980000000  0.5372410000000  0.4374070000000 1.0
C      1  0.4885230000000  0.5894820000000  0.4393710000000 1.0
C      1  0.4093620000000  0.5176230000000  0.4367120000000 1.0
C      1  0.4548960000000  0.4207260000000  0.4373630000000 1.0
C      1  0.5636300000000  0.4307850000000  0.4378890000000 1.0
C      1  0.4337210000000  0.4430230000000  0.4389240000000 1.0
C      1  0.5351900000000  0.4192580000000  0.4423680000000 1.0
C      1  0.5875190000000  0.5067860000000  0.4395110000000 1.0
C      1  0.5185910000000  0.5833570000000  0.4425500000000 1.0
C      1  0.4250010000000  0.5437930000000  0.4402700000000 1.0
C      1  0.5907580000000  0.5480990000000  0.4644150000000 1.0
C      1  0.4804800000000  0.6028050000000  0.4661080000000 1.0
C      1  0.3964110000000  0.5142500000000  0.4642060000000 1.0
C      1  0.4542200000000  0.4074050000000  0.4643060000000 1.0
C      1  0.5768170000000  0.4267760000000  0.4656590000000 1.0
C      1  0.4883140000000  0.4770870000000  0.5562480000000 1.0
C      1  0.5183250000000  0.4817890000000  0.5562910000000 1.0
C      1  0.5234790000000  0.5117420000000  0.5557470000000 1.0
C      1  0.4963640000000  0.5254020000000  0.5567040000000 1.0
C      1  0.4746660000000  0.5041960000000  0.5563690000000 1.0
C      1  0.5669920000000  0.5256890000000  0.4925060000000 1.0
C      1  0.4926720000000  0.5722140000000  0.4935150000000 1.0
C      1  0.4291450000000  0.5170840000000  0.4934860000000 1.0
C      1  0.4621720000000  0.4399990000000  0.4895670000000 1.0
C      1  0.5486900000000  0.4448160000000  0.4940810000000 1.0
C      1  0.5226060000000  0.4583740000000  0.4296110000000 1.0
C      1  0.5449890000000  0.5060510000000  0.4315920000000 1.0
C      1  0.5048660000000  0.5417690000000  0.4333970000000 1.0
C      1  0.4585780000000  0.5188740000000  0.4288120000000 1.0
C      1  0.4690180000000  0.4678600000000  0.4319800000000 1.0
C      1  0.5323540000000  0.5324290000000  0.4911370000000 1.0
C      1  0.4756070000000  0.5432870000000  0.4916570000000 1.0
C      1  0.4507900000000  0.4919280000000  0.4923130000000 1.0
C      1  0.4946150000000  0.4554930000000  0.4871170000000 1.0
C      1  0.5457500000000  0.4785780000000  0.4929030000000 1.0
C      1  0.4804550000000  0.5604060000000  0.4337130000000 1.0
C      1  0.4341820000000  0.5013200000000  0.4294260000000 1.0
C      1  0.4787380000000  0.4387890000000  0.4332900000000 1.0
C      1  0.5531640000000  0.4582000000000  0.4288630000000 1.0
C      1  0.5533830000000  0.5352550000000  0.4316510000000 1.0
C      1  0.5964960000000  0.5022830000000  0.5385990000000 1.0
C      1  0.5294170000000  0.5891450000000  0.5306660000000 1.0
C      1  0.4209720000000  0.5539360000000  0.5387790000000 1.0
C      1  0.4235190000000  0.4422390000000  0.5372820000000 1.0
C      1  0.5283050000000  0.4103920000000  0.5300080000000 1.0
C      1  0.4708820000000  0.4876270000000  0.4625380000000 1.0
C      1  0.5125250000000  0.4700430000000  0.4589480000000 1.0
C      1  0.5350180000000  0.4959130000000  0.4636020000000 1.0
C      1  0.5106270000000  0.5227470000000  0.4635350000000 1.0
C      1  0.4736610000000  0.5238540000000  0.4611730000000 1.0
C      1  0.5651830000000  0.5737850000000  0.5035570000000 1.0
C      1  0.4439300000000  0.5905420000000  0.5041340000000 1.0
C      1  0.3984710000000  0.4783700000000  0.5037470000000 1.0
C      1  0.4913000000000  0.4020920000000  0.5023440000000 1.0
C      1  0.5978660000000  0.4591050000000  0.5037920000000 1.0
C      1  0.5120970000000  0.4764620000000  0.4086690000000 1.0
C      1  0.5241620000000  0.5028310000000  0.4108960000000 1.0
C      1  0.5033140000000  0.5228200000000  0.4109670000000 1.0
C      1  0.4777890000000  0.5095930000000  0.4086230000000 1.0
C      1  0.4824400000000  0.4803460000000  0.4079370000000 1.0
C      1  0.4058170000000  0.5000030000000  0.5413120000000 1.0
C      1  0.4721480000000  0.4097270000000  0.5410470000000 1.0
C      1  0.5770980000000  0.4449130000000  0.5406060000000 1.0
C      1  0.5763660000000  0.5571790000000  0.5429530000000 1.0
C      1  0.4701090000000  0.5895060000000  0.5406150000000 1.0
C      1  0.4968080000000  0.5308140000000  0.5897730000000 1.0
C      1  0.4706090000000  0.5061050000000  0.5898470000000 1.0
C      1  0.4853850000000  0.4732560000000  0.5895800000000 1.0
C      1  0.5211440000000  0.4768820000000  0.5894140000000 1.0
C      1  0.5276950000000  0.5122990000000  0.5893610000000 1.0
C      1  0.6000920000000  0.4678480000000  0.5448800000000 1.0
C      1  0.5590020000000  0.5855640000000  0.5433600000000 1.0
C      1  0.4380270000000  0.5841060000000  0.5452140000000 1.0
C      1  0.4005310000000  0.4676350000000  0.5442970000000 1.0
C      1  0.5022680000000  0.3968150000000  0.5425050000000 1.0
C      1  0.4327610000000  0.5063830000000  0.5555070000000 1.0
C      1  0.4730150000000  0.4380310000000  0.5545560000000 1.0
C      1  0.5502540000000  0.4547930000000  0.5526630000000 1.0
C      1  0.5588540000000  0.5343450000000  0.5559170000000 1.0
C      1  0.4860800000000  0.5659310000000  0.5531200000000 1.0
C      1  0.4746510000000  0.4739600000000  0.5108450000000 1.0
C      1  0.5176900000000  0.4685430000000  0.5095660000000 1.0
C      1  0.5355490000000  0.5063400000000  0.5124840000000 1.0
C      1  0.5037050000000  0.5354250000000  0.5104830000000 1.0
C      1  0.4669290000000  0.5152220000000  0.5117080000000 1.0
C      1  0.4288470000000  0.4770350000000  0.5147540000000 1.0
C      1  0.4955850000000  0.4304850000000  0.5131040000000 1.0
C      1  0.5725150000000  0.4777450000000  0.5148060000000 1.0
C      1  0.5452290000000  0.5535650000000  0.5150830000000 1.0
C      1  0.4544870000000  0.5603820000000  0.5147300000000 1.0
C      1  0.6000410000000  0.5008200000000  0.5074450000000 1.0
C      1  0.5225780000000  0.6119350000000  0.5125430000000 1.0
C      1  0.4185040000000  0.5574030000000  0.5077270000000 1.0
C      1  0.4198700000000  0.4423110000000  0.5064670000000 1.0
C      1  0.5470730000000  0.3954150000000  0.5123280000000 1.0
C      1  0.4296820000000  0.4767610000000  0.4728310000000 1.0
C      1  0.5024730000000  0.4285450000000  0.4717420000000 1.0
C      1  0.5714430000000  0.4772100000000  0.4729030000000 1.0
C      1  0.5400110000000  0.5583820000000  0.4737180000000 1.0
C      1  0.4547800000000  0.5594690000000  0.4728390000000 1.0
C      1  0.5173420000000  0.4310460000000  0.5721360000000 1.0
C      1  0.5705950000000  0.4947360000000  0.5754480000000 1.0
C      1  0.5265470000000  0.5663230000000  0.5733310000000 1.0
C      1  0.4461820000000  0.5454820000000  0.5749990000000 1.0
C      1  0.4403330000000  0.4617860000000  0.5749140000000 1.0
C      1  0.4968890000000  0.4987430000000  0.4852630000000 1.0
C      1  0.4984430000000  0.4953360000000  0.4436070000000 1.0
C      1  0.4997310000000  0.4996770000000  0.5180990000000 1.0
END
