TITL C-862506-1665-1317 15.2659689293487 125000 -1033.82722190972 0 0 182 (C3) n - 1
REM
REM in /home/nfs/bkarasulu/CARBON/AIRSS/Generating-Clusters/TERSOFF/Higher-Symm/FIRE-HFTN
REM
REM
REM
REM
REM
REM ./C.cell (b20cbc046b6831c77cfcea5457e17084)
REM AIRSS Version 0.9.1 bugfix July 2018 build 013d7b7c2542+ Fri, 06 Jul 2018 19:26:36 +0100
REM compiler GCC version 9.2.1 20190827 (Red Hat 9.2.1-1)
REM options -cpp -mtune=generic -march=x86-64 -g -O0 -fpre-include=/usr/include/finclude/math-vector-fortran.h
REM seed 624137627 -1227850194 -425280785 -1667307406 -2065414998 -2051366355 1009713242 -47955795 -1972113666 1534343138 1923925988 -1787081242 -861137099 1287889583 -1337695448 -2095525793 1491658697 1119081135 819263361 1125957765 -1272272375 1699034938 -1693003209 -1730796193 -736967132 -1277763646 -809421465 -2037396342 258790198 105117682 -1238869592 -1735130052 -1899106754
REM
CELL 1.54180   50.00000   50.00000   50.00000   90.00000   90.00000   90.00000
LATT -1
SFAC C  
C      1  0.5299700000000  0.5738000000000  0.4474260000000 1.0
C      1  0.4388230000000  0.5738000000000  0.5003260000000 1.0
C      1  0.5302090000000  0.5738000000000  0.5528120000000 1.0
C      1  0.5080580000000  0.6132930000000  0.4447310000000 1.0
C      1  0.4474450000000  0.6132940000000  0.5206500000000 1.0
C      1  0.5434990000000  0.6132930000000  0.5351830000000 1.0
C      1  0.4322420000000  0.5678190000000  0.4712690000000 1.0
C      1  0.5083350000000  0.5678180000000  0.5730400000000 1.0
C      1  0.5584250000000  0.5678180000000  0.4562560000000 1.0
C      1  0.5302060000000  0.5995240000000  0.4903290000000 1.0
C      1  0.4758600000000  0.5995240000000  0.4786720000000 1.0
C      1  0.4929370000000  0.5995240000000  0.5315650000000 1.0
C      1  0.5542300000000  0.5054880000000  0.4724310000000 1.0
C      1  0.4483470000000  0.5054880000000  0.4668140000000 1.0
C      1  0.4964250000000  0.5054880000000  0.5613200000000 1.0
C      1  0.5671020000000  0.4503250000000  0.5422770000000 1.0
C      1  0.5024000000000  0.4503250000000  0.4207440000000 1.0
C      1  0.4295000000000  0.4503250000000  0.5375440000000 1.0
C      1  0.4934050000000  0.4202470000000  0.5947170000000 1.0
C      1  0.5846620000000  0.4202470000000  0.4583470000000 1.0
C      1  0.4209340000000  0.4202470000000  0.4475010000000 1.0
C      1  0.5510950000000  0.6071560000000  0.5083120000000 1.0
C      1  0.4809900000000  0.6071560000000  0.4515890000000 1.0
C      1  0.4669180000000  0.6071560000000  0.5406640000000 1.0
C      1  0.5601440000000  0.4218190000000  0.4430380000000 1.0
C      1  0.4199360000000  0.4218190000000  0.4763890000000 1.0
C      1  0.5189220000000  0.4218190000000  0.5811370000000 1.0
C      1  0.4671300000000  0.4080720000000  0.4223430000000 1.0
C      1  0.4485200000000  0.4080720000000  0.5672880000000 1.0
C      1  0.5833510000000  0.4080720000000  0.5109330000000 1.0
C      1  0.4030940000000  0.4327940000000  0.5191650000000 1.0
C      1  0.5643880000000  0.4327930000000  0.5743340000000 1.0
C      1  0.5315190000000  0.4327930000000  0.4070650000000 1.0
C      1  0.4484040000000  0.4642320000000  0.5602130000000 1.0
C      1  0.5772820000000  0.4642320000000  0.5145710000000 1.0
C      1  0.4733160000000  0.4642320000000  0.4257800000000 1.0
C      1  0.4030380000000  0.5646510000000  0.4664760000000 1.0
C      1  0.5187870000000  0.5646500000000  0.6007280000000 1.0
C      1  0.5771780000000  0.5646500000000  0.4333610000000 1.0
C      1  0.4935160000000  0.4178300000000  0.4162710000000 1.0
C      1  0.4300680000000  0.4178300000000  0.5474750000000 1.0
C      1  0.5754180000000  0.4178300000000  0.5368200000000 1.0
C      1  0.6214990000000  0.4904290000000  0.5408910000000 1.0
C      1  0.4740020000000  0.4904290000000  0.3743280000000 1.0
C      1  0.4035020000000  0.4904290000000  0.5853460000000 1.0
C      1  0.4219680000000  0.5504930000000  0.5748440000000 1.0
C      1  0.6031710000000  0.5504930000000  0.5301500000000 1.0
C      1  0.4738630000000  0.5504930000000  0.3955710000000 1.0
C      1  0.5356370000000  0.4691330000000  0.5756930000000 1.0
C      1  0.5470720000000  0.4691330000000  0.4312850000000 1.0
C      1  0.4162930000000  0.4691330000000  0.4935860000000 1.0
C      1  0.4909400000000  0.4697800000000  0.4729380000000 1.0
C      1  0.4804320000000  0.4697800000000  0.5213710000000 1.0
C      1  0.5276300000000  0.4697800000000  0.5062550000000 1.0
C      1  0.3768760000000  0.5022090000000  0.4782060000000 1.0
C      1  0.5420260000000  0.5022090000000  0.6175200000000 1.0
C      1  0.5801000000000  0.5022090000000  0.4048390000000 1.0
C      1  0.5721940000000  0.5888760000000  0.5016190000000 1.0
C      1  0.4646430000000  0.5888760000000  0.4366630000000 1.0
C      1  0.4621650000000  0.5888760000000  0.5622830000000 1.0
C      1  0.4690920000000  0.4587450000000  0.4544990000000 1.0
C      1  0.4753870000000  0.4587450000000  0.5495120000000 1.0
C      1  0.5545230000000  0.4587450000000  0.4965540000000 1.0
C      1  0.4684510000000  0.5131480000000  0.5652260000000 1.0
C      1  0.5716000000000  0.5131480000000  0.4947040000000 1.0
C      1  0.4589510000000  0.5131480000000  0.4406350000000 1.0
C      1  0.5673290000000  0.5649080000000  0.4851210000000 1.0
C      1  0.4527880000000  0.5649080000000  0.4491260000000 1.0
C      1  0.4788860000000  0.5649080000000  0.5663190000000 1.0
C      1  0.4841630000000  0.4161460000000  0.5288150000000 1.0
C      1  0.5322100000000  0.4161460000000  0.4993020000000 1.0
C      1  0.4826280000000  0.4161460000000  0.4724480000000 1.0
C      1  0.4191820000000  0.5038410000000  0.5643340000000 1.0
C      1  0.5954620000000  0.5038410000000  0.5378180000000 1.0
C      1  0.4843580000000  0.5038410000000  0.3984130000000 1.0
C      1  0.5251730000000  0.3986920000000  0.4718220000000 1.0
C      1  0.4623480000000  0.3986920000000  0.4922830000000 1.0
C      1  0.5114800000000  0.3986920000000  0.5364600000000 1.0
C      1  0.3775760000000  0.5294820000000  0.4957750000000 1.0
C      1  0.5568920000000  0.5294820000000  0.6081290000000 1.0
C      1  0.5645350000000  0.5294820000000  0.3966600000000 1.0
C      1  0.4743980000000  0.4027330000000  0.5557600000000 1.0
C      1  0.5604290000000  0.4027330000000  0.4942860000000 1.0
C      1  0.4641750000000  0.4027330000000  0.4505180000000 1.0
C      1  0.4409070000000  0.5014100000000  0.5221760000000 1.0
C      1  0.5480900000000  0.5014100000000  0.5400820000000 1.0
C      1  0.5100050000000  0.5014100000000  0.4383070000000 1.0
C      1  0.5589840000000  0.4027550000000  0.5589970000000 1.0
C      1  0.5209390000000  0.4027550000000  0.4194140000000 1.0
C      1  0.4190790000000  0.4027550000000  0.5221540000000 1.0
C      1  0.4393480000000  0.4528050000000  0.5867640000000 1.0
C      1  0.6048030000000  0.4528050000000  0.5091390000000 1.0
C      1  0.4548510000000  0.4528050000000  0.4046620000000 1.0
C      1  0.5612930000000  0.4831400000000  0.3903710000000 1.0
C      1  0.3737500000000  0.4831410000000  0.5017270000000 1.0
C      1  0.5639590000000  0.4831400000000  0.6084660000000 1.0
C      1  0.4955120000000  0.4581950000000  0.5698520000000 1.0
C      1  0.5620750000000  0.4581940000000  0.4689550000000 1.0
C      1  0.4414140000000  0.4581950000000  0.4617580000000 1.0
C      1  0.4160860000000  0.5856050000000  0.5150380000000 1.0
C      1  0.5543180000000  0.5856040000000  0.5651480000000 1.0
C      1  0.5285980000000  0.5856050000000  0.4203800000000 1.0
C      1  0.6265980000000  0.4661000000000  0.5246360000000 1.0
C      1  0.4573740000000  0.4661000000000  0.3780390000000 1.0
C      1  0.4150290000000  0.4661000000000  0.5978900000000 1.0
C      1  0.4570380000000  0.4349310000000  0.5201960000000 1.0
C      1  0.5383090000000  0.4349310000000  0.5271030000000 1.0
C      1  0.5036550000000  0.4349310000000  0.4532660000000 1.0
C      1  0.4457440000000  0.4937370000000  0.5631190000000 1.0
C      1  0.5811280000000  0.4937370000000  0.5154220000000 1.0
C      1  0.4721300000000  0.4937370000000  0.4220240000000 1.0
C      1  0.4956080000000  0.5303850000000  0.6074720000000 1.0
C      1  0.5946070000000  0.5303850000000  0.4500620000000 1.0
C      1  0.4087870000000  0.5303850000000  0.4430310000000 1.0
C      1  0.6053210000000  0.4247650000000  0.5011390000000 1.0
C      1  0.4476630000000  0.4247650000000  0.4082140000000 1.0
C      1  0.4460170000000  0.4247650000000  0.5912120000000 1.0
C      1  0.4579950000000  0.5564730000000  0.5164670000000 1.0
C      1  0.5346020000000  0.5564730000000  0.5281380000000 1.0
C      1  0.5064050000000  0.5564730000000  0.4559600000000 1.0
C      1  0.5375710000000  0.4029490000000  0.4457290000000 1.0
C      1  0.4335520000000  0.4029490000000  0.4945920000000 1.0
C      1  0.5278780000000  0.4029490000000  0.5602440000000 1.0
C      1  0.5867360000000  0.5313020000000  0.5454040000000 1.0
C      1  0.4952910000000  0.5313020000000  0.4021770000000 1.0
C      1  0.4169760000000  0.5313020000000  0.5529840000000 1.0
C      1  0.5117780000000  0.5310980000000  0.4309800000000 1.0
C      1  0.4336760000000  0.5310980000000  0.5243040000000 1.0
C      1  0.5535480000000  0.5310970000000  0.5452800000000 1.0
C      1  0.5368390000000  0.5198500000000  0.3899690000000 1.0
C      1  0.3856290000000  0.5198510000000  0.5231070000000 1.0
C      1  0.5765350000000  0.5198500000000  0.5874890000000 1.0
C      1  0.5544950000000  0.4424340000000  0.4227810000000 1.0
C      1  0.4052170000000  0.4424340000000  0.4914100000000 1.0
C      1  0.5392900000000  0.4424340000000  0.5863740000000 1.0
C      1  0.5432630000000  0.5370650000000  0.4320140000000 1.0
C      1  0.4188290000000  0.5370650000000  0.4965210000000 1.0
C      1  0.5369110000000  0.5370650000000  0.5720300000000 1.0
C      1  0.5683150000000  0.5581610000000  0.4057610000000 1.0
C      1  0.3835670000000  0.5581620000000  0.4879510000000 1.0
C      1  0.5471200000000  0.5581610000000  0.6068530000000 1.0
C      1  0.5268550000000  0.4942370000000  0.5225860000000 1.0
C      1  0.5054700000000  0.4942370000000  0.4654450000000 1.0
C      1  0.4666770000000  0.4942370000000  0.5125350000000 1.0
C      1  0.3985280000000  0.4931870000000  0.4595110000000 1.0
C      1  0.5150100000000  0.4931860000000  0.6081160000000 1.0
C      1  0.5854650000000  0.4931860000000  0.4329370000000 1.0
C      1  0.5092900000000  0.5262850000000  0.5791420000000 1.0
C      1  0.5632320000000  0.5262850000000  0.4523780000000 1.0
C      1  0.4264800000000  0.5262850000000  0.4690440000000 1.0
C      1  0.4663520000000  0.5321610000000  0.6146080000000 1.0
C      1  0.6154160000000  0.5321610000000  0.4718300000000 1.0
C      1  0.4172340000000  0.5321610000000  0.4141270000000 1.0
C      1  0.4260460000000  0.4829730000000  0.4687750000000 1.0
C      1  0.5092740000000  0.4829730000000  0.5796530000000 1.0
C      1  0.5636830000000  0.4829730000000  0.4521360000000 1.0
C      1  0.5210780000000  0.4802590000000  0.4202730000000 1.0
C      1  0.4197540000000  0.4802590000000  0.5216030000000 1.0
C      1  0.5581700000000  0.4802590000000  0.5586880000000 1.0
C      1  0.5022160000000  0.5038300000000  0.5327550000000 1.0
C      1  0.5265970000000  0.5038300000000  0.4816980000000 1.0
C      1  0.4701890000000  0.5038300000000  0.4861120000000 1.0
C      1  0.4441220000000  0.5455850000000  0.5963610000000 1.0
C      1  0.6107280000000  0.5455850000000  0.5002050000000 1.0
C      1  0.4441520000000  0.5455850000000  0.4039980000000 1.0
C      1  0.3910100000000  0.4902010000000  0.5257420000000 1.0
C      1  0.5761270000000  0.4902010000000  0.5815120000000 1.0
C      1  0.5318660000000  0.4902010000000  0.3933110000000 1.0
C      1  0.4525470000000  0.6126120000000  0.4920890000000 1.0
C      1  0.5162140000000  0.6126110000000  0.5450450000000 1.0
C      1  0.5302420000000  0.6126110000000  0.4634310000000 1.0
C      1  0.4880970000000  0.5707480000000  0.4835340000000 1.0
C      1  0.4910290000000  0.5707480000000  0.5185360000000 1.0
C      1  0.5198760000000  0.5707480000000  0.4984950000000 1.0
C      1  0.4541670000000  0.5410150000000  0.4320480000000 1.0
C      1  0.4634070000000  0.5410150000000  0.5736630000000 1.0
C      1  0.5814290000000  0.5410150000000  0.4948540000000 1.0
C      1  0.5635670000000  0.5770600000000  0.5913100000000 1.0
C      1  0.5466310000000  0.5770600000000  0.3992890000000 1.0
C      1  0.3888040000000  0.5770600000000  0.5099660000000 1.0
C      1  0.4996670000000  0.4162620000000  0.5001880000000 1.0
C      1  0.4996670000000  0.4588520000000  0.5001880000000 1.0
END
