TITL C-862507-1800-45 0.104708853876275 125000 -633.244137843998 0 0 108 (C1) n - 1
REM
REM in /home/nfs/bkarasulu/CARBON/AIRSS/Generating-Clusters/TERSOFF/Higher-Symm/FIRE-HFTN
REM
REM
REM
REM
REM
REM ./C.cell (b20cbc046b6831c77cfcea5457e17084)
REM AIRSS Version 0.9.1 bugfix July 2018 build 013d7b7c2542+ Fri, 06 Jul 2018 19:26:36 +0100
REM compiler GCC version 9.2.1 20190827 (Red Hat 9.2.1-1)
REM options -cpp -mtune=generic -march=x86-64 -g -O0 -fpre-include=/usr/include/finclude/math-vector-fortran.h
REM seed 1943299972 902652286 -240613061 291340443 -1405632699 -1889235310 -1286484324 -1148466020 -1526405939 995558571 -1247166010 2125026707 348601860 18337282 -2123233485 -879900630 -2079659912 1317322457 -1780530661 1564047331 -1250857057 1313191893 714674997 -981717238 -1090734696 -302808000 -1150904736 1126522682 256202612 178771191 -1213679792 -1932695620 694243235
REM
CELL 1.54180   50.00000   50.00000   50.00000   90.00000   90.00000   90.00000
LATT -1
SFAC C  
C      1  0.5431090000000  0.5843410000000  0.5231180000000 1.0
C      1  0.4630200000000  0.4312180000000  0.5891730000000 1.0
C      1  0.4422110000000  0.5094170000000  0.4624270000000 1.0
C      1  0.5426160000000  0.4760490000000  0.4789420000000 1.0
C      1  0.4194610000000  0.5127350000000  0.5323750000000 1.0
C      1  0.4558390000000  0.4694650000000  0.5098460000000 1.0
C      1  0.4843030000000  0.4808570000000  0.4558310000000 1.0
C      1  0.4957570000000  0.4844180000000  0.3990660000000 1.0
C      1  0.5385600000000  0.5010960000000  0.5449470000000 1.0
C      1  0.4013650000000  0.5679110000000  0.4946470000000 1.0
C      1  0.4874620000000  0.5005090000000  0.5959380000000 1.0
C      1  0.5248570000000  0.4753600000000  0.5825360000000 1.0
C      1  0.4401610000000  0.4433180000000  0.4456280000000 1.0
C      1  0.5721480000000  0.5023970000000  0.4477290000000 1.0
C      1  0.4831010000000  0.4039760000000  0.4944090000000 1.0
C      1  0.6130920000000  0.5264320000000  0.5049060000000 1.0
C      1  0.4387870000000  0.4971760000000  0.5480480000000 1.0
C      1  0.5553080000000  0.5477840000000  0.5563630000000 1.0
C      1  0.4703690000000  0.5590720000000  0.5661260000000 1.0
C      1  0.5044740000000  0.5582130000000  0.3998210000000 1.0
C      1  0.6015050000000  0.5418250000000  0.5274860000000 1.0
C      1  0.5447330000000  0.4886320000000  0.4483110000000 1.0
C      1  0.4590740000000  0.5786980000000  0.4759560000000 1.0
C      1  0.4646660000000  0.5240190000000  0.4787100000000 1.0
C      1  0.4328070000000  0.4412480000000  0.4754570000000 1.0
C      1  0.5317380000000  0.5667320000000  0.4084980000000 1.0
C      1  0.4748420000000  0.5156580000000  0.5040590000000 1.0
C      1  0.5940250000000  0.4905850000000  0.4642580000000 1.0
C      1  0.5711350000000  0.4460480000000  0.4472760000000 1.0
C      1  0.5136300000000  0.4381460000000  0.4745510000000 1.0
C      1  0.5555600000000  0.4096140000000  0.5107860000000 1.0
C      1  0.4677640000000  0.4931150000000  0.4026280000000 1.0
C      1  0.5664390000000  0.5059530000000  0.5340760000000 1.0
C      1  0.5648370000000  0.4777550000000  0.4963660000000 1.0
C      1  0.5766350000000  0.5261330000000  0.4316190000000 1.0
C      1  0.5196470000000  0.4623110000000  0.4887750000000 1.0
C      1  0.5384200000000  0.4420450000000  0.5461080000000 1.0
C      1  0.4564530000000  0.4151570000000  0.5646770000000 1.0
C      1  0.5330320000000  0.3975520000000  0.4968390000000 1.0
C      1  0.4379980000000  0.5482550000000  0.5198030000000 1.0
C      1  0.5113050000000  0.5848140000000  0.4804400000000 1.0
C      1  0.5936490000000  0.4608670000000  0.4602750000000 1.0
C      1  0.4476750000000  0.4699760000000  0.5391170000000 1.0
C      1  0.4847320000000  0.5681550000000  0.4193580000000 1.0
C      1  0.5367750000000  0.5746350000000  0.4364330000000 1.0
C      1  0.4670460000000  0.4390780000000  0.4349250000000 1.0
C      1  0.5229110000000  0.4201670000000  0.5571840000000 1.0
C      1  0.5222280000000  0.5047000000000  0.4366370000000 1.0
C      1  0.5742500000000  0.4562210000000  0.5143410000000 1.0
C      1  0.5027860000000  0.4666520000000  0.5365750000000 1.0
C      1  0.5313670000000  0.5737490000000  0.5487120000000 1.0
C      1  0.5579080000000  0.5637010000000  0.5084840000000 1.0
C      1  0.4824150000000  0.5319260000000  0.4548880000000 1.0
C      1  0.4033350000000  0.4750810000000  0.4550740000000 1.0
C      1  0.4526710000000  0.4436110000000  0.4970440000000 1.0
C      1  0.5099370000000  0.4121410000000  0.4868980000000 1.0
C      1  0.4691200000000  0.5311880000000  0.5566320000000 1.0
C      1  0.5991890000000  0.5032110000000  0.4927970000000 1.0
C      1  0.4208270000000  0.4630160000000  0.4341580000000 1.0
C      1  0.4961340000000  0.4722900000000  0.5923760000000 1.0
C      1  0.4365690000000  0.5741110000000  0.5326360000000 1.0
C      1  0.3997360000000  0.5038140000000  0.4577210000000 1.0
C      1  0.5176360000000  0.4428110000000  0.4455710000000 1.0
C      1  0.5375050000000  0.5014250000000  0.5936660000000 1.0
C      1  0.5712790000000  0.5047310000000  0.5036780000000 1.0
C      1  0.4062930000000  0.5186330000000  0.4820570000000 1.0
C      1  0.5002690000000  0.5297370000000  0.5086470000000 1.0
C      1  0.5728040000000  0.5492660000000  0.5299930000000 1.0
C      1  0.5554390000000  0.4362570000000  0.5229060000000 1.0
C      1  0.4767740000000  0.4549690000000  0.5486570000000 1.0
C      1  0.4656280000000  0.5224410000000  0.4104750000000 1.0
C      1  0.4407350000000  0.5551380000000  0.4640610000000 1.0
C      1  0.4582300000000  0.5280310000000  0.5272590000000 1.0
C      1  0.4978740000000  0.5061150000000  0.4516380000000 1.0
C      1  0.5572810000000  0.5210970000000  0.5767710000000 1.0
C      1  0.5935770000000  0.4652830000000  0.5345810000000 1.0
C      1  0.5028410000000  0.5663900000000  0.5405310000000 1.0
C      1  0.5022970000000  0.4741260000000  0.5088840000000 1.0
C      1  0.4653000000000  0.4203780000000  0.5104760000000 1.0
C      1  0.5587950000000  0.5223860000000  0.4831970000000 1.0
C      1  0.4534630000000  0.5798250000000  0.5552430000000 1.0
C      1  0.4994480000000  0.4087280000000  0.5447170000000 1.0
C      1  0.4779260000000  0.4544160000000  0.5782410000000 1.0
C      1  0.4068880000000  0.4722580000000  0.5062950000000 1.0
C      1  0.4075760000000  0.5024070000000  0.5075580000000 1.0
C      1  0.4775480000000  0.4864040000000  0.5025990000000 1.0
C      1  0.4735260000000  0.4234680000000  0.5400060000000 1.0
C      1  0.5156700000000  0.5061010000000  0.4073010000000 1.0
C      1  0.5444340000000  0.4581690000000  0.4409550000000 1.0
C      1  0.4851400000000  0.5829460000000  0.5234780000000 1.0
C      1  0.4901450000000  0.4559010000000  0.4410590000000 1.0
C      1  0.5179730000000  0.5356700000000  0.5793010000000 1.0
C      1  0.5285500000000  0.4712420000000  0.5527620000000 1.0
C      1  0.5116970000000  0.5176870000000  0.6017090000000 1.0
C      1  0.5047190000000  0.5386060000000  0.5345700000000 1.0
C      1  0.5882650000000  0.4908810000000  0.5469500000000 1.0
C      1  0.4660230000000  0.5099510000000  0.5773510000000 1.0
C      1  0.4159910000000  0.5471750000000  0.4803460000000 1.0
C      1  0.4958090000000  0.5295850000000  0.4017070000000 1.0
C      1  0.4088840000000  0.4592360000000  0.4799530000000 1.0
C      1  0.5444330000000  0.5460270000000  0.4889160000000 1.0
C      1  0.4917270000000  0.5588130000000  0.4459030000000 1.0
C      1  0.5156280000000  0.5703900000000  0.4562760000000 1.0
C      1  0.4202050000000  0.4587210000000  0.5292860000000 1.0
C      1  0.4528600000000  0.5318900000000  0.4392040000000 1.0
C      1  0.5154520000000  0.5428690000000  0.4879840000000 1.0
C      1  0.5206010000000  0.5244540000000  0.5525880000000 1.0
C      1  0.4853620000000  0.5826380000000  0.4938750000000 1.0
END
