TITL C-862507-1800-1067 0.737781275251796 125000 -660.299744873451 0 0 122 (Cs) n - 1
REM
REM in /home/nfs/bkarasulu/CARBON/AIRSS/Generating-Clusters/TERSOFF/Higher-Symm/FIRE-HFTN
REM
REM
REM
REM
REM
REM ./C.cell (b20cbc046b6831c77cfcea5457e17084)
REM AIRSS Version 0.9.1 bugfix July 2018 build 013d7b7c2542+ Fri, 06 Jul 2018 19:26:36 +0100
REM compiler GCC version 9.2.1 20190827 (Red Hat 9.2.1-1)
REM options -cpp -mtune=generic -march=x86-64 -g -O0 -fpre-include=/usr/include/finclude/math-vector-fortran.h
REM seed -400535764 138010838 223347708 -1102043436 -393508890 283851925 1806254891 1839853549 1350864509 934408833 1980888307 -1201653207 -2137517069 -1161376728 210750522 -234103103 -2065654640 -1366276125 -947406818 1210563191 -2095333807 1915364240 809859181 -639211193 -949184168 1921736752 -888437087 863783052 -521150267 1531272648 -2138683943 -305692049 -1449944537
REM
CELL 1.54180   50.00000   50.00000   50.00000   90.00000   90.00000   90.00000
LATT -1
SFAC C  
C      1  0.4154180000000  0.5196870000000  0.5265830000000 1.0
C      1  0.5832320000000  0.4709150000000  0.5277640000000 1.0
C      1  0.4156390000000  0.4709150000000  0.5277620000000 1.0
C      1  0.5834530000000  0.5196870000000  0.5265850000000 1.0
C      1  0.5259260000000  0.4275760000000  0.5711690000000 1.0
C      1  0.4722850000000  0.5634770000000  0.5730190000000 1.0
C      1  0.5265840000000  0.5634770000000  0.5730200000000 1.0
C      1  0.4729440000000  0.4275760000000  0.5711680000000 1.0
C      1  0.4716920000000  0.4366860000000  0.4246930000000 1.0
C      1  0.5275110000000  0.5643810000000  0.4294880000000 1.0
C      1  0.4713620000000  0.5643810000000  0.4294870000000 1.0
C      1  0.5271810000000  0.4366860000000  0.4246940000000 1.0
C      1  0.4466070000000  0.5051510000000  0.5878650000000 1.0
C      1  0.5269700000000  0.4721180000000  0.5934990000000 1.0
C      1  0.4718990000000  0.4721180000000  0.5934980000000 1.0
C      1  0.5522620000000  0.5051510000000  0.5878660000000 1.0
C      1  0.4724360000000  0.5357370000000  0.5285580000000 1.0
C      1  0.5266650000000  0.4588360000000  0.5289520000000 1.0
C      1  0.4722060000000  0.4588360000000  0.5289510000000 1.0
C      1  0.5264350000000  0.5357370000000  0.5285590000000 1.0
C      1  0.5285290000000  0.4741110000000  0.5034140000000 1.0
C      1  0.4631760000000  0.5223290000000  0.5032410000000 1.0
C      1  0.5356960000000  0.5223290000000  0.5032420000000 1.0
C      1  0.4703420000000  0.4741110000000  0.5034140000000 1.0
C      1  0.4525780000000  0.4629230000000  0.4331900000000 1.0
C      1  0.5488410000000  0.5371250000000  0.4365570000000 1.0
C      1  0.4500320000000  0.5371260000000  0.4365560000000 1.0
C      1  0.5462950000000  0.4629220000000  0.4331910000000 1.0
C      1  0.4523610000000  0.4592590000000  0.4813360000000 1.0
C      1  0.5496090000000  0.5382680000000  0.4815370000000 1.0
C      1  0.4492630000000  0.5382680000000  0.4815350000000 1.0
C      1  0.5465110000000  0.4592590000000  0.4813370000000 1.0
C      1  0.4468360000000  0.5578590000000  0.5540200000000 1.0
C      1  0.5511390000000  0.4347940000000  0.5531800000000 1.0
C      1  0.4477310000000  0.4347940000000  0.5531780000000 1.0
C      1  0.5520340000000  0.5578590000000  0.5540210000000 1.0
C      1  0.4844790000000  0.5440240000000  0.5925750000000 1.0
C      1  0.5141240000000  0.4470890000000  0.5901030000000 1.0
C      1  0.4847450000000  0.4470900000000  0.5901020000000 1.0
C      1  0.5143900000000  0.5440240000000  0.5925760000000 1.0
C      1  0.5571170000000  0.4374630000000  0.4987170000000 1.0
C      1  0.4402910000000  0.5604280000000  0.4990730000000 1.0
C      1  0.5585800000000  0.5604280000000  0.4990750000000 1.0
C      1  0.4417540000000  0.4374630000000  0.4987160000000 1.0
C      1  0.4289930000000  0.5262330000000  0.5527270000000 1.0
C      1  0.5698950000000  0.4659910000000  0.5551810000000 1.0
C      1  0.4289750000000  0.4659910000000  0.5551800000000 1.0
C      1  0.5698770000000  0.5262330000000  0.5527290000000 1.0
C      1  0.4784610000000  0.4126650000000  0.5133760000000 1.0
C      1  0.5204270000000  0.5830640000000  0.5166380000000 1.0
C      1  0.4784440000000  0.5830640000000  0.5166380000000 1.0
C      1  0.5204100000000  0.4126650000000  0.5133760000000 1.0
C      1  0.4274500000000  0.5239150000000  0.4624850000000 1.0
C      1  0.5682390000000  0.4717160000000  0.4608220000000 1.0
C      1  0.4306330000000  0.4717160000000  0.4608210000000 1.0
C      1  0.5714220000000  0.5239150000000  0.4624870000000 1.0
C      1  0.5247110000000  0.4663510000000  0.4577800000000 1.0
C      1  0.4740220000000  0.5358800000000  0.4602190000000 1.0
C      1  0.5248510000000  0.5358800000000  0.4602200000000 1.0
C      1  0.4741620000000  0.4663510000000  0.4577790000000 1.0
C      1  0.5454940000000  0.5176880000000  0.4114820000000 1.0
C      1  0.4530220000000  0.4849430000000  0.4098500000000 1.0
C      1  0.5458510000000  0.4849430000000  0.4098510000000 1.0
C      1  0.4533790000000  0.5176880000000  0.4114800000000 1.0
C      1  0.5256810000000  0.5343900000000  0.3962500000000 1.0
C      1  0.4736070000000  0.4690100000000  0.3941560000000 1.0
C      1  0.5252670000000  0.4690100000000  0.3941570000000 1.0
C      1  0.4731930000000  0.5343910000000  0.3962500000000 1.0
C      1  0.5413290000000  0.4311130000000  0.5228280000000 1.0
C      1  0.4563030000000  0.5643670000000  0.5236010000000 1.0
C      1  0.5425680000000  0.5643670000000  0.5236020000000 1.0
C      1  0.4575420000000  0.4311140000000  0.5228270000000 1.0
C      1  0.5396720000000  0.5180230000000  0.5499270000000 1.0
C      1  0.4579290000000  0.4753900000000  0.5504140000000 1.0
C      1  0.5409410000000  0.4753900000000  0.5504150000000 1.0
C      1  0.4591980000000  0.5180230000000  0.5499260000000 1.0
C      1  0.4994350000000  0.4143730000000  0.5598570000000 1.0
C      1  0.4994350000000  0.5770800000000  0.5629060000000 1.0
C      1  0.4994360000000  0.5886700000000  0.4657980000000 1.0
C      1  0.4994360000000  0.4112850000000  0.4604430000000 1.0
C      1  0.4994360000000  0.5298400000000  0.4386480000000 1.0
C      1  0.4994360000000  0.4735760000000  0.4374430000000 1.0
C      1  0.5464190000000  0.4969710000000  0.5072110000000 1.0
C      1  0.4524520000000  0.4969710000000  0.5072100000000 1.0
C      1  0.5249730000000  0.5015300000000  0.4564140000000 1.0
C      1  0.4738990000000  0.5015300000000  0.4564140000000 1.0
C      1  0.4234290000000  0.4979440000000  0.5709210000000 1.0
C      1  0.5754410000000  0.4979440000000  0.5709230000000 1.0
C      1  0.4994370000000  0.5724020000000  0.4414880000000 1.0
C      1  0.4994360000000  0.4283840000000  0.4366220000000 1.0
C      1  0.4222200000000  0.4947950000000  0.5106520000000 1.0
C      1  0.5766520000000  0.4947950000000  0.5106540000000 1.0
C      1  0.4994370000000  0.5412610000000  0.4085350000000 1.0
C      1  0.4994370000000  0.4629630000000  0.4073070000000 1.0
C      1  0.5254440000000  0.4968510000000  0.5718520000000 1.0
C      1  0.4734260000000  0.4968510000000  0.5718520000000 1.0
C      1  0.4994350000000  0.4604650000000  0.5417110000000 1.0
C      1  0.4994350000000  0.5445610000000  0.5363510000000 1.0
C      1  0.4994360000000  0.5470410000000  0.4776070000000 1.0
C      1  0.4994360000000  0.4527700000000  0.4739220000000 1.0
C      1  0.5546810000000  0.4989780000000  0.4529440000000 1.0
C      1  0.4441920000000  0.4989780000000  0.4529430000000 1.0
C      1  0.5855650000000  0.4960800000000  0.4810720000000 1.0
C      1  0.4133070000000  0.4960800000000  0.4810700000000 1.0
C      1  0.4994350000000  0.4028000000000  0.5334790000000 1.0
C      1  0.4994350000000  0.5909680000000  0.5378630000000 1.0
C      1  0.4994360000000  0.4233840000000  0.4875520000000 1.0
C      1  0.4994360000000  0.5749860000000  0.4918920000000 1.0
C      1  0.4994360000000  0.4994230000000  0.4719630000000 1.0
C      1  0.4994370000000  0.5019460000000  0.3917720000000 1.0
C      1  0.4994510000000  0.5392630000000  0.6594220000000 1.0
C      1  0.4994350000000  0.5049270000000  0.5892480000000 1.0
C      1  0.4994150000000  0.5090080000000  0.3401320000000 1.0
C      1  0.4994320000000  0.5255770000000  0.3164000000000 1.0
C      1  0.4994350000000  0.5039160000000  0.5238460000000 1.0
C      1  0.4994370000000  0.5190440000000  0.3672810000000 1.0
C      1  0.4994360000000  0.4871870000000  0.4978970000000 1.0
C      1  0.4994330000000  0.5651800000000  0.6723070000000 1.0
C      1  0.4994350000000  0.4898180000000  0.5501300000000 1.0
C      1  0.4994340000000  0.5350570000000  0.6307850000000 1.0
C      1  0.4994370000000  0.5018870000000  0.4230780000000 1.0
C      1  0.4994340000000  0.5091370000000  0.6178980000000 1.0
END
