TITL C-862502-1143-1327 -0.000126997465241937 125000 -1026.14138820932 0 0 188 (C3) n - 1
REM
REM in /home/nfs/bkarasulu/CARBON/AIRSS/Generating-Clusters/TERSOFF/Higher-Symm/FIRE-HFTN
REM
REM
REM
REM
REM
REM ./C.cell (b20cbc046b6831c77cfcea5457e17084)
REM AIRSS Version 0.9.1 bugfix July 2018 build 013d7b7c2542+ Fri, 06 Jul 2018 19:26:36 +0100
REM compiler GCC version 9.2.1 20190827 (Red Hat 9.2.1-1)
REM options -cpp -mtune=generic -march=x86-64 -g -O0 -fpre-include=/usr/include/finclude/math-vector-fortran.h
REM seed -1628783898 832839465 -82326152 -1105587072 2106194328 -1313653312 -1159103181 -720919896 603807253 1399146317 -1454032688 -2104826851 1395171915 1770363195 -1872042080 369818510 1228041658 -118371370 1010567039 -602707331 -1380345078 -27632295 1001278463 1995180517 -1700903775 623479777 1137934402 138838353 1338124915 377611460 -1639282887 -1826098083 -1068298842
REM
CELL 1.54180   50.00000   50.00000   50.00000   90.00000   90.00000   90.00000
LATT -1
SFAC C  
C      1  0.4431130000000  0.5603640000000  0.4142640000000 1.0
C      1  0.4431130000000  0.3953980000000  0.4906180000000 1.0
C      1  0.4431130000000  0.5440060000000  0.5953060000000 1.0
C      1  0.5556410000000  0.5619580000000  0.4156770000000 1.0
C      1  0.5556410000000  0.3958250000000  0.4885310000000 1.0
C      1  0.5556410000000  0.5419850000000  0.5959790000000 1.0
C      1  0.5144180000000  0.4042390000000  0.5168830000000 1.0
C      1  0.5144180000000  0.5623320000000  0.5745160000000 1.0
C      1  0.5144170000000  0.5331970000000  0.4087870000000 1.0
C      1  0.4850510000000  0.4044460000000  0.5173700000000 1.0
C      1  0.4850510000000  0.5626500000000  0.5740940000000 1.0
C      1  0.4850510000000  0.5326730000000  0.4087230000000 1.0
C      1  0.5569860000000  0.4148570000000  0.5374370000000 1.0
C      1  0.5569860000000  0.5748230000000  0.5550440000000 1.0
C      1  0.5569860000000  0.5100880000000  0.4077060000000 1.0
C      1  0.4431820000000  0.4156840000000  0.5387850000000 1.0
C      1  0.4431820000000  0.5755770000000  0.5536540000000 1.0
C      1  0.4431820000000  0.5085070000000  0.4077490000000 1.0
C      1  0.5405980000000  0.4416100000000  0.4310670000000 1.0
C      1  0.5405980000000  0.4693270000000  0.5850610000000 1.0
C      1  0.5405980000000  0.5888310000000  0.4840590000000 1.0
C      1  0.4603030000000  0.4400110000000  0.4319400000000 1.0
C      1  0.4603030000000  0.4708830000000  0.5860090000000 1.0
C      1  0.4603030000000  0.5888750000000  0.4822390000000 1.0
C      1  0.4823500000000  0.4463590000000  0.5903450000000 1.0
C      1  0.4823500000000  0.6048910000000  0.5013080000000 1.0
C      1  0.4823500000000  0.4485180000000  0.4085340000000 1.0
C      1  0.5183700000000  0.4454650000000  0.5894050000000 1.0
C      1  0.5183700000000  0.6045250000000  0.5025520000000 1.0
C      1  0.5183700000000  0.4497780000000  0.4082290000000 1.0
C      1  0.4880350000000  0.3957170000000  0.4491740000000 1.0
C      1  0.4880350000000  0.5079550000000  0.6157510000000 1.0
C      1  0.4880350000000  0.5960960000000  0.4352620000000 1.0
C      1  0.5157810000000  0.3948830000000  0.4352580000000 1.0
C      1  0.5157810000000  0.4963210000000  0.6234310000000 1.0
C      1  0.5157810000000  0.6085640000000  0.4414980000000 1.0
C      1  0.5622730000000  0.5797890000000  0.4390650000000 1.0
C      1  0.5622730000000  0.4071650000000  0.4613950000000 1.0
C      1  0.5622730000000  0.5128150000000  0.5997270000000 1.0
C      1  0.4373670000000  0.5780950000000  0.4378730000000 1.0
C      1  0.4373670000000  0.4069790000000  0.4634580000000 1.0
C      1  0.4373670000000  0.5146950000000  0.5988560000000 1.0
C      1  0.4825920000000  0.5460230000000  0.5028630000000 1.0
C      1  0.4825920000000  0.4792980000000  0.4587380000000 1.0
C      1  0.4825920000000  0.4744470000000  0.5385860000000 1.0
C      1  0.5180540000000  0.5459450000000  0.5031340000000 1.0
C      1  0.5180540000000  0.4795710000000  0.4586700000000 1.0
C      1  0.5180540000000  0.4742520000000  0.5383830000000 1.0
C      1  0.4848000000000  0.5157710000000  0.5746780000000 1.0
C      1  0.4848000000000  0.5566180000000  0.4490300000000 1.0
C      1  0.4848000000000  0.4273800000000  0.4764790000000 1.0
C      1  0.5153340000000  0.5152560000000  0.5753070000000 1.0
C      1  0.5153340000000  0.5574200000000  0.4491610000000 1.0
C      1  0.5153340000000  0.4270930000000  0.4757190000000 1.0
C      1  0.4834160000000  0.5243250000000  0.5271890000000 1.0
C      1  0.4834160000000  0.5112140000000  0.4653660000000 1.0
C      1  0.4834160000000  0.4642300000000  0.5076320000000 1.0
C      1  0.5173060000000  0.5241050000000  0.5275010000000 1.0
C      1  0.5173060000000  0.5115950000000  0.4654010000000 1.0
C      1  0.5173060000000  0.4640690000000  0.5072850000000 1.0
C      1  0.3976470000000  0.5635970000000  0.5356920000000 1.0
C      1  0.3976470000000  0.4989420000000  0.4271040000000 1.0
C      1  0.3976470000000  0.4372300000000  0.5373920000000 1.0
C      1  0.6030350000000  0.5627740000000  0.5367920000000 1.0
C      1  0.6030350000000  0.5003060000000  0.4272670000000 1.0
C      1  0.6030350000000  0.4366890000000  0.5361280000000 1.0
C      1  0.4360560000000  0.4799990000000  0.5046320000000 1.0
C      1  0.4360560000000  0.5138420000000  0.5150320000000 1.0
C      1  0.4360560000000  0.5059270000000  0.4805230000000 1.0
C      1  0.5647300000000  0.4799000000000  0.5043500000000 1.0
C      1  0.5647300000000  0.5136470000000  0.5152580000000 1.0
C      1  0.5647300000000  0.5062210000000  0.4805790000000 1.0
C      1  0.4713700000000  0.4318360000000  0.5031030000000 1.0
C      1  0.4713700000000  0.5366000000000  0.5575070000000 1.0
C      1  0.4713700000000  0.5313330000000  0.4395770000000 1.0
C      1  0.5287670000000  0.4314560000000  0.5024370000000 1.0
C      1  0.5287670000000  0.5362130000000  0.5581690000000 1.0
C      1  0.5287670000000  0.5321000000000  0.4395810000000 1.0
C      1  0.4048950000000  0.4680920000000  0.4306300000000 1.0
C      1  0.4048950000000  0.4557080000000  0.5623450000000 1.0
C      1  0.4048950000000  0.5759690000000  0.5072130000000 1.0
C      1  0.5957500000000  0.4693760000000  0.4301480000000 1.0
C      1  0.5957500000000  0.4546490000000  0.5614740000000 1.0
C      1  0.5957500000000  0.5757440000000  0.5085650000000 1.0
C      1  0.4427240000000  0.5571340000000  0.4786170000000 1.0
C      1  0.4427240000000  0.4527450000000  0.4612390000000 1.0
C      1  0.4427240000000  0.4898900000000  0.5603310000000 1.0
C      1  0.5580030000000  0.5572530000000  0.4794860000000 1.0
C      1  0.5580030000000  0.4534380000000  0.4607020000000 1.0
C      1  0.5580030000000  0.4890780000000  0.5600000000000 1.0
C      1  0.5149730000000  0.4257290000000  0.5634540000000 1.0
C      1  0.5149730000000  0.5919180000000  0.5326210000000 1.0
C      1  0.5149730000000  0.4821210000000  0.4041130000000 1.0
C      1  0.4858150000000  0.4261650000000  0.5640090000000 1.0
C      1  0.4858150000000  0.5921810000000  0.5319650000000 1.0
C      1  0.4858150000000  0.4814220000000  0.4042130000000 1.0
C      1  0.5873850000000  0.4349630000000  0.5047900000000 1.0
C      1  0.5873850000000  0.5364970000000  0.5539550000000 1.0
C      1  0.5873850000000  0.5283080000000  0.4414420000000 1.0
C      1  0.4128010000000  0.4355450000000  0.5059370000000 1.0
C      1  0.4128010000000  0.5371990000000  0.5528780000000 1.0
C      1  0.4128010000000  0.5270240000000  0.4413720000000 1.0
C      1  0.4342990000000  0.5459950000000  0.5075540000000 1.0
C      1  0.4342990000000  0.4833750000000  0.4564170000000 1.0
C      1  0.4342990000000  0.4703990000000  0.5362160000000 1.0
C      1  0.5663370000000  0.5457770000000  0.5081960000000 1.0
C      1  0.5663370000000  0.4840400000000  0.4562840000000 1.0
C      1  0.5663370000000  0.4699510000000  0.5357060000000 1.0
C      1  0.4322840000000  0.4580590000000  0.4180060000000 1.0
C      1  0.4322840000000  0.4497920000000  0.5773450000000 1.0
C      1  0.4322840000000  0.5919170000000  0.5048360000000 1.0
C      1  0.5685330000000  0.4597960000000  0.4172440000000 1.0
C      1  0.5685330000000  0.4482640000000  0.5762220000000 1.0
C      1  0.5685330000000  0.5917090000000  0.5067200000000 1.0
C      1  0.4712580000000  0.4063370000000  0.5446660000000 1.0
C      1  0.4712580000000  0.5853440000000  0.5588080000000 1.0
C      1  0.4712580000000  0.5080880000000  0.3967130000000 1.0
C      1  0.5289360000000  0.4057110000000  0.5437460000000 1.0
C      1  0.5289360000000  0.5848600000000  0.5598100000000 1.0
C      1  0.5289360000000  0.5091970000000  0.3966310000000 1.0
C      1  0.4834800000000  0.4850430000000  0.5690930000000 1.0
C      1  0.4834800000000  0.5671450000000  0.4784340000000 1.0
C      1  0.4834800000000  0.4475810000000  0.4526600000000 1.0
C      1  0.5172860000000  0.4844660000000  0.5690830000000 1.0
C      1  0.5172860000000  0.5674250000000  0.4789380000000 1.0
C      1  0.5172860000000  0.4478770000000  0.4521660000000 1.0
C      1  0.5405370000000  0.4921730000000  0.6056400000000 1.0
C      1  0.5405370000000  0.5952300000000  0.4539850000000 1.0
C      1  0.5405370000000  0.4123650000000  0.4405620000000 1.0
C      1  0.4607070000000  0.4960350000000  0.6053530000000 1.0
C      1  0.4607070000000  0.5930510000000  0.4507840000000 1.0
C      1  0.4607070000000  0.4106820000000  0.4440500000000 1.0
C      1  0.4708820000000  0.4485630000000  0.5499960000000 1.0
C      1  0.4708820000000  0.5688470000000  0.5195750000000 1.0
C      1  0.4708820000000  0.4823590000000  0.4306160000000 1.0
C      1  0.5297760000000  0.4479620000000  0.5490630000000 1.0
C      1  0.5297760000000  0.5683390000000  0.5205620000000 1.0
C      1  0.5297760000000  0.4834680000000  0.4305620000000 1.0
C      1  0.5609040000000  0.5332310000000  0.4259590000000 1.0
C      1  0.5609040000000  0.4190930000000  0.5082680000000 1.0
C      1  0.5609040000000  0.5474440000000  0.5659600000000 1.0
C      1  0.4390600000000  0.5319100000000  0.4256250000000 1.0
C      1  0.4390600000000  0.4194650000000  0.5095800000000 1.0
C      1  0.4390600000000  0.5483940000000  0.5649820000000 1.0
C      1  0.5289930000000  0.3860410000000  0.4968700000000 1.0
C      1  0.5289930000000  0.5540990000000  0.6002830000000 1.0
C      1  0.5289930000000  0.5596280000000  0.4030340000000 1.0
C      1  0.4697850000000  0.3855230000000  0.4988450000000 1.0
C      1  0.4697850000000  0.5560690000000  0.5997440000000 1.0
C      1  0.4697850000000  0.5581770000000  0.4015980000000 1.0
C      1  0.4102470000000  0.4652030000000  0.5004120000000 1.0
C      1  0.4102470000000  0.5175850000000  0.5299560000000 1.0
C      1  0.4102470000000  0.5169800000000  0.4698200000000 1.0
C      1  0.5902560000000  0.4647730000000  0.4998140000000 1.0
C      1  0.5902560000000  0.5172830000000  0.5306270000000 1.0
C      1  0.5902560000000  0.5177130000000  0.4697460000000 1.0
C      1  0.5395170000000  0.5022180000000  0.5350710000000 1.0
C      1  0.5395170000000  0.5290940000000  0.4805700000000 1.0
C      1  0.5395170000000  0.4684570000000  0.4845450000000 1.0
C      1  0.4612310000000  0.5025510000000  0.5351050000000 1.0
C      1  0.4612310000000  0.5289570000000  0.4802650000000 1.0
C      1  0.4612310000000  0.4682610000000  0.4848170000000 1.0
C      1  0.4187770000000  0.5072300000000  0.5723900000000 1.0
C      1  0.4187770000000  0.5589070000000  0.4575700000000 1.0
C      1  0.4187770000000  0.4336310000000  0.4702270000000 1.0
C      1  0.5817740000000  0.5062250000000  0.5729620000000 1.0
C      1  0.5817740000000  0.5599040000000  0.4581550000000 1.0
C      1  0.5817740000000  0.4336390000000  0.4690710000000 1.0
C      1  0.6082170000000  0.5328740000000  0.4863790000000 1.0
C      1  0.6082170000000  0.4715970000000  0.4783670000000 1.0
C      1  0.6082170000000  0.4952970000000  0.5354410000000 1.0
C      1  0.3924440000000  0.5325210000000  0.4863030000000 1.0
C      1  0.3924440000000  0.4717080000000  0.4787110000000 1.0
C      1  0.3924440000000  0.4955390000000  0.5351730000000 1.0
C      1  0.4427620000000  0.4858060000000  0.4270680000000 1.0
C      1  0.4427620000000  0.4437660000000  0.5487850000000 1.0
C      1  0.4427620000000  0.5701960000000  0.5243340000000 1.0
C      1  0.5579190000000  0.4872380000000  0.4269590000000 1.0
C      1  0.5579190000000  0.4429560000000  0.5475990000000 1.0
C      1  0.5579190000000  0.5695740000000  0.5256290000000 1.0
C      1  0.6034000000000  0.4829720000000  0.5616950000000 1.0
C      1  0.6034000000000  0.5617730000000  0.4839260000000 1.0
C      1  0.6034000000000  0.4550230000000  0.4545660000000 1.0
C      1  0.3972180000000  0.4839750000000  0.5617940000000 1.0
C      1  0.3972180000000  0.5613580000000  0.4830080000000 1.0
C      1  0.3972180000000  0.4544360000000  0.4553850000000 1.0
C      1  0.5164380000000  0.4999230000000  0.5000620000000 1.0
C      1  0.4842230000000  0.4999230000000  0.5000620000000 1.0
END
