TITL C-862505-1648-414 0.0107839593142604 125000 -886.590192313139 0 0 152 (C3i) n - 1
REM
REM in /home/nfs/bkarasulu/CARBON/AIRSS/Generating-Clusters/TERSOFF/Higher-Symm/FIRE-HFTN
REM
REM
REM
REM
REM
REM ./C.cell (b20cbc046b6831c77cfcea5457e17084)
REM AIRSS Version 0.9.1 bugfix July 2018 build 013d7b7c2542+ Fri, 06 Jul 2018 19:26:36 +0100
REM compiler GCC version 9.2.1 20190827 (Red Hat 9.2.1-1)
REM options -cpp -mtune=generic -march=x86-64 -g -O0 -fpre-include=/usr/include/finclude/math-vector-fortran.h
REM seed -518410007 -1041535311 -1738437747 -1693222481 -1588451295 357295791 -1274231317 1635219455 1825945845 -372976003 586936957 -1457176208 -178858388 751202251 58053616 -1663674859 -1256285447 1447213864 -1056491043 373835323 -327521423 -1996083517 1130000736 -1189724505 -767626207 1081793444 -1529712910 -1692227359 -1618687975 1073251179 1333112618 -698221494 -1975607599
REM
CELL 1.54180   50.00000   50.00000   50.00000   90.00000   90.00000   90.00000
LATT -1
SFAC C  
C      1  0.5675200000000  0.5285930000000  0.5238930000000 1.0
C      1  0.5178500000000  0.5719700000000  0.5332370000000 1.0
C      1  0.5352640000000  0.5243830000000  0.5640330000000 1.0
C      1  0.4283460000000  0.5334240000000  0.4822900000000 1.0
C      1  0.5730030000000  0.4734020000000  0.4686770000000 1.0
C      1  0.4360980000000  0.4650580000000  0.5242040000000 1.0
C      1  0.4759330000000  0.5642180000000  0.4648730000000 1.0
C      1  0.5314500000000  0.4273090000000  0.4732220000000 1.0
C      1  0.4762360000000  0.4327990000000  0.5284140000000 1.0
C      1  0.4717190000000  0.5240790000000  0.4326160000000 1.0
C      1  0.5269070000000  0.4688600000000  0.4271270000000 1.0
C      1  0.4668960000000  0.4824720000000  0.5717890000000 1.0
C      1  0.5720200000000  0.4668420000000  0.5176110000000 1.0
C      1  0.5244320000000  0.4360480000000  0.5350280000000 1.0
C      1  0.5286460000000  0.4761870000000  0.5672850000000 1.0
C      1  0.4328460000000  0.4716740000000  0.4760070000000 1.0
C      1  0.5642670000000  0.5352080000000  0.4756970000000 1.0
C      1  0.4273620000000  0.5268640000000  0.5312240000000 1.0
C      1  0.4825160000000  0.4282960000000  0.4666630000000 1.0
C      1  0.5241300000000  0.5674670000000  0.4714870000000 1.0
C      1  0.4689150000000  0.5729570000000  0.5266780000000 1.0
C      1  0.4651020000000  0.4758830000000  0.4358680000000 1.0
C      1  0.5334700000000  0.5177940000000  0.4281110000000 1.0
C      1  0.4734590000000  0.5314060000000  0.5727730000000 1.0
C      1  0.4200840000000  0.4220900000000  0.4662060000000 1.0
C      1  0.4829420000000  0.4159210000000  0.4158900000000 1.0
C      1  0.4148860000000  0.4756940000000  0.4263420000000 1.0
C      1  0.5843920000000  0.4160680000000  0.5171830000000 1.0
C      1  0.3983090000000  0.5687940000000  0.5382120000000 1.0
C      1  0.5737970000000  0.5854230000000  0.4755050000000 1.0
C      1  0.5246250000000  0.4265210000000  0.5852430000000 1.0
C      1  0.4619310000000  0.6020130000000  0.5686070000000 1.0
C      1  0.5339310000000  0.5802250000000  0.4219030000000 1.0
C      1  0.5782300000000  0.4663830000000  0.5800420000000 1.0
C      1  0.4315320000000  0.5383960000000  0.6018300000000 1.0
C      1  0.5842430000000  0.5173630000000  0.4157350000000 1.0
C      1  0.4159740000000  0.5841980000000  0.4827180000000 1.0
C      1  0.4757410000000  0.5737450000000  0.4146570000000 1.0
C      1  0.4221360000000  0.5338830000000  0.4198580000000 1.0
C      1  0.5802810000000  0.5781760000000  0.5336940000000 1.0
C      1  0.4265690000000  0.4148430000000  0.5243960000000 1.0
C      1  0.6020570000000  0.4314720000000  0.4616890000000 1.0
C      1  0.5174240000000  0.5843450000000  0.5840110000000 1.0
C      1  0.4664340000000  0.4200410000000  0.5779980000000 1.0
C      1  0.5384350000000  0.3982530000000  0.4312940000000 1.0
C      1  0.5854790000000  0.5245730000000  0.5735580000000 1.0
C      1  0.4161230000000  0.4829030000000  0.5841650000000 1.0
C      1  0.5688340000000  0.4618710000000  0.3980700000000 1.0
C      1  0.4883820000000  0.4049540000000  0.4850410000000 1.0
C      1  0.4788640000000  0.4811470000000  0.4096270000000 1.0
C      1  0.4082130000000  0.4836640000000  0.4872610000000 1.0
C      1  0.5191660000000  0.4098080000000  0.5212660000000 1.0
C      1  0.4800600000000  0.5943200000000  0.5095670000000 1.0
C      1  0.5128780000000  0.5921010000000  0.4834760000000 1.0
C      1  0.5166590000000  0.4874410000000  0.5919190000000 1.0
C      1  0.4905700000000  0.5202610000000  0.5941360000000 1.0
C      1  0.5150900000000  0.5119270000000  0.4047700000000 1.0
C      1  0.5953620000000  0.4852190000000  0.5117430000000 1.0
C      1  0.4059980000000  0.5097540000000  0.5200800000000 1.0
C      1  0.5905070000000  0.5214440000000  0.4809610000000 1.0
C      1  0.4812000000000  0.5904580000000  0.4786350000000 1.0
C      1  0.4837070000000  0.5128250000000  0.4079820000000 1.0
C      1  0.4050040000000  0.5150470000000  0.4881570000000 1.0
C      1  0.5119830000000  0.5953120000000  0.5148590000000 1.0
C      1  0.4874870000000  0.4081650000000  0.5164250000000 1.0
C      1  0.5203060000000  0.4059460000000  0.4903330000000 1.0
C      1  0.5215020000000  0.5191190000000  0.5902730000000 1.0
C      1  0.4852760000000  0.4883390000000  0.5951300000000 1.0
C      1  0.5097960000000  0.4800050000000  0.4057640000000 1.0
C      1  0.5921530000000  0.5166020000000  0.5126390000000 1.0
C      1  0.4098590000000  0.4788220000000  0.5189400000000 1.0
C      1  0.5943680000000  0.4905120000000  0.4798200000000 1.0
C      1  0.4802070000000  0.4891390000000  0.5447910000000 1.0
C      1  0.5450380000000  0.4828780000000  0.4779330000000 1.0
C      1  0.4817620000000  0.5383360000000  0.4816280000000 1.0
C      1  0.5174340000000  0.4781160000000  0.4550930000000 1.0
C      1  0.4884890000000  0.5169640000000  0.4581150000000 1.0
C      1  0.5185080000000  0.5185540000000  0.5381520000000 1.0
C      1  0.4619800000000  0.4818120000000  0.5183730000000 1.0
C      1  0.5420200000000  0.5118250000000  0.5167790000000 1.0
C      1  0.4553430000000  0.5201120000000  0.4889560000000 1.0
C      1  0.5111810000000  0.5449730000000  0.5199260000000 1.0
C      1  0.4833510000000  0.4582980000000  0.5116440000000 1.0
C      1  0.5221960000000  0.4552750000000  0.4826970000000 1.0
C      1  0.4829320000000  0.5221500000000  0.5448070000000 1.0
C      1  0.5383860000000  0.5184540000000  0.4815270000000 1.0
C      1  0.4891850000000  0.4552930000000  0.4799740000000 1.0
C      1  0.5201590000000  0.5111270000000  0.4551090000000 1.0
C      1  0.4818580000000  0.4817120000000  0.4617480000000 1.0
C      1  0.5118770000000  0.4833020000000  0.5417860000000 1.0
C      1  0.4553280000000  0.5173880000000  0.5219670000000 1.0
C      1  0.5450220000000  0.4801540000000  0.5109440000000 1.0
C      1  0.4583460000000  0.4884410000000  0.4831210000000 1.0
C      1  0.5186030000000  0.4619300000000  0.5182730000000 1.0
C      1  0.4781690000000  0.5449910000000  0.5172040000000 1.0
C      1  0.5170150000000  0.5419680000000  0.4882560000000 1.0
C      1  0.5252200000000  0.4206410000000  0.4445300000000 1.0
C      1  0.4420810000000  0.5180170000000  0.4339440000000 1.0
C      1  0.4365870000000  0.4384280000000  0.5110870000000 1.0
C      1  0.4823000000000  0.4341260000000  0.5580520000000 1.0
C      1  0.5040360000000  0.5756250000000  0.5596650000000 1.0
C      1  0.4890490000000  0.5637270000000  0.4382420000000 1.0
C      1  0.5618930000000  0.5112650000000  0.5635420000000 1.0
C      1  0.4404700000000  0.4962890000000  0.5754440000000 1.0
C      1  0.5555990000000  0.4750880000000  0.4204580000000 1.0
C      1  0.5796700000000  0.4447100000000  0.4749060000000 1.0
C      1  0.4246940000000  0.5598510000000  0.4961050000000 1.0
C      1  0.5661940000000  0.5582310000000  0.5178290000000 1.0
C      1  0.5180650000000  0.5661400000000  0.4418490000000 1.0
C      1  0.4384720000000  0.4890010000000  0.4363590000000 1.0
C      1  0.4206950000000  0.5555560000000  0.5249940000000 1.0
C      1  0.4751460000000  0.5796250000000  0.5553700000000 1.0
C      1  0.5113160000000  0.4365390000000  0.5616580000000 1.0
C      1  0.4963300000000  0.4246410000000  0.4402360000000 1.0
C      1  0.5582850000000  0.4822490000000  0.5659560000000 1.0
C      1  0.4447670000000  0.5251780000000  0.5794420000000 1.0
C      1  0.5598960000000  0.5039770000000  0.4244570000000 1.0
C      1  0.5637790000000  0.5618380000000  0.4888130000000 1.0
C      1  0.4341720000000  0.4420350000000  0.4820710000000 1.0
C      1  0.5756720000000  0.4404150000000  0.5037960000000 1.0
C      1  0.5595900000000  0.5716010000000  0.4122400000000 1.0
C      1  0.4127010000000  0.5599770000000  0.5993660000000 1.0
C      1  0.5720590000000  0.4048560000000  0.5407790000000 1.0
C      1  0.4403500000000  0.5995500000000  0.5874390000000 1.0
C      1  0.5495590000000  0.4122380000000  0.5849410000000 1.0
C      1  0.4593470000000  0.4282550000000  0.4046770000000 1.0
C      1  0.5954570000000  0.5409580000000  0.4280670000000 1.0
C      1  0.4151870000000  0.4507590000000  0.4120600000000 1.0
C      1  0.5878900000000  0.4407230000000  0.5714190000000 1.0
C      1  0.4287060000000  0.4124280000000  0.4405460000000 1.0
C      1  0.5880780000000  0.5851200000000  0.4505700000000 1.0
C      1  0.4007750000000  0.5876250000000  0.5597920000000 1.0
C      1  0.5600150000000  0.4007160000000  0.4124610000000 1.0
C      1  0.4049090000000  0.4593080000000  0.5718330000000 1.0
C      1  0.5716600000000  0.5878380000000  0.5593540000000 1.0
C      1  0.4407760000000  0.4286650000000  0.5876600000000 1.0
C      1  0.5410190000000  0.5720110000000  0.5952230000000 1.0
C      1  0.4508070000000  0.5880280000000  0.4149600000000 1.0
C      1  0.5876650000000  0.4402890000000  0.4005340000000 1.0
C      1  0.4124760000000  0.5595430000000  0.4284810000000 1.0
C      1  0.5851790000000  0.5495070000000  0.5878400000000 1.0
C      1  0.4283060000000  0.5954110000000  0.4591220000000 1.0
C      1  0.5995910000000  0.4126410000000  0.4401080000000 1.0
C      1  0.4122880000000  0.4151460000000  0.5493310000000 1.0
C      1  0.5835570000000  0.4167480000000  0.4165670000000 1.0
C      1  0.4168080000000  0.5835180000000  0.5833330000000 1.0
C      1  0.5668550000000  0.5711590000000  0.5823080000000 1.0
C      1  0.4291560000000  0.5824960000000  0.4332850000000 1.0
C      1  0.4178210000000  0.4334700000000  0.5709820000000 1.0
C      1  0.5712100000000  0.4177700000000  0.5666150000000 1.0
C      1  0.5825440000000  0.5667960000000  0.4289180000000 1.0
C      1  0.4335100000000  0.4291070000000  0.4175920000000 1.0
END
