TITL C-862507-1800-703 9.57687091157628e-05 125000 -937.376758799599 0 0 176 (C1) n - 1
REM
REM in /home/nfs/bkarasulu/CARBON/AIRSS/Generating-Clusters/TERSOFF/Higher-Symm/FIRE-HFTN
REM
REM
REM
REM
REM
REM ./C.cell (b20cbc046b6831c77cfcea5457e17084)
REM AIRSS Version 0.9.1 bugfix July 2018 build 013d7b7c2542+ Fri, 06 Jul 2018 19:26:36 +0100
REM compiler GCC version 9.2.1 20190827 (Red Hat 9.2.1-1)
REM options -cpp -mtune=generic -march=x86-64 -g -O0 -fpre-include=/usr/include/finclude/math-vector-fortran.h
REM seed -560765619 1838189168 -2122371169 875452741 1774240868 -399485141 1580222107 1830100267 -1574511076 -1127162438 1017736127 -1767560760 -2043134064 687826988 -945356820 976122551 1636862793 1023508054 -960084512 -1837313499 283554857 -456263024 688619737 -1273789875 1706582453 1137831756 1646684216 -358779420 1321418923 2077526746 -578268400 -224334499 -1014592836
REM
CELL 1.54180   50.00000   50.00000   50.00000   90.00000   90.00000   90.00000
LATT -1
SFAC C  
C      1  0.4813180000000  0.5838110000000  0.4856750000000 1.0
C      1  0.5864460000000  0.4809020000000  0.4797670000000 1.0
C      1  0.4813690000000  0.4873070000000  0.5860240000000 1.0
C      1  0.5212300000000  0.5839840000000  0.5181010000000 1.0
C      1  0.5179340000000  0.4127470000000  0.4830550000000 1.0
C      1  0.4821330000000  0.4127240000000  0.5183870000000 1.0
C      1  0.4144860000000  0.4812050000000  0.5154900000000 1.0
C      1  0.4102750000000  0.5180990000000  0.4809280000000 1.0
C      1  0.5920880000000  0.5163470000000  0.5176720000000 1.0
C      1  0.5183070000000  0.4817060000000  0.4121340000000 1.0
C      1  0.5251750000000  0.5229350000000  0.5817780000000 1.0
C      1  0.4814190000000  0.5191230000000  0.4133920000000 1.0
C      1  0.4816150000000  0.4130760000000  0.4820350000000 1.0
C      1  0.5887150000000  0.5168930000000  0.4814210000000 1.0
C      1  0.4735840000000  0.5227460000000  0.5832800000000 1.0
C      1  0.5183790000000  0.4133020000000  0.5194020000000 1.0
C      1  0.5173430000000  0.5815990000000  0.4848320000000 1.0
C      1  0.4859450000000  0.5790050000000  0.5189620000000 1.0
C      1  0.4078720000000  0.5143850000000  0.5167840000000 1.0
C      1  0.4130420000000  0.4817790000000  0.4794760000000 1.0
C      1  0.5857070000000  0.4829360000000  0.5157520000000 1.0
C      1  0.5175880000000  0.5180870000000  0.4124160000000 1.0
C      1  0.5174460000000  0.4877860000000  0.5859310000000 1.0
C      1  0.4821100000000  0.4826970000000  0.4121370000000 1.0
C      1  0.5735840000000  0.4168880000000  0.5583720000000 1.0
C      1  0.4052530000000  0.5533870000000  0.5640050000000 1.0
C      1  0.5568580000000  0.5738580000000  0.4160280000000 1.0
C      1  0.4244150000000  0.4172540000000  0.4426880000000 1.0
C      1  0.4260160000000  0.5724020000000  0.5622830000000 1.0
C      1  0.5743100000000  0.5836800000000  0.4431760000000 1.0
C      1  0.5846280000000  0.5564470000000  0.4254530000000 1.0
C      1  0.5855620000000  0.4442800000000  0.5738880000000 1.0
C      1  0.4162160000000  0.4445190000000  0.4235720000000 1.0
C      1  0.4424340000000  0.5768290000000  0.5853950000000 1.0
C      1  0.4430530000000  0.4258750000000  0.4155290000000 1.0
C      1  0.5572170000000  0.4300170000000  0.5858250000000 1.0
C      1  0.5757960000000  0.5836370000000  0.5564470000000 1.0
C      1  0.4159290000000  0.4419930000000  0.5739110000000 1.0
C      1  0.5566200000000  0.4241800000000  0.4165080000000 1.0
C      1  0.4263780000000  0.5860710000000  0.4490420000000 1.0
C      1  0.4269130000000  0.4150110000000  0.5570410000000 1.0
C      1  0.5750760000000  0.4157000000000  0.4441040000000 1.0
C      1  0.5835700000000  0.4424140000000  0.4246530000000 1.0
C      1  0.5866830000000  0.5578750000000  0.5734660000000 1.0
C      1  0.4162600000000  0.5591970000000  0.4283920000000 1.0
C      1  0.4437100000000  0.4275600000000  0.5850080000000 1.0
C      1  0.4436060000000  0.5773710000000  0.4211440000000 1.0
C      1  0.5584680000000  0.5773090000000  0.5854460000000 1.0
C      1  0.5491760000000  0.3992270000000  0.4859590000000 1.0
C      1  0.3914850000000  0.4807960000000  0.5543260000000 1.0
C      1  0.4836520000000  0.5510390000000  0.4009610000000 1.0
C      1  0.4513080000000  0.3989840000000  0.5142070000000 1.0
C      1  0.4535470000000  0.5992540000000  0.4943840000000 1.0
C      1  0.5500660000000  0.5987000000000  0.5143240000000 1.0
C      1  0.6010960000000  0.4837030000000  0.4498350000000 1.0
C      1  0.6050560000000  0.5140900000000  0.5477200000000 1.0
C      1  0.3979550000000  0.5157070000000  0.4500370000000 1.0
C      1  0.5146550000000  0.5501500000000  0.5908590000000 1.0
C      1  0.5154080000000  0.4506370000000  0.3986620000000 1.0
C      1  0.4843050000000  0.4563650000000  0.6013620000000 1.0
C      1  0.5579870000000  0.6039060000000  0.4868700000000 1.0
C      1  0.3920030000000  0.5081630000000  0.5449530000000 1.0
C      1  0.4850820000000  0.4513110000000  0.3985070000000 1.0
C      1  0.4504560000000  0.6007750000000  0.5244620000000 1.0
C      1  0.4505800000000  0.3994220000000  0.4839760000000 1.0
C      1  0.5489790000000  0.3994300000000  0.5161830000000 1.0
C      1  0.6018940000000  0.5139500000000  0.4500090000000 1.0
C      1  0.6082600000000  0.4865250000000  0.5569580000000 1.0
C      1  0.3987820000000  0.4854540000000  0.4493500000000 1.0
C      1  0.5146790000000  0.4567770000000  0.6014470000000 1.0
C      1  0.5138440000000  0.5498430000000  0.4000110000000 1.0
C      1  0.4854510000000  0.5503220000000  0.5917960000000 1.0
C      1  0.4182960000000  0.5146650000000  0.5885710000000 1.0
C      1  0.5162630000000  0.5924260000000  0.4311980000000 1.0
C      1  0.5927690000000  0.4281570000000  0.5164880000000 1.0
C      1  0.5732260000000  0.5146040000000  0.4065830000000 1.0
C      1  0.5752650000000  0.4859520000000  0.5908790000000 1.0
C      1  0.4270910000000  0.4874060000000  0.4060820000000 1.0
C      1  0.4843600000000  0.5969290000000  0.5716970000000 1.0
C      1  0.4848320000000  0.4073440000000  0.4262430000000 1.0
C      1  0.5153530000000  0.4114850000000  0.5759240000000 1.0
C      1  0.4068310000000  0.4271530000000  0.4855590000000 1.0
C      1  0.4090020000000  0.5724160000000  0.5203140000000 1.0
C      1  0.5930370000000  0.5718770000000  0.4840190000000 1.0
C      1  0.4238970000000  0.4852660000000  0.5896920000000 1.0
C      1  0.5143840000000  0.4069770000000  0.4273460000000 1.0
C      1  0.5943710000000  0.5725270000000  0.5138560000000 1.0
C      1  0.5736670000000  0.4848720000000  0.4061120000000 1.0
C      1  0.5774350000000  0.5157840000000  0.5909140000000 1.0
C      1  0.4258580000000  0.5173060000000  0.4070330000000 1.0
C      1  0.4859430000000  0.4111710000000  0.5746610000000 1.0
C      1  0.4866130000000  0.5933350000000  0.4314440000000 1.0
C      1  0.5146430000000  0.5973660000000  0.5719850000000 1.0
C      1  0.4083780000000  0.5729560000000  0.4907740000000 1.0
C      1  0.4072790000000  0.4275060000000  0.5153690000000 1.0
C      1  0.5931080000000  0.4268720000000  0.4866500000000 1.0
C      1  0.5423270000000  0.5596120000000  0.4816830000000 1.0
C      1  0.5634180000000  0.4814190000000  0.5406670000000 1.0
C      1  0.4829510000000  0.5251840000000  0.5534100000000 1.0
C      1  0.4588370000000  0.5564690000000  0.5201600000000 1.0
C      1  0.4584900000000  0.4405700000000  0.4816740000000 1.0
C      1  0.5414020000000  0.4406380000000  0.5185770000000 1.0
C      1  0.4397990000000  0.4821980000000  0.4576350000000 1.0
C      1  0.4354550000000  0.5142370000000  0.5386230000000 1.0
C      1  0.5609150000000  0.5173840000000  0.4584040000000 1.0
C      1  0.5180170000000  0.5404180000000  0.4406800000000 1.0
C      1  0.5180810000000  0.4625780000000  0.5600310000000 1.0
C      1  0.4819540000000  0.4592690000000  0.4395790000000 1.0
C      1  0.5411570000000  0.4402670000000  0.4824670000000 1.0
C      1  0.5639850000000  0.5166770000000  0.5394410000000 1.0
C      1  0.4818540000000  0.4621810000000  0.5598860000000 1.0
C      1  0.4590550000000  0.4400690000000  0.5177780000000 1.0
C      1  0.4582720000000  0.5588030000000  0.4842020000000 1.0
C      1  0.5432820000000  0.5574070000000  0.5177070000000 1.0
C      1  0.4388980000000  0.5182220000000  0.4589630000000 1.0
C      1  0.4366000000000  0.4797820000000  0.5402920000000 1.0
C      1  0.5599580000000  0.4813290000000  0.4577990000000 1.0
C      1  0.5180240000000  0.4585770000000  0.4397830000000 1.0
C      1  0.5154540000000  0.5265810000000  0.5515930000000 1.0
C      1  0.4818860000000  0.5413400000000  0.4417430000000 1.0
C      1  0.4192800000000  0.5303540000000  0.4321720000000 1.0
C      1  0.5285960000000  0.4311050000000  0.4197860000000 1.0
C      1  0.4320490000000  0.4193920000000  0.5286190000000 1.0
C      1  0.5841640000000  0.5295580000000  0.5663850000000 1.0
C      1  0.5801170000000  0.4705800000000  0.4304380000000 1.0
C      1  0.4169930000000  0.4697580000000  0.5654160000000 1.0
C      1  0.4715160000000  0.4355120000000  0.5812760000000 1.0
C      1  0.4715960000000  0.5697680000000  0.4234020000000 1.0
C      1  0.5293700000000  0.5750330000000  0.5834190000000 1.0
C      1  0.5687680000000  0.4198380000000  0.4722800000000 1.0
C      1  0.5697530000000  0.5785730000000  0.5285060000000 1.0
C      1  0.4326220000000  0.5805370000000  0.4770620000000 1.0
C      1  0.4198460000000  0.4725500000000  0.4299510000000 1.0
C      1  0.5287510000000  0.5680850000000  0.4210150000000 1.0
C      1  0.4350700000000  0.5762810000000  0.5340130000000 1.0
C      1  0.5833740000000  0.4723310000000  0.5659130000000 1.0
C      1  0.5809730000000  0.5281060000000  0.4311690000000 1.0
C      1  0.4110210000000  0.5255250000000  0.5626840000000 1.0
C      1  0.4707810000000  0.5756550000000  0.5854120000000 1.0
C      1  0.4711880000000  0.4319910000000  0.4193220000000 1.0
C      1  0.5289050000000  0.4364890000000  0.5816870000000 1.0
C      1  0.5676140000000  0.5800830000000  0.4714600000000 1.0
C      1  0.5681130000000  0.4203390000000  0.5299140000000 1.0
C      1  0.4310170000000  0.4204960000000  0.4709280000000 1.0
C      1  0.5443780000000  0.4867490000000  0.3941180000000 1.0
C      1  0.4820990000000  0.3960050000000  0.5470890000000 1.0
C      1  0.3936240000000  0.5459680000000  0.4849060000000 1.0
C      1  0.4528460000000  0.4863470000000  0.6030940000000 1.0
C      1  0.4551960000000  0.5164450000000  0.3946750000000 1.0
C      1  0.5486590000000  0.5166510000000  0.6014530000000 1.0
C      1  0.5181100000000  0.3935260000000  0.4558010000000 1.0
C      1  0.5118190000000  0.6038600000000  0.5407260000000 1.0
C      1  0.4890660000000  0.6029150000000  0.4614150000000 1.0
C      1  0.6077580000000  0.5434540000000  0.5111890000000 1.0
C      1  0.6047240000000  0.4561190000000  0.4875510000000 1.0
C      1  0.3940340000000  0.4566170000000  0.5200820000000 1.0
C      1  0.5448110000000  0.5191460000000  0.3931300000000 1.0
C      1  0.4775660000000  0.6045730000000  0.5405360000000 1.0
C      1  0.3952770000000  0.4563790000000  0.4873390000000 1.0
C      1  0.4471210000000  0.5185610000000  0.6004080000000 1.0
C      1  0.4554780000000  0.4841570000000  0.3925970000000 1.0
C      1  0.5460250000000  0.4844600000000  0.6043170000000 1.0
C      1  0.5219330000000  0.6034130000000  0.4611820000000 1.0
C      1  0.5146430000000  0.3973860000000  0.5472790000000 1.0
C      1  0.4856970000000  0.3950550000000  0.4556010000000 1.0
C      1  0.6058740000000  0.4577400000000  0.5203060000000 1.0
C      1  0.6071600000000  0.5444150000000  0.4786220000000 1.0
C      1  0.3934860000000  0.5441290000000  0.5174380000000 1.0
C      1  0.5372930000000  0.5356530000000  0.4637560000000 1.0
C      1  0.4622700000000  0.4642350000000  0.5359940000000 1.0
C      1  0.5378890000000  0.4650370000000  0.5364000000000 1.0
C      1  0.4610550000000  0.5299400000000  0.5336040000000 1.0
C      1  0.4628330000000  0.5358540000000  0.4650700000000 1.0
C      1  0.5361080000000  0.4637670000000  0.4635520000000 1.0
C      1  0.4636500000000  0.4643520000000  0.4632380000000 1.0
C      1  0.5390880000000  0.5315560000000  0.5323880000000 1.0
END
