TITL C-862502-1143-1238 -0.101154491308646 125000 -1014.74935493731 0 0 175 (C1) n - 1
REM
REM in /home/nfs/bkarasulu/CARBON/AIRSS/Generating-Clusters/TERSOFF/Higher-Symm/FIRE-HFTN
REM
REM
REM
REM
REM
REM ./C.cell (b20cbc046b6831c77cfcea5457e17084)
REM AIRSS Version 0.9.1 bugfix July 2018 build 013d7b7c2542+ Fri, 06 Jul 2018 19:26:36 +0100
REM compiler GCC version 9.2.1 20190827 (Red Hat 9.2.1-1)
REM options -cpp -mtune=generic -march=x86-64 -g -O0 -fpre-include=/usr/include/finclude/math-vector-fortran.h
REM seed 1855195943 -1213718023 -1438734840 783937917 -2131700385 -1800346600 -474058192 1200590522 1522694937 2045526134 -1862351192 -1134688639 2051948729 -789346221 422023860 723078161 -1212965351 -1746357419 2045396028 -1445519786 -654617544 1236200769 -1232231522 -544191779 421591907 1536165370 -301925364 1986239124 1627718424 736485985 -1719673179 -1825238033 -963122490
REM
CELL 1.54180   50.00000   50.00000   50.00000   90.00000   90.00000   90.00000
LATT -1
SFAC C  
C      1  0.4786230000000  0.5572300000000  0.4625950000000 1.0
C      1  0.5567050000000  0.5212180000000  0.5364320000000 1.0
C      1  0.5214770000000  0.4439970000000  0.4627910000000 1.0
C      1  0.4433540000000  0.4784630000000  0.5374390000000 1.0
C      1  0.5180930000000  0.4644190000000  0.5518850000000 1.0
C      1  0.4674410000000  0.4834520000000  0.4496340000000 1.0
C      1  0.4832670000000  0.5321780000000  0.5499610000000 1.0
C      1  0.5351600000000  0.5178330000000  0.4477950000000 1.0
C      1  0.5158440000000  0.4415060000000  0.5870020000000 1.0
C      1  0.4429910000000  0.4848270000000  0.4147040000000 1.0
C      1  0.4844330000000  0.5570070000000  0.5848470000000 1.0
C      1  0.5584890000000  0.5162050000000  0.4129170000000 1.0
C      1  0.6030190000000  0.5233120000000  0.5076230000000 1.0
C      1  0.5226200000000  0.3975540000000  0.4916740000000 1.0
C      1  0.3972930000000  0.4775970000000  0.5081830000000 1.0
C      1  0.4770150000000  0.6030590000000  0.4917830000000 1.0
C      1  0.5443570000000  0.6135500000000  0.5234590000000 1.0
C      1  0.6134480000000  0.4553910000000  0.4765590000000 1.0
C      1  0.4550910000000  0.3867020000000  0.5232610000000 1.0
C      1  0.3864770000000  0.5447360000000  0.4761640000000 1.0
C      1  0.4905900000000  0.4867590000000  0.5782000000000 1.0
C      1  0.4881390000000  0.5055400000000  0.4361660000000 1.0
C      1  0.5052180000000  0.5117250000000  0.5636180000000 1.0
C      1  0.5132490000000  0.4909690000000  0.4216990000000 1.0
C      1  0.3910470000000  0.5259770000000  0.4987640000000 1.0
C      1  0.5255380000000  0.6090790000000  0.5008990000000 1.0
C      1  0.6098430000000  0.4748130000000  0.4987300000000 1.0
C      1  0.4742780000000  0.3906330000000  0.5009220000000 1.0
C      1  0.4387610000000  0.5714450000000  0.4354180000000 1.0
C      1  0.5706520000000  0.5614040000000  0.5635670000000 1.0
C      1  0.5620820000000  0.4292800000000  0.4361800000000 1.0
C      1  0.4284530000000  0.4380860000000  0.5641020000000 1.0
C      1  0.5128750000000  0.5634800000000  0.5735380000000 1.0
C      1  0.5645760000000  0.4871030000000  0.4246590000000 1.0
C      1  0.4865760000000  0.4353970000000  0.5754780000000 1.0
C      1  0.4364210000000  0.5133520000000  0.4258730000000 1.0
C      1  0.4706250000000  0.4885870000000  0.4978880000000 1.0
C      1  0.4884470000000  0.5295120000000  0.5016660000000 1.0
C      1  0.5288340000000  0.5118240000000  0.4966450000000 1.0
C      1  0.5120500000000  0.4714640000000  0.5030070000000 1.0
C      1  0.4302410000000  0.4120120000000  0.5007690000000 1.0
C      1  0.4116480000000  0.5696050000000  0.4987890000000 1.0
C      1  0.5694880000000  0.5888860000000  0.5005640000000 1.0
C      1  0.5885880000000  0.4302290000000  0.4992060000000 1.0
C      1  0.5035480000000  0.5708620000000  0.5252010000000 1.0
C      1  0.5712940000000  0.4960370000000  0.4745430000000 1.0
C      1  0.4957910000000  0.4290170000000  0.5248600000000 1.0
C      1  0.4290750000000  0.5037830000000  0.4746090000000 1.0
C      1  0.4697880000000  0.4339030000000  0.4825800000000 1.0
C      1  0.4334060000000  0.5300860000000  0.5170760000000 1.0
C      1  0.5297230000000  0.5674740000000  0.4824850000000 1.0
C      1  0.5672280000000  0.4701340000000  0.5171140000000 1.0
C      1  0.4442060000000  0.4633610000000  0.5639000000000 1.0
C      1  0.4639110000000  0.5555230000000  0.4363770000000 1.0
C      1  0.5549330000000  0.5361250000000  0.5626260000000 1.0
C      1  0.5367230000000  0.4448940000000  0.4363770000000 1.0
C      1  0.5801550000000  0.4446750000000  0.5234220000000 1.0
C      1  0.4444330000000  0.4206940000000  0.4765060000000 1.0
C      1  0.4202240000000  0.5554440000000  0.5230830000000 1.0
C      1  0.5551170000000  0.5805270000000  0.4763070000000 1.0
C      1  0.4942060000000  0.4273010000000  0.4658950000000 1.0
C      1  0.4266880000000  0.5057020000000  0.5339400000000 1.0
C      1  0.5052440000000  0.5742330000000  0.4660610000000 1.0
C      1  0.5738400000000  0.4946400000000  0.5333860000000 1.0
C      1  0.4552180000000  0.4899930000000  0.4741280000000 1.0
C      1  0.4900160000000  0.5445730000000  0.5255820000000 1.0
C      1  0.5445310000000  0.5087100000000  0.4728210000000 1.0
C      1  0.5090700000000  0.4553990000000  0.5266790000000 1.0
C      1  0.4518440000000  0.4055120000000  0.5468240000000 1.0
C      1  0.4052290000000  0.5483990000000  0.4525920000000 1.0
C      1  0.5479950000000  0.5947500000000  0.5470000000000 1.0
C      1  0.5945340000000  0.4522140000000  0.4530660000000 1.0
C      1  0.5014930000000  0.5374360000000  0.4321100000000 1.0
C      1  0.5372280000000  0.4984270000000  0.5674110000000 1.0
C      1  0.4982100000000  0.4608370000000  0.4321610000000 1.0
C      1  0.4605410000000  0.5017380000000  0.5678650000000 1.0
C      1  0.4456640000000  0.5983680000000  0.5324970000000 1.0
C      1  0.5978000000000  0.5545520000000  0.4668840000000 1.0
C      1  0.5538090000000  0.4020960000000  0.5326450000000 1.0
C      1  0.4014610000000  0.4462530000000  0.4672480000000 1.0
C      1  0.5055810000000  0.4111620000000  0.5469540000000 1.0
C      1  0.4104940000000  0.4943780000000  0.4528910000000 1.0
C      1  0.4938290000000  0.5896200000000  0.5467770000000 1.0
C      1  0.5893100000000  0.5062880000000  0.4526280000000 1.0
C      1  0.5325030000000  0.4096090000000  0.5542170000000 1.0
C      1  0.4085400000000  0.4675570000000  0.4454180000000 1.0
C      1  0.4669840000000  0.5913320000000  0.5542290000000 1.0
C      1  0.5904420000000  0.5332290000000  0.4453930000000 1.0
C      1  0.4737930000000  0.4863160000000  0.4082450000000 1.0
C      1  0.4859490000000  0.5262900000000  0.5914330000000 1.0
C      1  0.5282530000000  0.5142440000000  0.4043190000000 1.0
C      1  0.5139940000000  0.4718140000000  0.5954800000000 1.0
C      1  0.4417650000000  0.4868300000000  0.5909670000000 1.0
C      1  0.4865810000000  0.5556010000000  0.4095620000000 1.0
C      1  0.5552400000000  0.5135890000000  0.5898340000000 1.0
C      1  0.5134650000000  0.4423150000000  0.4091040000000 1.0
C      1  0.3988090000000  0.5097200000000  0.5468990000000 1.0
C      1  0.5085730000000  0.6020460000000  0.4529960000000 1.0
C      1  0.6016320000000  0.4917930000000  0.5464770000000 1.0
C      1  0.4905450000000  0.3994290000000  0.4529170000000 1.0
C      1  0.5144330000000  0.5958840000000  0.4245490000000 1.0
C      1  0.5957140000000  0.4860140000000  0.5749860000000 1.0
C      1  0.4842640000000  0.4045270000000  0.4243360000000 1.0
C      1  0.4041200000000  0.5161400000000  0.5754210000000 1.0
C      1  0.4535030000000  0.5325960000000  0.5604230000000 1.0
C      1  0.5315430000000  0.5476100000000  0.4400670000000 1.0
C      1  0.5477890000000  0.4683140000000  0.5596560000000 1.0
C      1  0.4671980000000  0.4536650000000  0.4391010000000 1.0
C      1  0.5013640000000  0.5948000000000  0.5058050000000 1.0
C      1  0.5954220000000  0.4988410000000  0.4934900000000 1.0
C      1  0.4983660000000  0.4049550000000  0.5060640000000 1.0
C      1  0.4052450000000  0.5017680000000  0.4938820000000 1.0
C      1  0.5301110000000  0.6141080000000  0.4720140000000 1.0
C      1  0.6142000000000  0.4703670000000  0.5277350000000 1.0
C      1  0.4694600000000  0.3867730000000  0.4719360000000 1.0
C      1  0.3865010000000  0.5308330000000  0.5276490000000 1.0
C      1  0.4682920000000  0.4393950000000  0.3919480000000 1.0
C      1  0.4391150000000  0.5321530000000  0.6076580000000 1.0
C      1  0.5328640000000  0.5622330000000  0.3929420000000 1.0
C      1  0.5622090000000  0.4674710000000  0.6067330000000 1.0
C      1  0.5741440000000  0.4656270000000  0.5797220000000 1.0
C      1  0.4650550000000  0.4272430000000  0.4188430000000 1.0
C      1  0.4270410000000  0.5351780000000  0.5807060000000 1.0
C      1  0.5346390000000  0.5741000000000  0.4199890000000 1.0
C      1  0.5873280000000  0.5703900000000  0.5140660000000 1.0
C      1  0.5701050000000  0.4124160000000  0.4855930000000 1.0
C      1  0.4121140000000  0.4301670000000  0.5143760000000 1.0
C      1  0.4299080000000  0.5876390000000  0.4852540000000 1.0
C      1  0.5849970000000  0.5083120000000  0.5908840000000 1.0
C      1  0.5068010000000  0.4133600000000  0.4078050000000 1.0
C      1  0.4128400000000  0.4936820000000  0.5921280000000 1.0
C      1  0.4921250000000  0.5853230000000  0.4085500000000 1.0
C      1  0.4629230000000  0.4699690000000  0.5171160000000 1.0
C      1  0.4698690000000  0.5376110000000  0.4827740000000 1.0
C      1  0.5375730000000  0.5302700000000  0.5156600000000 1.0
C      1  0.5304530000000  0.4630410000000  0.4836610000000 1.0
C      1  0.5724320000000  0.5699590000000  0.4546140000000 1.0
C      1  0.5693680000000  0.4273530000000  0.5450200000000 1.0
C      1  0.4269370000000  0.4310890000000  0.4549150000000 1.0
C      1  0.4305340000000  0.5728830000000  0.5447580000000 1.0
C      1  0.3900790000000  0.4824310000000  0.5362940000000 1.0
C      1  0.4815970000000  0.6108250000000  0.4638390000000 1.0
C      1  0.6103200000000  0.5188220000000  0.5357080000000 1.0
C      1  0.5178580000000  0.3907250000000  0.4634610000000 1.0
C      1  0.4740280000000  0.4610160000000  0.5702700000000 1.0
C      1  0.4613120000000  0.5253620000000  0.4340250000000 1.0
C      1  0.5248620000000  0.5385910000000  0.5653920000000 1.0
C      1  0.5389830000000  0.4746150000000  0.4299440000000 1.0
C      1  0.5281160000000  0.5584110000000  0.5106670000000 1.0
C      1  0.5585110000000  0.4718520000000  0.4889690000000 1.0
C      1  0.4716650000000  0.4420660000000  0.5109790000000 1.0
C      1  0.4418400000000  0.5283160000000  0.4885960000000 1.0
C      1  0.4504860000000  0.5992210000000  0.5027180000000 1.0
C      1  0.5988440000000  0.5497990000000  0.4966210000000 1.0
C      1  0.5492060000000  0.4011250000000  0.5028140000000 1.0
C      1  0.4006510000000  0.4509710000000  0.4971200000000 1.0
C      1  0.5697580000000  0.4087710000000  0.4561960000000 1.0
C      1  0.4082230000000  0.4302880000000  0.5437830000000 1.0
C      1  0.4302570000000  0.5914780000000  0.4557710000000 1.0
C      1  0.5909510000000  0.5698070000000  0.5435210000000 1.0
C      1  0.5288510000000  0.5893610000000  0.5699200000000 1.0
C      1  0.5902830000000  0.4711160000000  0.4297280000000 1.0
C      1  0.4706770000000  0.4096790000000  0.5702310000000 1.0
C      1  0.4105410000000  0.5293100000000  0.4296120000000 1.0
C      1  0.4883500000000  0.4621390000000  0.3915700000000 1.0
C      1  0.4617220000000  0.5119330000000  0.6083730000000 1.0
C      1  0.5137470000000  0.5391110000000  0.3920630000000 1.0
C      1  0.5389400000000  0.4864170000000  0.6075270000000 1.0
C      1  0.4561700000000  0.5654110000000  0.5692720000000 1.0
C      1  0.5645160000000  0.5441830000000  0.4303070000000 1.0
C      1  0.5437270000000  0.4353770000000  0.5694320000000 1.0
C      1  0.4344070000000  0.4566210000000  0.4303000000000 1.0
C      1  0.4975390000000  0.4962010000000  0.5336870000000 1.0
C      1  0.5038020000000  0.4966210000000  0.4659760000000 1.0
C      1  0.4994500000000  0.5007220000000  0.4997170000000 1.0
END
