TITL C-862500-986-917 -0.000156462943606856 125000 -69.8930039908587 0 0 13 (C1) n - 1
REM
REM in /home/nfs/bkarasulu/CARBON/AIRSS/Generating-Clusters/TERSOFF/Higher-Symm/FIRE-HFTN
REM
REM
REM
REM
REM
REM ./C.cell (b20cbc046b6831c77cfcea5457e17084)
REM AIRSS Version 0.9.1 bugfix July 2018 build 013d7b7c2542+ Fri, 06 Jul 2018 19:26:36 +0100
REM compiler GCC version 9.2.1 20190827 (Red Hat 9.2.1-1)
REM options -cpp -mtune=generic -march=x86-64 -g -O0 -fpre-include=/usr/include/finclude/math-vector-fortran.h
REM seed -1288962363 -1469353880 1292845101 -2146712377 -1909799165 -1023173322 -970705819 -1808582668 388085972 -1572533511 -1180827486 -1435092536 1117860472 -430980349 792228284 -716047844 1001129496 -1995287918 -1506188843 -1151194649 -1067900733 -1042949620 1152761852 1841634300 1828080572 -4360633 1482863912 17196351 -1842702451 -2109674259 201389266 622934569 -1801787091
REM
CELL 1.54180   50.00000   50.00000   50.00000   90.00000   90.00000   90.00000
LATT -1
SFAC C  
C      1  0.4663610000000  0.5233940000000  0.4766460000000 1.0
C      1  0.5125500000000  0.5429660000000  0.4704280000000 1.0
C      1  0.5443100000000  0.5042960000000  0.4730200000000 1.0
C      1  0.5156790000000  0.4633460000000  0.4806710000000 1.0
C      1  0.4724170000000  0.4765560000000  0.4557490000000 1.0
C      1  0.4562040000000  0.4976010000000  0.4678780000000 1.0
C      1  0.4932250000000  0.5279310000000  0.4865870000000 1.0
C      1  0.5381350000000  0.5310620000000  0.4636640000000 1.0
C      1  0.5247440000000  0.4895540000000  0.4891590000000 1.0
C      1  0.4890240000000  0.4576400000000  0.4705570000000 1.0
C      1  0.4986010000000  0.5031000000000  0.5309270000000 1.0
C      1  0.5053450000000  0.5067650000000  0.5029630000000 1.0
C      1  0.5178260000000  0.5018940000000  0.5525310000000 1.0
END
