TITL C-862128-1543-140 -0.00836242509989405 125000 -518.102516819758 0 0 89 (C1) n - 1
REM
REM in /home/nfs/bkarasulu/CARBON/AIRSS/Generating-Clusters/TERSOFF/Higher-Symm/FIRE-HFTN
REM
REM
REM
REM
REM
REM ./C.cell (b20cbc046b6831c77cfcea5457e17084)
REM AIRSS Version 0.9.1 bugfix July 2018 build 013d7b7c2542+ Fri, 06 Jul 2018 19:26:36 +0100
REM compiler GCC version 9.2.1 20190827 (Red Hat 9.2.1-1)
REM options -cpp -mtune=generic -march=x86-64 -g -O0 -fpre-include=/usr/include/finclude/math-vector-fortran.h
REM seed 1336454912 1281409939 -1741710311 -1357222210 -21224688 -1322226211 243008227 1752293923 -381548356 344045206 1605985474 542742028 -1235465853 -1449999243 333363499 -1011268797 2109479318 1938573647 1461927248 -95265535 -620625633 -1925145252 -1619121154 -334117849 -1806866172 -793159926 -1001640872 410072538 892917262 -1801664961 132913154 -921873006 -613562035
REM
CELL 1.54180   50.00000   50.00000   50.00000   90.00000   90.00000   90.00000
LATT -1
SFAC C  
C      1  0.4672100000000  0.4685960000000  0.5763570000000 1.0
C      1  0.5752490000000  0.4682070000000  0.4698800000000 1.0
C      1  0.4689670000000  0.5752800000000  0.4672580000000 1.0
C      1  0.4720730000000  0.5227390000000  0.4196590000000 1.0
C      1  0.5278110000000  0.5289130000000  0.5765700000000 1.0
C      1  0.5277850000000  0.4789200000000  0.4208700000000 1.0
C      1  0.5753680000000  0.5286780000000  0.5295100000000 1.0
C      1  0.4253390000000  0.5268670000000  0.4736930000000 1.0
C      1  0.4188200000000  0.4719170000000  0.5255470000000 1.0
C      1  0.4726790000000  0.4257480000000  0.5271950000000 1.0
C      1  0.5242060000000  0.4226830000000  0.4702250000000 1.0
C      1  0.5282860000000  0.5759970000000  0.5289940000000 1.0
C      1  0.5692280000000  0.4438860000000  0.4858030000000 1.0
C      1  0.4864490000000  0.5677270000000  0.4439200000000 1.0
C      1  0.4431970000000  0.4853040000000  0.5697970000000 1.0
C      1  0.5701070000000  0.5530240000000  0.5135380000000 1.0
C      1  0.4278640000000  0.5525670000000  0.4874680000000 1.0
C      1  0.4277560000000  0.4433320000000  0.5113330000000 1.0
C      1  0.4867780000000  0.4277180000000  0.5528270000000 1.0
C      1  0.5076070000000  0.4341920000000  0.4432460000000 1.0
C      1  0.5121140000000  0.5706330000000  0.5530860000000 1.0
C      1  0.4422900000000  0.5099430000000  0.4291090000000 1.0
C      1  0.5520410000000  0.5128200000000  0.5711800000000 1.0
C      1  0.5573770000000  0.4885250000000  0.4270420000000 1.0
C      1  0.5195890000000  0.4488400000000  0.4203730000000 1.0
C      1  0.4232090000000  0.5248060000000  0.4451010000000 1.0
C      1  0.4440570000000  0.4235850000000  0.5251010000000 1.0
C      1  0.5258180000000  0.5577220000000  0.5754940000000 1.0
C      1  0.4744540000000  0.5540050000000  0.4209890000000 1.0
C      1  0.4710500000000  0.4395030000000  0.5749460000000 1.0
C      1  0.4203120000000  0.4722630000000  0.5568990000000 1.0
C      1  0.5761180000000  0.4706930000000  0.4410600000000 1.0
C      1  0.5743810000000  0.5266360000000  0.5583060000000 1.0
C      1  0.4397850000000  0.5742450000000  0.4712090000000 1.0
C      1  0.5570610000000  0.5752000000000  0.5273570000000 1.0
C      1  0.5555470000000  0.4220040000000  0.4716840000000 1.0
C      1  0.5038090000000  0.4823680000000  0.4401420000000 1.0
C      1  0.4387430000000  0.5051630000000  0.4859140000000 1.0
C      1  0.4848760000000  0.4395420000000  0.5058150000000 1.0
C      1  0.5049700000000  0.5187430000000  0.5633470000000 1.0
C      1  0.5009050000000  0.5242630000000  0.4343270000000 1.0
C      1  0.4900820000000  0.4787910000000  0.5628470000000 1.0
C      1  0.4342820000000  0.5000880000000  0.5287710000000 1.0
C      1  0.5615490000000  0.4910600000000  0.4793850000000 1.0
C      1  0.5621900000000  0.5058010000000  0.5192640000000 1.0
C      1  0.4782870000000  0.5617750000000  0.4906410000000 1.0
C      1  0.5181920000000  0.5628710000000  0.5060520000000 1.0
C      1  0.5273740000000  0.4360130000000  0.4994400000000 1.0
C      1  0.4630920000000  0.5022170000000  0.5228310000000 1.0
C      1  0.5218410000000  0.4643410000000  0.5031240000000 1.0
C      1  0.5023870000000  0.5218680000000  0.4639200000000 1.0
C      1  0.4672240000000  0.5082580000000  0.4943260000000 1.0
C      1  0.5336160000000  0.5077260000000  0.5104180000000 1.0
C      1  0.5324130000000  0.4881220000000  0.4872720000000 1.0
C      1  0.5092440000000  0.5343220000000  0.5078880000000 1.0
C      1  0.4862170000000  0.5325150000000  0.4881560000000 1.0
C      1  0.4934160000000  0.4679030000000  0.5094090000000 1.0
C      1  0.4873660000000  0.4867900000000  0.5337170000000 1.0
C      1  0.5079380000000  0.4929550000000  0.4681980000000 1.0
C      1  0.5069100000000  0.5100650000000  0.5347520000000 1.0
C      1  0.4808770000000  0.5635760000000  0.5425630000000 1.0
C      1  0.5418760000000  0.4812080000000  0.5641580000000 1.0
C      1  0.5630170000000  0.5430500000000  0.4821270000000 1.0
C      1  0.4756360000000  0.4345400000000  0.4546710000000 1.0
C      1  0.5191090000000  0.4306520000000  0.5493520000000 1.0
C      1  0.5181660000000  0.5635070000000  0.4543420000000 1.0
C      1  0.5513180000000  0.5237120000000  0.4320630000000 1.0
C      1  0.4532480000000  0.5177740000000  0.5632530000000 1.0
C      1  0.4516450000000  0.4768940000000  0.4348570000000 1.0
C      1  0.5624530000000  0.4539560000000  0.5182580000000 1.0
C      1  0.4321560000000  0.4537640000000  0.4786270000000 1.0
C      1  0.4306490000000  0.5499860000000  0.5197300000000 1.0
C      1  0.4245520000000  0.4808090000000  0.4927540000000 1.0
C      1  0.4910320000000  0.4260400000000  0.4809090000000 1.0
C      1  0.4787880000000  0.4894140000000  0.4266990000000 1.0
C      1  0.4186470000000  0.5242330000000  0.5287610000000 1.0
C      1  0.5758630000000  0.5163430000000  0.4809780000000 1.0
C      1  0.5759310000000  0.4803910000000  0.5190920000000 1.0
C      1  0.4795970000000  0.5762560000000  0.5158110000000 1.0
C      1  0.5180150000000  0.5767710000000  0.4807550000000 1.0
C      1  0.5270390000000  0.4192050000000  0.5228430000000 1.0
C      1  0.4795380000000  0.5186560000000  0.5769190000000 1.0
C      1  0.5241420000000  0.5132340000000  0.4202340000000 1.0
C      1  0.5152650000000  0.4803980000000  0.5770460000000 1.0
C      1  0.4530910000000  0.4549000000000  0.4560200000000 1.0
C      1  0.5445590000000  0.5442300000000  0.4554330000000 1.0
C      1  0.5416130000000  0.4554380000000  0.5441600000000 1.0
C      1  0.4552140000000  0.5439050000000  0.5422910000000 1.0
C      1  0.4850540000000  0.4853020000000  0.4863570000000 1.0
END
