TITL C-862127-1500-186 -5.14714913370022e-06 125000 -174.543901357425 0 0 33 (D4) n - 1
REM
REM in /home/nfs/bkarasulu/CARBON/AIRSS/Generating-Clusters/TERSOFF/Higher-Symm/FIRE-HFTN
REM
REM
REM
REM
REM
REM ./C.cell (b20cbc046b6831c77cfcea5457e17084)
REM AIRSS Version 0.9.1 bugfix July 2018 build 013d7b7c2542+ Fri, 06 Jul 2018 19:26:36 +0100
REM compiler GCC version 9.2.1 20190827 (Red Hat 9.2.1-1)
REM options -cpp -mtune=generic -march=x86-64 -g -O0 -fpre-include=/usr/include/finclude/math-vector-fortran.h
REM seed 706950412 -1232317225 685157948 -1133384757 -1300009005 1531802719 2099666766 2082922844 -1264192572 565029690 644009500 -717062147 1425808541 -81211883 1598525536 -1707671689 -1641581952 -97477160 -281795997 -1456742477 -1429118989 682241100 -642311163 -1195576627 1995931347 -1123026773 -1868012378 1853700198 769784557 1238007596 -1588178441 -1887266684 -2006984579
REM
CELL 1.54180   50.00000   50.00000   50.00000   90.00000   90.00000   90.00000
LATT -1
SFAC C  
C      1  0.4741820000000  0.4993250000000  0.5455050000000 1.0
C      1  0.4741820000000  0.5465430000000  0.5010920000000 1.0
C      1  0.4741820000000  0.5021300000000  0.4538730000000 1.0
C      1  0.4741820000000  0.4549110000000  0.4982870000000 1.0
C      1  0.5271020000000  0.4993250000000  0.4538730000000 1.0
C      1  0.5271020000000  0.5465430000000  0.4982870000000 1.0
C      1  0.5271020000000  0.5021300000000  0.5455050000000 1.0
C      1  0.5271020000000  0.4549110000000  0.5010920000000 1.0
C      1  0.4613710000000  0.5283900000000  0.4559250000000 1.0
C      1  0.4613710000000  0.4569630000000  0.4720260000000 1.0
C      1  0.4613710000000  0.4730640000000  0.5434530000000 1.0
C      1  0.4613710000000  0.5444910000000  0.5273520000000 1.0
C      1  0.5399120000000  0.5283900000000  0.5434530000000 1.0
C      1  0.5399120000000  0.4569630000000  0.5273520000000 1.0
C      1  0.5399120000000  0.4730640000000  0.4559250000000 1.0
C      1  0.5399120000000  0.5444910000000  0.4720260000000 1.0
C      1  0.5466480000000  0.4704730000000  0.4843060000000 1.0
C      1  0.5466480000000  0.4853440000000  0.5299430000000 1.0
C      1  0.5466480000000  0.5309810000000  0.5150730000000 1.0
C      1  0.5466480000000  0.5161110000000  0.4694350000000 1.0
C      1  0.4546350000000  0.4704730000000  0.5150730000000 1.0
C      1  0.4546350000000  0.4853440000000  0.4694350000000 1.0
C      1  0.4546350000000  0.5309810000000  0.4843060000000 1.0
C      1  0.4546350000000  0.5161110000000  0.5299430000000 1.0
C      1  0.5006420000000  0.5007270000000  0.4675720000000 1.0
C      1  0.5006420000000  0.5007270000000  0.5318060000000 1.0
C      1  0.5006420000000  0.4686100000000  0.4996890000000 1.0
C      1  0.5006420000000  0.5328440000000  0.4996890000000 1.0
C      1  0.5589730000000  0.5007270000000  0.4996890000000 1.0
C      1  0.4423100000000  0.5007270000000  0.4996890000000 1.0
C      1  0.5889960000000  0.5007270000000  0.4996890000000 1.0
C      1  0.4122870000000  0.5007270000000  0.4996890000000 1.0
C      1  0.5006420000000  0.5007270000000  0.4996890000000 1.0
END
