TITL C-862132-7359-361 -29.742577333267 125000 -232.897281572302 0 0 49 (C1) n - 1
REM
REM in /home/nfs/bkarasulu/CARBON/AIRSS/Generating-Clusters/TERSOFF/Higher-Symm/FIRE-HFTN
REM
REM
REM
REM
REM
REM ./C.cell (b20cbc046b6831c77cfcea5457e17084)
REM AIRSS Version 0.9.1 bugfix July 2018 build 013d7b7c2542+ Fri, 06 Jul 2018 19:26:36 +0100
REM compiler GCC version 9.2.1 20190827 (Red Hat 9.2.1-1)
REM options -cpp -mtune=generic -march=x86-64 -g -O0 -fpre-include=/usr/include/finclude/math-vector-fortran.h
REM seed 2067991712 -1594543801 1825981755 -1765312454 -1562544017 -1058524224 -820957023 -244672517 1386469530 -1696631244 -539320183 -1697543199 -439300821 1242747919 -1262495221 -317194115 1218614849 1659115654 622727421 2023872559 1825154378 827909636 -1813149865 925767582 -1968782785 1749837180 -800827560 -1985368704 -332879602 -80942348 1738435348 2115247923 384221584
REM
CELL 1.54180   50.00000   50.00000   50.00000   90.00000   90.00000   90.00000
LATT -1
SFAC C  
C      1  0.4433930000000  0.5504080000000  0.5338940000000 1.0
C      1  0.4422880000000  0.4517880000000  0.5380740000000 1.0
C      1  0.5161040000000  0.4302730000000  0.5327660000000 1.0
C      1  0.5762260000000  0.4994870000000  0.5362850000000 1.0
C      1  0.5175470000000  0.5714120000000  0.5318800000000 1.0
C      1  0.5528940000000  0.4456110000000  0.4751000000000 1.0
C      1  0.5677730000000  0.5310200000000  0.4851500000000 1.0
C      1  0.4856570000000  0.5700860000000  0.4836130000000 1.0
C      1  0.4245110000000  0.5142830000000  0.4784400000000 1.0
C      1  0.4679660000000  0.4369890000000  0.4881640000000 1.0
C      1  0.5417520000000  0.4893690000000  0.4995340000000 1.0
C      1  0.5123980000000  0.5285480000000  0.4974970000000 1.0
C      1  0.4725500000000  0.5166660000000  0.5029720000000 1.0
C      1  0.4606070000000  0.4856050000000  0.5036390000000 1.0
C      1  0.5121810000000  0.4736370000000  0.4977070000000 1.0
C      1  0.4882510000000  0.5301650000000  0.5460680000000 1.0
C      1  0.4493030000000  0.5014400000000  0.5437090000000 1.0
C      1  0.4872530000000  0.4725870000000  0.5455320000000 1.0
C      1  0.5286630000000  0.4795520000000  0.5456280000000 1.0
C      1  0.5291810000000  0.5213780000000  0.5427280000000 1.0
C      1  0.5280870000000  0.4635980000000  0.4693460000000 1.0
C      1  0.5450760000000  0.5111650000000  0.4778160000000 1.0
C      1  0.4979580000000  0.5432120000000  0.4748200000000 1.0
C      1  0.4553500000000  0.5139480000000  0.4731720000000 1.0
C      1  0.4736450000000  0.4673880000000  0.4827220000000 1.0
C      1  0.4598350000000  0.4750260000000  0.5337490000000 1.0
C      1  0.5113090000000  0.4588600000000  0.5299890000000 1.0
C      1  0.5478180000000  0.4985280000000  0.5289210000000 1.0
C      1  0.5114940000000  0.5431150000000  0.5284850000000 1.0
C      1  0.4609600000000  0.5269090000000  0.5334500000000 1.0
C      1  0.5191310000000  0.4712140000000  0.4427890000000 1.0
C      1  0.5351870000000  0.5091460000000  0.4505620000000 1.0
C      1  0.5030140000000  0.5358400000000  0.4473800000000 1.0
C      1  0.4674360000000  0.5137910000000  0.4469440000000 1.0
C      1  0.4791000000000  0.4743220000000  0.4548750000000 1.0
C      1  0.4308890000000  0.4841100000000  0.4934760000000 1.0
C      1  0.5033190000000  0.4397830000000  0.4934950000000 1.0
C      1  0.5663480000000  0.4713890000000  0.4913970000000 1.0
C      1  0.5386420000000  0.5486540000000  0.4955480000000 1.0
C      1  0.4623800000000  0.5485240000000  0.4964780000000 1.0
C      1  0.5207310000000  0.5749340000000  0.4901520000000 1.0
C      1  0.4324520000000  0.5452640000000  0.4891220000000 1.0
C      1  0.4350830000000  0.4518150000000  0.4882930000000 1.0
C      1  0.5295910000000  0.4252470000000  0.4862990000000 1.0
C      1  0.5840000000000  0.4989260000000  0.4875930000000 1.0
C      1  0.5013350000000  0.5013930000000  0.5184930000000 1.0
C      1  0.5032660000000  0.5011430000000  0.5546040000000 1.0
C      1  0.5036000000000  0.5004550000000  0.4768020000000 1.0
C      1  0.5008470000000  0.5007240000000  0.4431220000000 1.0
END
