TITL C-862128-1543-669 6.10318937754485e-07 125000 -144.711281112701 0 0 24 (D6h) n - 1
REM
REM in /home/nfs/bkarasulu/CARBON/AIRSS/Generating-Clusters/TERSOFF/Higher-Symm/FIRE-HFTN
REM
REM
REM
REM
REM
REM ./C.cell (b20cbc046b6831c77cfcea5457e17084)
REM AIRSS Version 0.9.1 bugfix July 2018 build 013d7b7c2542+ Fri, 06 Jul 2018 19:26:36 +0100
REM compiler GCC version 9.2.1 20190827 (Red Hat 9.2.1-1)
REM options -cpp -mtune=generic -march=x86-64 -g -O0 -fpre-include=/usr/include/finclude/math-vector-fortran.h
REM seed -293445662 -1472094910 -1140991640 -436284021 -2138004631 838591674 1435856841 -220558891 -1068710931 1050316130 355250647 -1355352239 -199786148 1191255466 813206263 -94949949 656335553 374850324 -1810535152 1781039365 -1085168470 1710093757 -659847670 1081614729 -1104823746 -387324907 1096220580 1283869443 464480415 186541227 1365773729 1143543585 2004674428
REM
CELL 1.54180   50.00000   50.00000   50.00000   90.00000   90.00000   90.00000
LATT -1
SFAC C  
C      1  0.4697070000000  0.5224890000000  0.4809190000000 1.0
C      1  0.4697070000000  0.4947200000000  0.4709830000000 1.0
C      1  0.4697070000000  0.4722310000000  0.4900650000000 1.0
C      1  0.4697070000000  0.4775110000000  0.5190810000000 1.0
C      1  0.4697070000000  0.5052800000000  0.5290170000000 1.0
C      1  0.4697070000000  0.5277690000000  0.5099350000000 1.0
C      1  0.4855010000000  0.5097100000000  0.5533600000000 1.0
C      1  0.4855010000000  0.5510660000000  0.5182710000000 1.0
C      1  0.4855010000000  0.5413560000000  0.4649110000000 1.0
C      1  0.4855010000000  0.4902900000000  0.4466400000000 1.0
C      1  0.4855010000000  0.4489340000000  0.4817290000000 1.0
C      1  0.4855010000000  0.4586440000000  0.5350890000000 1.0
C      1  0.5144990000000  0.5510660000000  0.5182710000000 1.0
C      1  0.5144990000000  0.5413560000000  0.4649110000000 1.0
C      1  0.5144990000000  0.4902900000000  0.4466400000000 1.0
C      1  0.5144990000000  0.4489340000000  0.4817290000000 1.0
C      1  0.5144990000000  0.4586440000000  0.5350890000000 1.0
C      1  0.5144990000000  0.5097100000000  0.5533600000000 1.0
C      1  0.5302930000000  0.5224890000000  0.4809190000000 1.0
C      1  0.5302930000000  0.4947200000000  0.4709830000000 1.0
C      1  0.5302930000000  0.4722310000000  0.4900650000000 1.0
C      1  0.5302930000000  0.4775110000000  0.5190810000000 1.0
C      1  0.5302930000000  0.5052800000000  0.5290170000000 1.0
C      1  0.5302930000000  0.5277690000000  0.5099350000000 1.0
END
