TITL C-862500-986-764 0.00104348595170275 125000 -372.35498189449 0 0 66 (D2h) n - 1
REM
REM in /home/nfs/bkarasulu/CARBON/AIRSS/Generating-Clusters/TERSOFF/Higher-Symm/FIRE-HFTN
REM
REM
REM
REM
REM
REM ./C.cell (b20cbc046b6831c77cfcea5457e17084)
REM AIRSS Version 0.9.1 bugfix July 2018 build 013d7b7c2542+ Fri, 06 Jul 2018 19:26:36 +0100
REM compiler GCC version 9.2.1 20190827 (Red Hat 9.2.1-1)
REM options -cpp -mtune=generic -march=x86-64 -g -O0 -fpre-include=/usr/include/finclude/math-vector-fortran.h
REM seed 1268907294 -1530719516 793207509 808487643 -248500292 -48478108 -652045765 -1912096526 -770326907 -693221249 80735141 1893570194 610558943 -1683243976 -925078 -800700394 -1071776789 -700687630 -524192694 1187807070 -1244735246 -351663356 1589035694 -782364661 -160720389 843524096 373311668 1406191030 -2021534610 655011219 -1562889376 -888851641 1837708669
REM
CELL 1.54180   50.00000   50.00000   50.00000   90.00000   90.00000   90.00000
LATT -1
SFAC C  
C      1  0.5495060000000  0.5144120000000  0.4761240000000 1.0
C      1  0.4504940000000  0.4855880000000  0.4761240000000 1.0
C      1  0.5495060000000  0.5144120000000  0.5228630000000 1.0
C      1  0.4504940000000  0.4855880000000  0.5228630000000 1.0
C      1  0.5495060000000  0.4855880000000  0.4761240000000 1.0
C      1  0.4504940000000  0.5144120000000  0.4761240000000 1.0
C      1  0.5495060000000  0.4855880000000  0.5228630000000 1.0
C      1  0.4504940000000  0.5144120000000  0.5228630000000 1.0
C      1  0.4275160000000  0.5330960000000  0.4833900000000 1.0
C      1  0.5724840000000  0.4669040000000  0.4833900000000 1.0
C      1  0.4275160000000  0.5330960000000  0.5155970000000 1.0
C      1  0.5724840000000  0.4669040000000  0.5155970000000 1.0
C      1  0.4275160000000  0.4669040000000  0.4833900000000 1.0
C      1  0.5724840000000  0.5330960000000  0.4833900000000 1.0
C      1  0.4275160000000  0.4669040000000  0.5155970000000 1.0
C      1  0.5724840000000  0.5330960000000  0.5155970000000 1.0
C      1  0.4845220000000  0.4666860000000  0.4365500000000 1.0
C      1  0.5154780000000  0.5333140000000  0.4365500000000 1.0
C      1  0.4845220000000  0.4666860000000  0.5624370000000 1.0
C      1  0.5154780000000  0.5333140000000  0.5624370000000 1.0
C      1  0.4845220000000  0.5333140000000  0.4365500000000 1.0
C      1  0.5154780000000  0.4666860000000  0.4365500000000 1.0
C      1  0.4845220000000  0.5333140000000  0.5624370000000 1.0
C      1  0.5154780000000  0.4666860000000  0.5624370000000 1.0
C      1  0.5603380000000  0.5521900000000  0.5376480000000 1.0
C      1  0.4396620000000  0.4478100000000  0.5376480000000 1.0
C      1  0.5603380000000  0.5521900000000  0.4613390000000 1.0
C      1  0.4396620000000  0.4478100000000  0.4613390000000 1.0
C      1  0.5603380000000  0.4478100000000  0.5376480000000 1.0
C      1  0.4396620000000  0.5521900000000  0.5376480000000 1.0
C      1  0.5603380000000  0.4478100000000  0.4613390000000 1.0
C      1  0.4396620000000  0.5521900000000  0.4613390000000 1.0
C      1  0.5304440000000  0.5149770000000  0.4186830000000 1.0
C      1  0.4695560000000  0.4850230000000  0.4186830000000 1.0
C      1  0.5304440000000  0.5149770000000  0.5803040000000 1.0
C      1  0.4695560000000  0.4850230000000  0.5803040000000 1.0
C      1  0.5304440000000  0.4850230000000  0.4186830000000 1.0
C      1  0.4695560000000  0.5149770000000  0.4186830000000 1.0
C      1  0.5304440000000  0.4850230000000  0.5803040000000 1.0
C      1  0.4695560000000  0.5149770000000  0.5803040000000 1.0
C      1  0.5307130000000  0.5522660000000  0.5430630000000 1.0
C      1  0.4692870000000  0.4477340000000  0.5430630000000 1.0
C      1  0.5307130000000  0.5522660000000  0.4559230000000 1.0
C      1  0.4692870000000  0.4477340000000  0.4559230000000 1.0
C      1  0.5307130000000  0.4477340000000  0.5430630000000 1.0
C      1  0.4692870000000  0.5522660000000  0.5430630000000 1.0
C      1  0.5307130000000  0.4477340000000  0.4559230000000 1.0
C      1  0.4692870000000  0.5522660000000  0.4559230000000 1.0
C      1  0.4779730000000  0.4775270000000  0.5147670000000 1.0
C      1  0.5220270000000  0.5224730000000  0.5147670000000 1.0
C      1  0.4779730000000  0.4775270000000  0.4842190000000 1.0
C      1  0.5220270000000  0.5224730000000  0.4842190000000 1.0
C      1  0.4779730000000  0.5224730000000  0.5147670000000 1.0
C      1  0.5220270000000  0.4775270000000  0.5147670000000 1.0
C      1  0.4779730000000  0.5224730000000  0.4842190000000 1.0
C      1  0.5220270000000  0.4775270000000  0.4842190000000 1.0
C      1  0.4845470000000  0.4457200000000  0.4820060000000 1.0
C      1  0.5154530000000  0.5542800000000  0.4820060000000 1.0
C      1  0.4845470000000  0.4457200000000  0.5169810000000 1.0
C      1  0.5154530000000  0.5542800000000  0.5169810000000 1.0
C      1  0.4845470000000  0.5542800000000  0.4820060000000 1.0
C      1  0.5154530000000  0.4457200000000  0.4820060000000 1.0
C      1  0.4845470000000  0.5542800000000  0.5169810000000 1.0
C      1  0.5154530000000  0.4457200000000  0.5169810000000 1.0
C      1  0.5000000000000  0.5000000000000  0.4742530000000 1.0
C      1  0.5000000000000  0.5000000000000  0.5247340000000 1.0
END
