TITL C-862127-1500-871 -0.000183703650586645 125000 -234.797331892242 0 0 44 (C3) n - 1
REM
REM in /home/nfs/bkarasulu/CARBON/AIRSS/Generating-Clusters/TERSOFF/Higher-Symm/FIRE-HFTN
REM
REM
REM
REM
REM
REM ./C.cell (b20cbc046b6831c77cfcea5457e17084)
REM AIRSS Version 0.9.1 bugfix July 2018 build 013d7b7c2542+ Fri, 06 Jul 2018 19:26:36 +0100
REM compiler GCC version 9.2.1 20190827 (Red Hat 9.2.1-1)
REM options -cpp -mtune=generic -march=x86-64 -g -O0 -fpre-include=/usr/include/finclude/math-vector-fortran.h
REM seed -975346625 -764674466 700303250 -263827808 -1171082966 -891459316 -376879068 -1018385748 970655060 -703673264 1301751223 1383317827 924661980 -595858441 -1878875564 160136252 -144991037 966684311 -2043129534 2056457358 -910708574 1808962880 1510738129 -1719124159 1080053785 -905128482 588639213 893471697 -1908425384 2000329475 1267222994 -1849922682 917351873
REM
CELL 1.54180   50.00000   50.00000   50.00000   90.00000   90.00000   90.00000
LATT -1
SFAC C  
C      1  0.4512580000000  0.4593360000000  0.4846110000000 1.0
C      1  0.4512580000000  0.5348130000000  0.4723430000000 1.0
C      1  0.4512580000000  0.5076990000000  0.5438420000000 1.0
C      1  0.5198640000000  0.5220220000000  0.5196140000000 1.0
C      1  0.5198640000000  0.4731570000000  0.5091290000000 1.0
C      1  0.5198640000000  0.5066690000000  0.4720530000000 1.0
C      1  0.5542060000000  0.5056790000000  0.5431270000000 1.0
C      1  0.5542060000000  0.4609650000000  0.4832190000000 1.0
C      1  0.5542060000000  0.5352040000000  0.4744500000000 1.0
C      1  0.5674100000000  0.4673440000000  0.5104090000000 1.0
C      1  0.5674100000000  0.5084680000000  0.4663790000000 1.0
C      1  0.5674100000000  0.5260360000000  0.5240080000000 1.0
C      1  0.5047970000000  0.5645400000000  0.4867960000000 1.0
C      1  0.5047970000000  0.4803190000000  0.5623600000000 1.0
C      1  0.5047970000000  0.4569890000000  0.4516410000000 1.0
C      1  0.5521090000000  0.4820590000000  0.4615130000000 1.0
C      1  0.5521090000000  0.5434550000000  0.5035700000000 1.0
C      1  0.5521090000000  0.4763350000000  0.5357120000000 1.0
C      1  0.4671200000000  0.4823830000000  0.5237140000000 1.0
C      1  0.4671200000000  0.4894260000000  0.4727510000000 1.0
C      1  0.4671200000000  0.5300400000000  0.5043320000000 1.0
C      1  0.4798550000000  0.5236060000000  0.5494110000000 1.0
C      1  0.4798550000000  0.4465600000000  0.4956020000000 1.0
C      1  0.4798550000000  0.5316830000000  0.4557830000000 1.0
C      1  0.5178290000000  0.5524660000000  0.5115740000000 1.0
C      1  0.5178290000000  0.4648980000000  0.5395140000000 1.0
C      1  0.5178290000000  0.4844850000000  0.4497080000000 1.0
C      1  0.4394380000000  0.4654140000000  0.5156770000000 1.0
C      1  0.4394380000000  0.5048700000000  0.4620740000000 1.0
C      1  0.4394380000000  0.5315640000000  0.5230450000000 1.0
C      1  0.5274590000000  0.5324300000000  0.4619430000000 1.0
C      1  0.5274590000000  0.5178970000000  0.5469780000000 1.0
C      1  0.5274590000000  0.4515210000000  0.4918750000000 1.0
C      1  0.4853290000000  0.5002490000000  0.4492890000000 1.0
C      1  0.4853290000000  0.5449470000000  0.5254360000000 1.0
C      1  0.4853290000000  0.4566520000000  0.5260720000000 1.0
C      1  0.4274810000000  0.4762280000000  0.4692850000000 1.0
C      1  0.4274810000000  0.5396400000000  0.4946340000000 1.0
C      1  0.4274810000000  0.4859810000000  0.5368770000000 1.0
C      1  0.5037410000000  0.5091900000000  0.5615990000000 1.0
C      1  0.5037410000000  0.4432130000000  0.4770230000000 1.0
C      1  0.5037410000000  0.5494460000000  0.4621740000000 1.0
C      1  0.5189330000000  0.5006160000000  0.5002650000000 1.0
C      1  0.4737660000000  0.5006160000000  0.5002650000000 1.0
END
