TITL C-862128-1543-278 0.000210095852042257 125000 -45.4588845565269 0 0 11 (S4) n - 1
REM
REM in /home/nfs/bkarasulu/CARBON/AIRSS/Generating-Clusters/TERSOFF/Higher-Symm/FIRE-HFTN
REM
REM
REM
REM
REM
REM ./C.cell (b20cbc046b6831c77cfcea5457e17084)
REM AIRSS Version 0.9.1 bugfix July 2018 build 013d7b7c2542+ Fri, 06 Jul 2018 19:26:36 +0100
REM compiler GCC version 9.2.1 20190827 (Red Hat 9.2.1-1)
REM options -cpp -mtune=generic -march=x86-64 -g -O0 -fpre-include=/usr/include/finclude/math-vector-fortran.h
REM seed 803216351 -748693264 236646089 -6659673 857487310 -1040031268 2067470067 -274271504 1248125607 -114258123 -2035685041 -1008420227 -950953377 -1760764678 -1053856578 691732471 -1218386921 1924869978 1187094496 162027642 1626101597 -793292071 1559740772 425285331 -674485871 -782693538 -819811661 146234412 1872049382 -472047036 -1014435853 -1169204789 473117043
REM
CELL 1.54180   50.00000   50.00000   50.00000   90.00000   90.00000   90.00000
LATT -1
SFAC C  
C      1  0.5076740000000  0.5210980000000  0.4805000000000 1.0
C      1  0.4810920000000  0.4728020000000  0.4937350000000 1.0
C      1  0.4943270000000  0.5210980000000  0.5203170000000 1.0
C      1  0.5209090000000  0.4728020000000  0.5070820000000 1.0
C      1  0.4526860000000  0.4728010000000  0.4992910000000 1.0
C      1  0.4998830000000  0.5210990000000  0.5487230000000 1.0
C      1  0.5493150000000  0.4728010000000  0.5015260000000 1.0
C      1  0.5021180000000  0.5210990000000  0.4520940000000 1.0
C      1  0.5010010000000  0.4486600000000  0.5004090000000 1.0
C      1  0.5010010000000  0.5452400000000  0.5004090000000 1.0
C      1  0.5010010000000  0.4969500000000  0.5004090000000 1.0
END
