TITL C-862507-1800-949 9.79845493429795 125000 -589.23647359527 0 0 108 (Ci) n - 1
REM
REM in /home/nfs/bkarasulu/CARBON/AIRSS/Generating-Clusters/TERSOFF/Higher-Symm/FIRE-HFTN
REM
REM
REM
REM
REM
REM ./C.cell (b20cbc046b6831c77cfcea5457e17084)
REM AIRSS Version 0.9.1 bugfix July 2018 build 013d7b7c2542+ Fri, 06 Jul 2018 19:26:36 +0100
REM compiler GCC version 9.2.1 20190827 (Red Hat 9.2.1-1)
REM options -cpp -mtune=generic -march=x86-64 -g -O0 -fpre-include=/usr/include/finclude/math-vector-fortran.h
REM seed 1135392393 -932142924 1061124022 528936942 -160051110 1430481995 322785339 -309595371 -526977231 2117126574 1671751381 603096502 1718130016 -799805134 -546961730 -520285334 -589232562 339038952 -1289404550 -189645135 -668261404 -953111745 1866721220 1899124736 -1278301416 -1827104516 1147152949 1223401667 -1282175386 -1410538924 1560422103 1328359695 -845299176
REM
CELL 1.54180   50.00000   50.00000   50.00000   90.00000   90.00000   90.00000
LATT -1
SFAC C  
C      1  0.5034670000000  0.6005880000000  0.4946400000000 1.0
C      1  0.4965330000000  0.3994120000000  0.5053600000000 1.0
C      1  0.5376340000000  0.5769040000000  0.4345960000000 1.0
C      1  0.4623660000000  0.4230960000000  0.5654040000000 1.0
C      1  0.5311580000000  0.5198520000000  0.4909100000000 1.0
C      1  0.4688420000000  0.4801480000000  0.5090900000000 1.0
C      1  0.4592870000000  0.4742070000000  0.4826420000000 1.0
C      1  0.5407130000000  0.5257930000000  0.5173580000000 1.0
C      1  0.4562180000000  0.5836660000000  0.4973390000000 1.0
C      1  0.5437820000000  0.4163340000000  0.5026610000000 1.0
C      1  0.4496920000000  0.5331390000000  0.4699030000000 1.0
C      1  0.5503080000000  0.4668610000000  0.5300970000000 1.0
C      1  0.5072050000000  0.4527390000000  0.5827170000000 1.0
C      1  0.4927950000000  0.5472610000000  0.4172830000000 1.0
C      1  0.4328650000000  0.5549120000000  0.4776260000000 1.0
C      1  0.5671350000000  0.4450880000000  0.5223740000000 1.0
C      1  0.4981840000000  0.4538820000000  0.4847260000000 1.0
C      1  0.5018160000000  0.5461180000000  0.5152740000000 1.0
C      1  0.5765760000000  0.4998420000000  0.5389300000000 1.0
C      1  0.4234240000000  0.5001580000000  0.4610700000000 1.0
C      1  0.5586910000000  0.4410000000000  0.4582830000000 1.0
C      1  0.4413090000000  0.5590000000000  0.5417170000000 1.0
C      1  0.5314990000000  0.4786410000000  0.5080700000000 1.0
C      1  0.4685010000000  0.5213590000000  0.4919300000000 1.0
C      1  0.5290420000000  0.5305580000000  0.5750900000000 1.0
C      1  0.4709580000000  0.4694420000000  0.4249100000000 1.0
C      1  0.5038260000000  0.5277710000000  0.5416390000000 1.0
C      1  0.4961740000000  0.4722290000000  0.4583610000000 1.0
C      1  0.5218280000000  0.5391060000000  0.4465070000000 1.0
C      1  0.4781720000000  0.4608940000000  0.5534930000000 1.0
C      1  0.4299250000000  0.5128240000000  0.5279950000000 1.0
C      1  0.5700750000000  0.4871760000000  0.4720050000000 1.0
C      1  0.4586500000000  0.5076130000000  0.5181760000000 1.0
C      1  0.5413500000000  0.4923870000000  0.4818240000000 1.0
C      1  0.5692380000000  0.5481540000000  0.5180330000000 1.0
C      1  0.4307620000000  0.4518460000000  0.4819670000000 1.0
C      1  0.4982750000000  0.4844440000000  0.5396920000000 1.0
C      1  0.5017250000000  0.5155560000000  0.4603080000000 1.0
C      1  0.5131320000000  0.4961810000000  0.4241510000000 1.0
C      1  0.4868680000000  0.5038190000000  0.5758490000000 1.0
C      1  0.4444180000000  0.4937140000000  0.5652730000000 1.0
C      1  0.5555820000000  0.5062860000000  0.4347270000000 1.0
C      1  0.5122120000000  0.4192940000000  0.4630360000000 1.0
C      1  0.4877880000000  0.5807060000000  0.5369640000000 1.0
C      1  0.5251330000000  0.5064560000000  0.5409300000000 1.0
C      1  0.4748670000000  0.4935440000000  0.4590700000000 1.0
C      1  0.4907390000000  0.5162600000000  0.4187070000000 1.0
C      1  0.5092610000000  0.4837400000000  0.5812930000000 1.0
C      1  0.5290420000000  0.4981410000000  0.4519600000000 1.0
C      1  0.4709580000000  0.5018590000000  0.5480400000000 1.0
C      1  0.5688620000000  0.4669880000000  0.4493580000000 1.0
C      1  0.4311380000000  0.5330120000000  0.5506420000000 1.0
C      1  0.4673160000000  0.5690070000000  0.5538750000000 1.0
C      1  0.5326840000000  0.4309930000000  0.4461250000000 1.0
C      1  0.4808510000000  0.4377340000000  0.5118470000000 1.0
C      1  0.5191490000000  0.5622660000000  0.4881530000000 1.0
C      1  0.5732080000000  0.5297230000000  0.5434740000000 1.0
C      1  0.4267920000000  0.4702770000000  0.4565260000000 1.0
C      1  0.4912650000000  0.4336230000000  0.5605640000000 1.0
C      1  0.5087350000000  0.5663770000000  0.4394360000000 1.0
C      1  0.5344110000000  0.4975490000000  0.5704910000000 1.0
C      1  0.4655890000000  0.5024510000000  0.4295090000000 1.0
C      1  0.5027670000000  0.4213610000000  0.5331260000000 1.0
C      1  0.4972330000000  0.5786390000000  0.4668740000000 1.0
C      1  0.4550750000000  0.4673370000000  0.5744780000000 1.0
C      1  0.5449250000000  0.5326630000000  0.4255220000000 1.0
C      1  0.4621210000000  0.4574380000000  0.5274760000000 1.0
C      1  0.5378790000000  0.5425620000000  0.4725240000000 1.0
C      1  0.5636470000000  0.4792740000000  0.4223280000000 1.0
C      1  0.4363530000000  0.5207260000000  0.5776720000000 1.0
C      1  0.5281560000000  0.5857520000000  0.5095830000000 1.0
C      1  0.4718440000000  0.4142480000000  0.4904170000000 1.0
C      1  0.5682410000000  0.4372280000000  0.4910220000000 1.0
C      1  0.4317590000000  0.5627720000000  0.5089780000000 1.0
C      1  0.4386560000000  0.4266120000000  0.4415720000000 1.0
C      1  0.5613440000000  0.5733880000000  0.5584280000000 1.0
C      1  0.4447460000000  0.4048630000000  0.4867330000000 1.0
C      1  0.5552540000000  0.5951370000000  0.5132670000000 1.0
C      1  0.4566390000000  0.4522130000000  0.4451250000000 1.0
C      1  0.5433610000000  0.5477870000000  0.5548750000000 1.0
C      1  0.4808180000000  0.4336790000000  0.4648490000000 1.0
C      1  0.5191820000000  0.5663210000000  0.5351510000000 1.0
C      1  0.4793740000000  0.5950310000000  0.5129560000000 1.0
C      1  0.5206260000000  0.4049690000000  0.4870440000000 1.0
C      1  0.5214640000000  0.4448390000000  0.4232820000000 1.0
C      1  0.4785360000000  0.5551610000000  0.5767180000000 1.0
C      1  0.5498760000000  0.4742830000000  0.5588560000000 1.0
C      1  0.4501240000000  0.5257170000000  0.4411440000000 1.0
C      1  0.4173120000000  0.4513040000000  0.5084990000000 1.0
C      1  0.5826880000000  0.5486960000000  0.4915010000000 1.0
C      1  0.4312730000000  0.4576430000000  0.5337400000000 1.0
C      1  0.5687270000000  0.5423570000000  0.4662600000000 1.0
C      1  0.5761180000000  0.5139700000000  0.4567250000000 1.0
C      1  0.4238820000000  0.4860300000000  0.5432750000000 1.0
C      1  0.4300430000000  0.4235640000000  0.4700790000000 1.0
C      1  0.5699570000000  0.5764360000000  0.5299210000000 1.0
C      1  0.5011880000000  0.4757750000000  0.5096250000000 1.0
C      1  0.4988120000000  0.5242250000000  0.4903750000000 1.0
C      1  0.5931400000000  0.4846210000000  0.5182140000000 1.0
C      1  0.4068600000000  0.5153790000000  0.4817860000000 1.0
C      1  0.5613980000000  0.5579840000000  0.4370260000000 1.0
C      1  0.4386020000000  0.4420160000000  0.5629740000000 1.0
C      1  0.4966890000000  0.5329930000000  0.5725020000000 1.0
C      1  0.5033110000000  0.4670070000000  0.4274980000000 1.0
C      1  0.4675130000000  0.5776170000000  0.4707760000000 1.0
C      1  0.5324870000000  0.4223830000000  0.5292240000000 1.0
C      1  0.5825490000000  0.4708500000000  0.4931030000000 1.0
C      1  0.4174510000000  0.5291500000000  0.5068970000000 1.0
END
