TITL C-862503-991-91 -0.00073618004969858 125000 -401.676023118411 0 0 76 (C1) n - 1
REM
REM in /home/nfs/bkarasulu/CARBON/AIRSS/Generating-Clusters/TERSOFF/Higher-Symm/FIRE-HFTN
REM
REM
REM
REM
REM
REM ./C.cell (b20cbc046b6831c77cfcea5457e17084)
REM AIRSS Version 0.9.1 bugfix July 2018 build 013d7b7c2542+ Fri, 06 Jul 2018 19:26:36 +0100
REM compiler GCC version 9.2.1 20190827 (Red Hat 9.2.1-1)
REM options -cpp -mtune=generic -march=x86-64 -g -O0 -fpre-include=/usr/include/finclude/math-vector-fortran.h
REM seed 672928930 -1324025406 -2074808108 -890981833 -1294349745 827243912 676626463 1731922918 -2078384852 455573023 1724402940 971908848 -1485595709 -760598549 -1236977612 -238214321 487832588 -598203821 705720397 -1654405732 -1522085336 2128108286 -603335216 -1148929417 -1558357594 266951716 1512101078 -1816395852 -1811023090 323677488 -1549709717 -1117588162 1128464534
REM
CELL 1.54180   50.00000   50.00000   50.00000   90.00000   90.00000   90.00000
LATT -1
SFAC C  
C      1  0.4599390000000  0.5111710000000  0.5526580000000 1.0
C      1  0.5389570000000  0.5100520000000  0.4521500000000 1.0
C      1  0.5389770000000  0.5110860000000  0.5526600000000 1.0
C      1  0.4599620000000  0.5101380000000  0.4521490000000 1.0
C      1  0.5228670000000  0.4374560000000  0.5233560000000 1.0
C      1  0.4754080000000  0.4350990000000  0.4759560000000 1.0
C      1  0.4758910000000  0.4375060000000  0.5233550000000 1.0
C      1  0.5233470000000  0.4350470000000  0.4759570000000 1.0
C      1  0.4686340000000  0.5344780000000  0.5344630000000 1.0
C      1  0.5276170000000  0.5330460000000  0.4696170000000 1.0
C      1  0.5303330000000  0.5344110000000  0.5344640000000 1.0
C      1  0.4713500000000  0.5331070000000  0.4696160000000 1.0
C      1  0.5290610000000  0.4861760000000  0.4727580000000 1.0
C      1  0.4715090000000  0.4876560000000  0.5309740000000 1.0
C      1  0.4698050000000  0.4862400000000  0.4727570000000 1.0
C      1  0.5273570000000  0.4875950000000  0.5309750000000 1.0
C      1  0.4385370000000  0.4488780000000  0.5615130000000 1.0
C      1  0.5600040000000  0.4489990000000  0.4377740000000 1.0
C      1  0.5602440000000  0.4487460000000  0.5615160000000 1.0
C      1  0.4387830000000  0.4491310000000  0.4377710000000 1.0
C      1  0.5788440000000  0.5054790000000  0.5241470000000 1.0
C      1  0.4193170000000  0.5022760000000  0.4752830000000 1.0
C      1  0.4200610000000  0.5056510000000  0.5241430000000 1.0
C      1  0.5795830000000  0.5021020000000  0.4752860000000 1.0
C      1  0.4299630000000  0.4537830000000  0.5329870000000 1.0
C      1  0.5685780000000  0.4519990000000  0.4663710000000 1.0
C      1  0.5688290000000  0.4536320000000  0.5329900000000 1.0
C      1  0.4302140000000  0.4521490000000  0.4663680000000 1.0
C      1  0.5152380000000  0.4572570000000  0.4560650000000 1.0
C      1  0.4838770000000  0.4582260000000  0.5439950000000 1.0
C      1  0.4835660000000  0.4572910000000  0.4560640000000 1.0
C      1  0.5149240000000  0.4581920000000  0.5439960000000 1.0
C      1  0.4646820000000  0.4626220000000  0.4313780000000 1.0
C      1  0.5342030000000  0.4614520000000  0.5688220000000 1.0
C      1  0.5341340000000  0.4625470000000  0.4313800000000 1.0
C      1  0.4646050000000  0.4615270000000  0.5688210000000 1.0
C      1  0.4380720000000  0.4802040000000  0.4718200000000 1.0
C      1  0.5606940000000  0.4826400000000  0.5307030000000 1.0
C      1  0.5607810000000  0.4800700000000  0.4718230000000 1.0
C      1  0.4381610000000  0.4827730000000  0.5307010000000 1.0
C      1  0.5520690000000  0.4347210000000  0.4846450000000 1.0
C      1  0.4474260000000  0.4367850000000  0.5147900000000 1.0
C      1  0.4466850000000  0.4348360000000  0.4846430000000 1.0
C      1  0.5513300000000  0.4366720000000  0.5147920000000 1.0
C      1  0.4626960000000  0.4905370000000  0.5756240000000 1.0
C      1  0.5361340000000  0.4921850000000  0.4273220000000 1.0
C      1  0.5361740000000  0.4904580000000  0.5756260000000 1.0
C      1  0.4627470000000  0.4922650000000  0.4273200000000 1.0
C      1  0.4994990000000  0.5483130000000  0.5407670000000 1.0
C      1  0.4994980000000  0.5455610000000  0.4594890000000 1.0
C      1  0.4645790000000  0.5718800000000  0.4841530000000 1.0
C      1  0.5344720000000  0.5718040000000  0.4841550000000 1.0
C      1  0.4995280000000  0.5754760000000  0.5520260000000 1.0
C      1  0.4995270000000  0.5723960000000  0.4480970000000 1.0
C      1  0.4994430000000  0.4970050000000  0.5519570000000 1.0
C      1  0.4994440000000  0.4960000000000  0.4595810000000 1.0
C      1  0.4606050000000  0.5314600000000  0.5019650000000 1.0
C      1  0.5383580000000  0.5313750000000  0.5019660000000 1.0
C      1  0.4608920000000  0.5008050000000  0.5004310000000 1.0
C      1  0.5380040000000  0.5007210000000  0.5004320000000 1.0
C      1  0.4202480000000  0.5205320000000  0.4981700000000 1.0
C      1  0.5786910000000  0.5203600000000  0.4981740000000 1.0
C      1  0.5616230000000  0.5507400000000  0.4951390000000 1.0
C      1  0.4373820000000  0.5508750000000  0.4951360000000 1.0
C      1  0.4994720000000  0.5242910000000  0.5610900000000 1.0
C      1  0.4994700000000  0.5194560000000  0.4416040000000 1.0
C      1  0.5019110000000  0.3813850000000  0.4777250000000 1.0
C      1  0.4994090000000  0.4643090000000  0.4941940000000 1.0
C      1  0.4995520000000  0.5964910000000  0.5098030000000 1.0
C      1  0.4993700000000  0.4292740000000  0.5009030000000 1.0
C      1  0.4994960000000  0.5455630000000  0.5083710000000 1.0
C      1  0.4994650000000  0.5167480000000  0.4960970000000 1.0
C      1  0.4994660000000  0.6233900000000  0.4991180000000 1.0
C      1  0.4994340000000  0.4883510000000  0.5110690000000 1.0
C      1  0.4993370000000  0.3981250000000  0.5011970000000 1.0
C      1  0.4995240000000  0.5709640000000  0.4928780000000 1.0
END
