TITL C-862131-2149-441 300027.315374823 125000 -1065.8210136825 0 0 185 (C1) n - 1
REM
REM in /home/nfs/bkarasulu/CARBON/AIRSS/Generating-Clusters/TERSOFF/Higher-Symm/FIRE-HFTN
REM
REM
REM
REM
REM
REM ./C.cell (b20cbc046b6831c77cfcea5457e17084)
REM AIRSS Version 0.9.1 bugfix July 2018 build 013d7b7c2542+ Fri, 06 Jul 2018 19:26:36 +0100
REM compiler GCC version 9.2.1 20190827 (Red Hat 9.2.1-1)
REM options -cpp -mtune=generic -march=x86-64 -g -O0 -fpre-include=/usr/include/finclude/math-vector-fortran.h
REM seed 1079004656 694913814 460431469 2023527546 1543638127 -1861761805 1463682462 1579064210 1320603982 2081907137 -1283056350 -1563028654 -265782447 1444199379 1299499837 -588301436 394035057 182743150 -1762684525 1569972297 1908411696 -1135440118 -660330807 -1891580666 606173549 1327784959 1916372109 561295664 -1129307142 1192054533 -177811763 -176171972 804354708
REM
CELL 1.54180   50.00000   50.00000   50.00000   90.00000   90.00000   90.00000
LATT -1
SFAC C  
C      1  0.4610380000000  0.4158260000000  0.4933480000000 1.0
C      1  0.4206070000000  0.4519790000000  0.4938330000000 1.0
C      1  0.4063170000000  0.5038970000000  0.4924000000000 1.0
C      1  0.4227760000000  0.5579310000000  0.4937100000000 1.0
C      1  0.4650150000000  0.5924620000000  0.4979800000000 1.0
C      1  0.5199400000000  0.5992720000000  0.5015630000000 1.0
C      1  0.5687080000000  0.5769260000000  0.5014040000000 1.0
C      1  0.5998300000000  0.5302280000000  0.4989780000000 1.0
C      1  0.5986230000000  0.4733790000000  0.5013160000000 1.0
C      1  0.5667480000000  0.4313260000000  0.4915400000000 1.0
C      1  0.5148990000000  0.4082600000000  0.4935610000000 1.0
C      1  0.4484410000000  0.5201940000000  0.5085150000000 1.0
C      1  0.4672530000000  0.5452860000000  0.5147930000000 1.0
C      1  0.4969650000000  0.5588240000000  0.5146000000000 1.0
C      1  0.5280980000000  0.5521250000000  0.5230870000000 1.0
C      1  0.5530030000000  0.5334230000000  0.5129950000000 1.0
C      1  0.5601430000000  0.5024070000000  0.5095670000000 1.0
C      1  0.5507870000000  0.4722340000000  0.5158590000000 1.0
C      1  0.5254390000000  0.4538940000000  0.5087200000000 1.0
C      1  0.4934700000000  0.4488660000000  0.5140620000000 1.0
C      1  0.4637420000000  0.4600950000000  0.5127110000000 1.0
C      1  0.4502200000000  0.4888120000000  0.5169250000000 1.0
C      1  0.4086610000000  0.4826060000000  0.5599350000000 1.0
C      1  0.4146730000000  0.5342030000000  0.5596030000000 1.0
C      1  0.4456980000000  0.5761000000000  0.5643260000000 1.0
C      1  0.4956960000000  0.5913950000000  0.5655430000000 1.0
C      1  0.5465090000000  0.5802360000000  0.5671890000000 1.0
C      1  0.5845370000000  0.5448560000000  0.5675570000000 1.0
C      1  0.5932150000000  0.4937490000000  0.5655530000000 1.0
C      1  0.5735630000000  0.4458080000000  0.5643580000000 1.0
C      1  0.5314960000000  0.4166020000000  0.5607100000000 1.0
C      1  0.4795880000000  0.4135770000000  0.5598300000000 1.0
C      1  0.4325480000000  0.4361890000000  0.5608550000000 1.0
C      1  0.5487470000000  0.5244920000000  0.5593250000000 1.0
C      1  0.5514550000000  0.4966940000000  0.5499840000000 1.0
C      1  0.5385170000000  0.4728300000000  0.5608090000000 1.0
C      1  0.5163320000000  0.4567360000000  0.5493660000000 1.0
C      1  0.4866690000000  0.4569950000000  0.5546780000000 1.0
C      1  0.4695320000000  0.4795080000000  0.5623020000000 1.0
C      1  0.4567070000000  0.4977890000000  0.5442460000000 1.0
C      1  0.4548200000000  0.5263920000000  0.5501810000000 1.0
C      1  0.4772190000000  0.5431790000000  0.5555060000000 1.0
C      1  0.5025700000000  0.5312130000000  0.5590610000000 1.0
C      1  0.5273380000000  0.5427690000000  0.5512550000000 1.0
C      1  0.5199420000000  0.5223530000000  0.4284010000000 1.0
C      1  0.5446990000000  0.5066040000000  0.4157300000000 1.0
C      1  0.5465800000000  0.4769790000000  0.4113030000000 1.0
C      1  0.5234580000000  0.4555370000000  0.4077950000000 1.0
C      1  0.4996880000000  0.4355170000000  0.4025100000000 1.0
C      1  0.4709410000000  0.4426130000000  0.4031850000000 1.0
C      1  0.4602590000000  0.4737400000000  0.4012570000000 1.0
C      1  0.4413250000000  0.4999770000000  0.4067740000000 1.0
C      1  0.4488060000000  0.5291590000000  0.4037530000000 1.0
C      1  0.4738190000000  0.5470320000000  0.4071390000000 1.0
C      1  0.5034990000000  0.5460910000000  0.4144370000000 1.0
C      1  0.4794830000000  0.5541160000000  0.5959490000000 1.0
C      1  0.5130200000000  0.5518960000000  0.5940240000000 1.0
C      1  0.5441190000000  0.5403670000000  0.5979300000000 1.0
C      1  0.5604890000000  0.5125120000000  0.5978260000000 1.0
C      1  0.5551480000000  0.4798030000000  0.5986320000000 1.0
C      1  0.5354750000000  0.4519210000000  0.5970230000000 1.0
C      1  0.5027860000000  0.4465350000000  0.5920140000000 1.0
C      1  0.4687540000000  0.4503580000000  0.5928140000000 1.0
C      1  0.4444280000000  0.4721750000000  0.5949810000000 1.0
C      1  0.4458030000000  0.5042440000000  0.5874660000000 1.0
C      1  0.4527010000000  0.5357330000000  0.5932280000000 1.0
C      1  0.5046280000000  0.4227910000000  0.5711390000000 1.0
C      1  0.4581850000000  0.4292870000000  0.5728070000000 1.0
C      1  0.4222360000000  0.4607970000000  0.5745170000000 1.0
C      1  0.4220150000000  0.5071260000000  0.5679600000000 1.0
C      1  0.4328980000000  0.5520870000000  0.5751380000000 1.0
C      1  0.4722320000000  0.5786760000000  0.5774790000000 1.0
C      1  0.5188940000000  0.5762280000000  0.5751900000000 1.0
C      1  0.5621540000000  0.5590600000000  0.5800910000000 1.0
C      1  0.5849920000000  0.5177580000000  0.5794380000000 1.0
C      1  0.5772930000000  0.4715510000000  0.5769420000000 1.0
C      1  0.5499760000000  0.4330380000000  0.5761360000000 1.0
C      1  0.4778700000000  0.3978920000000  0.4514890000000 1.0
C      1  0.4427100000000  0.4335480000000  0.4599260000000 1.0
C      1  0.4186240000000  0.4784530000000  0.4613450000000 1.0
C      1  0.4073490000000  0.5276450000000  0.4558720000000 1.0
C      1  0.4345360000000  0.5706580000000  0.4549690000000 1.0
C      1  0.4821680000000  0.5885360000000  0.4599740000000 1.0
C      1  0.5307670000000  0.5741790000000  0.4697650000000 1.0
C      1  0.5684120000000  0.5369950000000  0.4719480000000 1.0
C      1  0.5811990000000  0.4876200000000  0.4660880000000 1.0
C      1  0.5646720000000  0.4385750000000  0.4627790000000 1.0
C      1  0.5278760000000  0.4045090000000  0.4538240000000 1.0
C      1  0.4523150000000  0.3843700000000  0.5249100000000 1.0
C      1  0.3951250000000  0.4290760000000  0.5240310000000 1.0
C      1  0.3733970000000  0.4981210000000  0.5237300000000 1.0
C      1  0.3922090000000  0.5686940000000  0.5259220000000 1.0
C      1  0.4455700000000  0.6172430000000  0.5312940000000 1.0
C      1  0.5168280000000  0.6292430000000  0.5350870000000 1.0
C      1  0.5838190000000  0.6023210000000  0.5359390000000 1.0
C      1  0.6256900000000  0.5422910000000  0.5347370000000 1.0
C      1  0.6270840000000  0.4693690000000  0.5339290000000 1.0
C      1  0.5886650000000  0.4090600000000  0.5290600000000 1.0
C      1  0.5238640000000  0.3780940000000  0.5255620000000 1.0
C      1  0.4507600000000  0.6181170000000  0.5020770000000 1.0
C      1  0.5216480000000  0.6286640000000  0.5056850000000 1.0
C      1  0.5857210000000  0.6008330000000  0.5062260000000 1.0
C      1  0.6270120000000  0.5401470000000  0.5051930000000 1.0
C      1  0.6274020000000  0.4663000000000  0.5042480000000 1.0
C      1  0.5868150000000  0.4105700000000  0.4998340000000 1.0
C      1  0.5209280000000  0.3792810000000  0.4960140000000 1.0
C      1  0.4511910000000  0.3879200000000  0.4954370000000 1.0
C      1  0.3967840000000  0.4343860000000  0.4948200000000 1.0
C      1  0.3768240000000  0.5013490000000  0.4943750000000 1.0
C      1  0.3969180000000  0.5720760000000  0.4968140000000 1.0
C      1  0.4550860000000  0.4137880000000  0.4427090000000 1.0
C      1  0.4333610000000  0.4578680000000  0.4472610000000 1.0
C      1  0.4081420000000  0.5003390000000  0.4458190000000 1.0
C      1  0.4190970000000  0.5499780000000  0.4413060000000 1.0
C      1  0.4590740000000  0.5813950000000  0.4435010000000 1.0
C      1  0.5094350000000  0.5830180000000  0.4512430000000 1.0
C      1  0.5488470000000  0.5541440000000  0.4588510000000 1.0
C      1  0.5778540000000  0.5143990000000  0.4552040000000 1.0
C      1  0.5765110000000  0.4630630000000  0.4508480000000 1.0
C      1  0.5469020000000  0.4241800000000  0.4445900000000 1.0
C      1  0.5039600000000  0.3987900000000  0.4385040000000 1.0
C      1  0.6020460000000  0.5836770000000  0.5474230000000 1.0
C      1  0.6298550000000  0.5166070000000  0.5463570000000 1.0
C      1  0.6165590000000  0.4456130000000  0.5455480000000 1.0
C      1  0.5672210000000  0.3937740000000  0.5393810000000 1.0
C      1  0.4985770000000  0.3755980000000  0.5382690000000 1.0
C      1  0.4290480000000  0.3954850000000  0.5369770000000 1.0
C      1  0.3825480000000  0.4515210000000  0.5362590000000 1.0
C      1  0.3750250000000  0.5237710000000  0.5360650000000 1.0
C      1  0.4068840000000  0.5883790000000  0.5402980000000 1.0
C      1  0.4692340000000  0.6249290000000  0.5451020000000 1.0
C      1  0.5411100000000  0.6233440000000  0.5487070000000 1.0
C      1  0.4494320000000  0.4987810000000  0.3572620000000 1.0
C      1  0.4566890000000  0.5262810000000  0.3626000000000 1.0
C      1  0.4814200000000  0.5387580000000  0.3542170000000 1.0
C      1  0.5032470000000  0.5456880000000  0.3719140000000 1.0
C      1  0.5308500000000  0.5379600000000  0.3679030000000 1.0
C      1  0.5405720000000  0.5106990000000  0.3681630000000 1.0
C      1  0.5284060000000  0.4886900000000  0.3538340000000 1.0
C      1  0.5225530000000  0.4627580000000  0.3652780000000 1.0
C      1  0.5005840000000  0.4457280000000  0.3572160000000 1.0
C      1  0.4730140000000  0.4542600000000  0.3550390000000 1.0
C      1  0.4609990000000  0.4756850000000  0.3705990000000 1.0
C      1  0.5415080000000  0.5818840000000  0.5159760000000 1.0
C      1  0.5792170000000  0.5499330000000  0.5123770000000 1.0
C      1  0.5920990000000  0.5020940000000  0.5109360000000 1.0
C      1  0.5769580000000  0.4541410000000  0.5121680000000 1.0
C      1  0.5383070000000  0.4250310000000  0.5060640000000 1.0
C      1  0.4889480000000  0.4178790000000  0.5074300000000 1.0
C      1  0.4437990000000  0.4374660000000  0.5072750000000 1.0
C      1  0.4186270000000  0.4797270000000  0.5079590000000 1.0
C      1  0.4191080000000  0.5290370000000  0.5050740000000 1.0
C      1  0.4471150000000  0.5697960000000  0.5098320000000 1.0
C      1  0.4926210000000  0.5894230000000  0.5119070000000 1.0
C      1  0.4354890000000  0.4598420000000  0.4176790000000 1.0
C      1  0.4145050000000  0.4962900000000  0.4177110000000 1.0
C      1  0.4254390000000  0.5453340000000  0.4130600000000 1.0
C      1  0.4643800000000  0.5740750000000  0.4157090000000 1.0
C      1  0.5120550000000  0.5733820000000  0.4234450000000 1.0
C      1  0.5410220000000  0.5446000000000  0.4332430000000 1.0
C      1  0.5709560000000  0.5159080000000  0.4266080000000 1.0
C      1  0.5715450000000  0.4660770000000  0.4222500000000 1.0
C      1  0.5441250000000  0.4339190000000  0.4170990000000 1.0
C      1  0.5047830000000  0.4077560000000  0.4106570000000 1.0
C      1  0.4537940000000  0.4219010000000  0.4146070000000 1.0
C      1  0.4363080000000  0.5887500000000  0.5384930000000 1.0
C      1  0.4940050000000  0.6093680000000  0.5413430000000 1.0
C      1  0.5543010000000  0.5975240000000  0.5438010000000 1.0
C      1  0.5985440000000  0.5547930000000  0.5424390000000 1.0
C      1  0.6108550000000  0.4946080000000  0.5408940000000 1.0
C      1  0.5887950000000  0.4377280000000  0.5396000000000 1.0
C      1  0.5396410000000  0.4029120000000  0.5346110000000 1.0
C      1  0.4787230000000  0.3969860000000  0.5346240000000 1.0
C      1  0.4239170000000  0.4243760000000  0.5343240000000 1.0
C      1  0.3948450000000  0.4781980000000  0.5337540000000 1.0
C      1  0.3997670000000  0.5397380000000  0.5335810000000 1.0
C      1  0.4875070000000  0.4885950000000  0.4432830000000 1.0
C      1  0.4979440000000  0.5066760000000  0.5040850000000 1.0
C      1  0.5038740000000  0.5030970000000  0.5570990000000 1.0
C      1  0.5018270000000  0.4984300000000  0.6088340000000 1.0
C      1  0.5154440000000  0.5106530000000  0.4800830000000 1.0
C      1  0.5063770000000  0.5083930000000  0.4515580000000 1.0
C      1  0.5055520000000  0.4918640000000  0.5290590000000 1.0
C      1  0.5055740000000  0.4874600000000  0.5823120000000 1.0
C      1  0.4859710000000  0.4796430000000  0.4161030000000 1.0
END
