TITL C-862505-1648-194 10.4576358334717 125000 -1190.69634169302 0 0 200 (C5) n - 1
REM
REM in /home/nfs/bkarasulu/CARBON/AIRSS/Generating-Clusters/TERSOFF/Higher-Symm/FIRE-HFTN
REM
REM
REM
REM
REM
REM ./C.cell (b20cbc046b6831c77cfcea5457e17084)
REM AIRSS Version 0.9.1 bugfix July 2018 build 013d7b7c2542+ Fri, 06 Jul 2018 19:26:36 +0100
REM compiler GCC version 9.2.1 20190827 (Red Hat 9.2.1-1)
REM options -cpp -mtune=generic -march=x86-64 -g -O0 -fpre-include=/usr/include/finclude/math-vector-fortran.h
REM seed 782208885 240039422 709031948 -2113344464 -1100811007 1291729793 -2096026808 -828971353 -1119136279 -1465131189 489631758 1576889430 -1489675128 -722984311 1388959491 181110030 -1390691941 -464151321 -1109698431 964755457 -1137256796 -1065970436 817528047 -1265200073 -633088185 -1286376705 616069802 -972002736 712796081 1147407458 1471165174 -967511661 1478731354
REM
CELL 1.54180   50.00000   50.00000   50.00000   90.00000   90.00000   90.00000
LATT -1
SFAC C  
C      1  0.5159410000000  0.5499080000000  0.6305830000000 1.0
C      1  0.5523920000000  0.5002620000000  0.6305830000000 1.0
C      1  0.5164400000000  0.4502540000000  0.6305830000000 1.0
C      1  0.4577690000000  0.4689930000000  0.6305830000000 1.0
C      1  0.4574610000000  0.5305830000000  0.6305840000000 1.0
C      1  0.4384960000000  0.4677070000000  0.4469200000000 1.0
C      1  0.4502810000000  0.5485150000000  0.4469200000000 1.0
C      1  0.5307750000000  0.5622770000000  0.4469200000000 1.0
C      1  0.5687390000000  0.4899760000000  0.4469190000000 1.0
C      1  0.5117070000000  0.4315280000000  0.4469190000000 1.0
C      1  0.5078110000000  0.5245050000000  0.6424680000000 1.0
C      1  0.5257200000000  0.5001440000000  0.6424680000000 1.0
C      1  0.5080850000000  0.4755840000000  0.6424680000000 1.0
C      1  0.4792780000000  0.4847660000000  0.6424680000000 1.0
C      1  0.4791090000000  0.5150010000000  0.6424680000000 1.0
C      1  0.5627180000000  0.5784520000000  0.4097150000000 1.0
C      1  0.5939950000000  0.4645900000000  0.4097150000000 1.0
C      1  0.4953640000000  0.3996600000000  0.4097150000000 1.0
C      1  0.4031390000000  0.4734020000000  0.4097160000000 1.0
C      1  0.4447690000000  0.5838950000000  0.4097160000000 1.0
C      1  0.4266920000000  0.4805960000000  0.4708470000000 1.0
C      1  0.4588910000000  0.5637240000000  0.4708470000000 1.0
C      1  0.5479010000000  0.5587890000000  0.4708470000000 1.0
C      1  0.5707130000000  0.4726100000000  0.4708460000000 1.0
C      1  0.4958020000000  0.4242850000000  0.4708460000000 1.0
C      1  0.4113480000000  0.5910380000000  0.4481040000000 1.0
C      1  0.5591870000000  0.6124460000000  0.4481040000000 1.0
C      1  0.6252310000000  0.4784580000000  0.4481030000000 1.0
C      1  0.5182100000000  0.3742410000000  0.4481030000000 1.0
C      1  0.3860230000000  0.4438200000000  0.4481040000000 1.0
C      1  0.6317280000000  0.5084270000000  0.5116970000000 1.0
C      1  0.5487200000000  0.3773230000000  0.5116970000000 1.0
C      1  0.3983820000000  0.4157560000000  0.5116980000000 1.0
C      1  0.3884770000000  0.5706110000000  0.5116980000000 1.0
C      1  0.5326930000000  0.6278850000000  0.5116980000000 1.0
C      1  0.5209830000000  0.4112420000000  0.4862740000000 1.0
C      1  0.4220700000000  0.4526170000000  0.4862750000000 1.0
C      1  0.4308540000000  0.5594740000000  0.4862750000000 1.0
C      1  0.5351950000000  0.5841410000000  0.4862750000000 1.0
C      1  0.5908980000000  0.4925290000000  0.4862740000000 1.0
C      1  0.4173380000000  0.5752740000000  0.5127450000000 1.0
C      1  0.5460450000000  0.6018780000000  0.5127450000000 1.0
C      1  0.6111200000000  0.4876900000000  0.5127440000000 1.0
C      1  0.5226300000000  0.3905150000000  0.5127440000000 1.0
C      1  0.4028670000000  0.4446450000000  0.5127450000000 1.0
C      1  0.4820120000000  0.4174090000000  0.5217840000000 1.0
C      1  0.4158920000000  0.4915860000000  0.5217840000000 1.0
C      1  0.4660070000000  0.5773910000000  0.5217840000000 1.0
C      1  0.5630990000000  0.5562450000000  0.5217840000000 1.0
C      1  0.5729910000000  0.4573710000000  0.5217830000000 1.0
C      1  0.5402880000000  0.5606890000000  0.4053490000000 1.0
C      1  0.5701810000000  0.4804390000000  0.4053030000000 1.0
C      1  0.5030950000000  0.4271900000000  0.4052300000000 1.0
C      1  0.4317110000000  0.4745560000000  0.4052340000000 1.0
C      1  0.4547180000000  0.5570740000000  0.4053090000000 1.0
C      1  0.5015760000000  0.5253550000000  0.4352730000000 1.0
C      1  0.5246000000000  0.5063360000000  0.4352730000000 1.0
C      1  0.5136270000000  0.4785620000000  0.4352730000000 1.0
C      1  0.4838210000000  0.4804150000000  0.4352730000000 1.0
C      1  0.4763730000000  0.5093350000000  0.4352730000000 1.0
C      1  0.5990570000000  0.5091220000000  0.5581270000000 1.0
C      1  0.5392860000000  0.4086100000000  0.5581270000000 1.0
C      1  0.4252230000000  0.4343960000000  0.5581280000000 1.0
C      1  0.4145000000000  0.5508450000000  0.5581280000000 1.0
C      1  0.5219360000000  0.5970280000000  0.5581280000000 1.0
C      1  0.4951410000000  0.5263050000000  0.4857010000000 1.0
C      1  0.5235150000000  0.5127500000000  0.4857010000000 1.0
C      1  0.5193920000000  0.4815760000000  0.4857010000000 1.0
C      1  0.4884700000000  0.4758640000000  0.4857010000000 1.0
C      1  0.4734820000000  0.5035080000000  0.4857010000000 1.0
C      1  0.4818990000000  0.3933810000000  0.5029280000000 1.0
C      1  0.3930050000000  0.4842690000000  0.5029290000000 1.0
C      1  0.4519750000000  0.5968970000000  0.5029290000000 1.0
C      1  0.5773140000000  0.5756180000000  0.5029280000000 1.0
C      1  0.5958070000000  0.4498380000000  0.5029280000000 1.0
C      1  0.5606570000000  0.6054520000000  0.4199410000000 1.0
C      1  0.6190340000000  0.4748980000000  0.4199400000000 1.0
C      1  0.5129090000000  0.3790360000000  0.4199410000000 1.0
C      1  0.3889440000000  0.4503430000000  0.4199410000000 1.0
C      1  0.4184540000000  0.5902750000000  0.4199420000000 1.0
C      1  0.5782950000000  0.4621210000000  0.5721510000000 1.0
C      1  0.4881690000000  0.4138320000000  0.5721520000000 1.0
C      1  0.4143940000000  0.4846250000000  0.5721520000000 1.0
C      1  0.4589240000000  0.5766660000000  0.5721520000000 1.0
C      1  0.5602200000000  0.5627570000000  0.5721520000000 1.0
C      1  0.5502290000000  0.5120320000000  0.4480830000000 1.0
C      1  0.5269640000000  0.4559480000000  0.4480830000000 1.0
C      1  0.4664350000000  0.4607430000000  0.4480830000000 1.0
C      1  0.4522920000000  0.5197910000000  0.4480830000000 1.0
C      1  0.5040790000000  0.5514890000000  0.4480830000000 1.0
C      1  0.5928040000000  0.5654840000000  0.4784100000000 1.0
C      1  0.5909570000000  0.4319740000000  0.4784090000000 1.0
C      1  0.4634100000000  0.3924740000000  0.4784100000000 1.0
C      1  0.3864290000000  0.5015720000000  0.4784100000000 1.0
C      1  0.4663990000000  0.6084980000000  0.4784100000000 1.0
C      1  0.5129590000000  0.6271060000000  0.4652100000000 1.0
C      1  0.6248890000000  0.5269540000000  0.4652090000000 1.0
C      1  0.5642270000000  0.3895530000000  0.4652090000000 1.0
C      1  0.4148050000000  0.4047870000000  0.4652090000000 1.0
C      1  0.3831200000000  0.5516030000000  0.4652100000000 1.0
C      1  0.3787170000000  0.5493960000000  0.4955370000000 1.0
C      1  0.5095000000000  0.6306120000000  0.4955370000000 1.0
C      1  0.6271540000000  0.5313270000000  0.4955360000000 1.0
C      1  0.5690860000000  0.3887500000000  0.4955360000000 1.0
C      1  0.4155430000000  0.3999180000000  0.4955370000000 1.0
C      1  0.4726350000000  0.5870210000000  0.5487810000000 1.0
C      1  0.5743050000000  0.5529160000000  0.5487800000000 1.0
C      1  0.5732880000000  0.4456840000000  0.5487800000000 1.0
C      1  0.4709890000000  0.4135150000000  0.5487800000000 1.0
C      1  0.4087830000000  0.5008660000000  0.5487810000000 1.0
C      1  0.4977910000000  0.5490650000000  0.5839470000000 1.0
C      1  0.5459820000000  0.5172630000000  0.5839460000000 1.0
C      1  0.5306270000000  0.4616040000000  0.5839460000000 1.0
C      1  0.4729480000000  0.4590070000000  0.5839460000000 1.0
C      1  0.4526540000000  0.5130610000000  0.5839470000000 1.0
C      1  0.5210360000000  0.4855630000000  0.3915150000000 1.0
C      1  0.4927720000000  0.4755330000000  0.3915200000000 1.0
C      1  0.4744990000000  0.4993140000000  0.3915300000000 1.0
C      1  0.4914690000000  0.5240420000000  0.3915310000000 1.0
C      1  0.5202300000000  0.5155430000000  0.3915220000000 1.0
C      1  0.4517590000000  0.4681970000000  0.6020080000000 1.0
C      1  0.4548460000000  0.5360520000000  0.6020080000000 1.0
C      1  0.5203350000000  0.5540850000000  0.6020080000000 1.0
C      1  0.5577220000000  0.4973740000000  0.6020080000000 1.0
C      1  0.5153400000000  0.4442920000000  0.6020080000000 1.0
C      1  0.4991630000000  0.5254170000000  0.5666880000000 1.0
C      1  0.5239140000000  0.5086510000000  0.5666880000000 1.0
C      1  0.5156170000000  0.4799300000000  0.5666880000000 1.0
C      1  0.4857380000000  0.4789460000000  0.5666880000000 1.0
C      1  0.4755690000000  0.5070580000000  0.5666880000000 1.0
C      1  0.5442040000000  0.4696630000000  0.3984570000000 1.0
C      1  0.4848120000000  0.4485860000000  0.3984680000000 1.0
C      1  0.4464140000000  0.4985580000000  0.3984890000000 1.0
C      1  0.4820740000000  0.5505190000000  0.3984910000000 1.0
C      1  0.5425110000000  0.5326620000000  0.3984710000000 1.0
C      1  0.4731890000000  0.4944500000000  0.5266970000000 1.0
C      1  0.4864370000000  0.5237840000000  0.5266970000000 1.0
C      1  0.5184280000000  0.5202490000000  0.5266970000000 1.0
C      1  0.5249530000000  0.4887310000000  0.5266970000000 1.0
C      1  0.4969930000000  0.4727870000000  0.5266970000000 1.0
C      1  0.3603300000000  0.4467240000000  0.4613620000000 1.0
C      1  0.4061710000000  0.6163720000000  0.4613630000000 1.0
C      1  0.5816800000000  0.6251980000000  0.4613620000000 1.0
C      1  0.6443100000000  0.4610060000000  0.4613610000000 1.0
C      1  0.5075080000000  0.3507030000000  0.4613610000000 1.0
C      1  0.5868040000000  0.6238440000000  0.4897430000000 1.0
C      1  0.6446060000000  0.4557150000000  0.4897420000000 1.0
C      1  0.5025680000000  0.3487870000000  0.4897420000000 1.0
C      1  0.3569810000000  0.4508310000000  0.4897440000000 1.0
C      1  0.4090420000000  0.6208260000000  0.4897440000000 1.0
C      1  0.5575690000000  0.4704000000000  0.5904400000000 1.0
C      1  0.4896380000000  0.4361020000000  0.5904410000000 1.0
C      1  0.4360270000000  0.4901090000000  0.5904410000000 1.0
C      1  0.4708250000000  0.5577860000000  0.5904410000000 1.0
C      1  0.5459420000000  0.5456040000000  0.5904410000000 1.0
C      1  0.6098740000000  0.5511560000000  0.4559620000000 1.0
C      1  0.5826040000000  0.4113120000000  0.4559620000000 1.0
C      1  0.4411780000000  0.3940330000000  0.4559630000000 1.0
C      1  0.3810410000000  0.5231980000000  0.4559630000000 1.0
C      1  0.4853010000000  0.6203050000000  0.4559630000000 1.0
C      1  0.5508480000000  0.4773880000000  0.5132100000000 1.0
C      1  0.4942080000000  0.4446530000000  0.5132100000000 1.0
C      1  0.4455720000000  0.4884060000000  0.5132100000000 1.0
C      1  0.4721540000000  0.5481820000000  0.5132100000000 1.0
C      1  0.5372180000000  0.5413720000000  0.5132100000000 1.0
C      1  0.5423190000000  0.4325820000000  0.4908760000000 1.0
C      1  0.4489590000000  0.4389190000000  0.4908760000000 1.0
C      1  0.4261350000000  0.5296680000000  0.4908770000000 1.0
C      1  0.5053900000000  0.5794180000000  0.4908770000000 1.0
C      1  0.5771960000000  0.5194150000000  0.4908760000000 1.0
C      1  0.5350600000000  0.6067720000000  0.4635710000000 1.0
C      1  0.6123790000000  0.4996510000000  0.4635700000000 1.0
C      1  0.5343940000000  0.3930130000000  0.4635700000000 1.0
C      1  0.4088770000000  0.4342290000000  0.4635710000000 1.0
C      1  0.4092880000000  0.5663390000000  0.4635710000000 1.0
C      1  0.5188000000000  0.4048110000000  0.5382870000000 1.0
C      1  0.4152800000000  0.4527050000000  0.5382870000000 1.0
C      1  0.4288400000000  0.5659590000000  0.5382880000000 1.0
C      1  0.5407410000000  0.5880600000000  0.5382870000000 1.0
C      1  0.5963400000000  0.4884650000000  0.5382860000000 1.0
C      1  0.5413990000000  0.4604770000000  0.4759460000000 1.0
C      1  0.4752040000000  0.4484140000000  0.4759460000000 1.0
C      1  0.4432760000000  0.5076420000000  0.4759460000000 1.0
C      1  0.4897390000000  0.5563090000000  0.4759460000000 1.0
C      1  0.5503820000000  0.5271600000000  0.4759460000000 1.0
C      1  0.4922020000000  0.6055180000000  0.4946530000000 1.0
C      1  0.5979440000000  0.5400230000000  0.4946520000000 1.0
C      1  0.5683300000000  0.4192180000000  0.4946520000000 1.0
C      1  0.4442870000000  0.4100520000000  0.4946520000000 1.0
C      1  0.3972370000000  0.5251910000000  0.4946530000000 1.0
C      1  0.5659800000000  0.4179350000000  0.5525600000000 1.0
C      1  0.4423410000000  0.4118900000000  0.5525610000000 1.0
C      1  0.3983850000000  0.5276100000000  0.5525610000000 1.0
C      1  0.4948580000000  0.6051740000000  0.5525610000000 1.0
C      1  0.5984380000000  0.5373910000000  0.5525600000000 1.0
C      1  0.6223390000000  0.4606570000000  0.5074840000000 1.0
C      1  0.5003870000000  0.3714910000000  0.5074840000000 1.0
C      1  0.3779000000000  0.4599210000000  0.5074850000000 1.0
C      1  0.4241510000000  0.6037390000000  0.5074850000000 1.0
C      1  0.5752230000000  0.6041940000000  0.5074840000000 1.0
END
