TITL C-862132-7359-65 1.6512177796059 125000 -851.96544717488 0 0 148 (Ci) n - 1
REM
REM in /home/nfs/bkarasulu/CARBON/AIRSS/Generating-Clusters/TERSOFF/Higher-Symm/FIRE-HFTN
REM
REM
REM
REM
REM
REM ./C.cell (b20cbc046b6831c77cfcea5457e17084)
REM AIRSS Version 0.9.1 bugfix July 2018 build 013d7b7c2542+ Fri, 06 Jul 2018 19:26:36 +0100
REM compiler GCC version 9.2.1 20190827 (Red Hat 9.2.1-1)
REM options -cpp -mtune=generic -march=x86-64 -g -O0 -fpre-include=/usr/include/finclude/math-vector-fortran.h
REM seed -344274756 -980201125 -1154836138 -1652221969 -394198012 2006221076 790447281 -1144067388 368747509 -2125572156 -1477958617 -1351952980 1670117080 1085217595 -1029437044 2108558735 1486100474 2033417266 1545943303 1033143079 -1900723976 1875524872 -1684473636 1576866129 134338825 257423945 102188138 -1903402199 -1384221576 -106082745 560858625 -1579297634 -2093717331
REM
CELL 1.54180   50.00000   50.00000   50.00000   90.00000   90.00000   90.00000
LATT -1
SFAC C  
C      1  0.5637640000000  0.5825660000000  0.5723690000000 1.0
C      1  0.5649400000000  0.4172030000000  0.4276440000000 1.0
C      1  0.4350600000000  0.5827970000000  0.5723560000000 1.0
C      1  0.4362360000000  0.4174340000000  0.4276310000000 1.0
C      1  0.5145130000000  0.4155090000000  0.5810570000000 1.0
C      1  0.5177140000000  0.5856340000000  0.4166160000000 1.0
C      1  0.4822860000000  0.4143660000000  0.5833840000000 1.0
C      1  0.4854870000000  0.5844910000000  0.4189430000000 1.0
C      1  0.5451270000000  0.4705540000000  0.5260620000000 1.0
C      1  0.5443750000000  0.5293520000000  0.4730030000000 1.0
C      1  0.4556250000000  0.4706480000000  0.5269970000000 1.0
C      1  0.4548730000000  0.5294460000000  0.4739380000000 1.0
C      1  0.4216350000000  0.5569370000000  0.5780750000000 1.0
C      1  0.4228830000000  0.4433610000000  0.4221090000000 1.0
C      1  0.5771170000000  0.5566390000000  0.5778910000000 1.0
C      1  0.5783650000000  0.4430630000000  0.4219250000000 1.0
C      1  0.4665820000000  0.4855440000000  0.5877260000000 1.0
C      1  0.4669130000000  0.5151910000000  0.4128080000000 1.0
C      1  0.5330870000000  0.4848090000000  0.5871920000000 1.0
C      1  0.5334180000000  0.5144560000000  0.4122740000000 1.0
C      1  0.5273170000000  0.5765730000000  0.4688630000000 1.0
C      1  0.5283230000000  0.4231790000000  0.5298640000000 1.0
C      1  0.4716770000000  0.5768210000000  0.4701360000000 1.0
C      1  0.4726830000000  0.4234270000000  0.5311370000000 1.0
C      1  0.4731380000000  0.5390120000000  0.3970580000000 1.0
C      1  0.4720460000000  0.4612440000000  0.6028310000000 1.0
C      1  0.5279540000000  0.5387560000000  0.3971690000000 1.0
C      1  0.5268620000000  0.4609880000000  0.6029420000000 1.0
C      1  0.4869870000000  0.6230180000000  0.5457560000000 1.0
C      1  0.4821450000000  0.3764410000000  0.4575860000000 1.0
C      1  0.5178550000000  0.6235590000000  0.5424140000000 1.0
C      1  0.5130130000000  0.3769820000000  0.4542440000000 1.0
C      1  0.5293770000000  0.5578370000000  0.5143790000000 1.0
C      1  0.5287390000000  0.4428280000000  0.4850440000000 1.0
C      1  0.4712610000000  0.5571720000000  0.5149560000000 1.0
C      1  0.4706230000000  0.4421630000000  0.4856210000000 1.0
C      1  0.5178140000000  0.5188960000000  0.4906990000000 1.0
C      1  0.5183100000000  0.4813170000000  0.5093340000000 1.0
C      1  0.4816900000000  0.5186830000000  0.4906660000000 1.0
C      1  0.4821860000000  0.4811040000000  0.5093010000000 1.0
C      1  0.4353470000000  0.5214450000000  0.5279140000000 1.0
C      1  0.4355560000000  0.4785950000000  0.4727130000000 1.0
C      1  0.5644440000000  0.5214050000000  0.5272870000000 1.0
C      1  0.5646530000000  0.4785550000000  0.4720860000000 1.0
C      1  0.5255370000000  0.4425550000000  0.4217440000000 1.0
C      1  0.5244570000000  0.5575580000000  0.5787450000000 1.0
C      1  0.4755430000000  0.4424420000000  0.4212550000000 1.0
C      1  0.4744630000000  0.5574450000000  0.5782560000000 1.0
C      1  0.4235700000000  0.4381860000000  0.5023130000000 1.0
C      1  0.4241930000000  0.5623830000000  0.4986770000000 1.0
C      1  0.5758070000000  0.4376170000000  0.5013230000000 1.0
C      1  0.5764300000000  0.5618140000000  0.4976870000000 1.0
C      1  0.4155730000000  0.4636460000000  0.4463460000000 1.0
C      1  0.4147780000000  0.5362360000000  0.5539330000000 1.0
C      1  0.5852220000000  0.4637640000000  0.4460670000000 1.0
C      1  0.5844270000000  0.5363540000000  0.5536540000000 1.0
C      1  0.4241810000000  0.5460270000000  0.6052570000000 1.0
C      1  0.4252040000000  0.4544620000000  0.3949770000000 1.0
C      1  0.5747960000000  0.5455380000000  0.6050230000000 1.0
C      1  0.5758190000000  0.4539730000000  0.3947430000000 1.0
C      1  0.5173770000000  0.6069220000000  0.5698550000000 1.0
C      1  0.5185660000000  0.3926540000000  0.4272640000000 1.0
C      1  0.4814340000000  0.6073460000000  0.5727360000000 1.0
C      1  0.4826230000000  0.3930780000000  0.4301450000000 1.0
C      1  0.5326470000000  0.5117860000000  0.5226350000000 1.0
C      1  0.5327390000000  0.4885980000000  0.4777160000000 1.0
C      1  0.4672610000000  0.5114020000000  0.5222840000000 1.0
C      1  0.4673530000000  0.4882140000000  0.4773650000000 1.0
C      1  0.6158210000000  0.5060700000000  0.4531070000000 1.0
C      1  0.6159800000000  0.4947260000000  0.5466980000000 1.0
C      1  0.3840200000000  0.5052740000000  0.4533020000000 1.0
C      1  0.3841790000000  0.4939300000000  0.5468930000000 1.0
C      1  0.5896700000000  0.4542470000000  0.5611240000000 1.0
C      1  0.5888230000000  0.5457800000000  0.4377410000000 1.0
C      1  0.4111770000000  0.4542200000000  0.5622590000000 1.0
C      1  0.4103300000000  0.5457530000000  0.4388760000000 1.0
C      1  0.5556700000000  0.5459700000000  0.5098710000000 1.0
C      1  0.5554330000000  0.4538240000000  0.4889550000000 1.0
C      1  0.4445670000000  0.5461760000000  0.5110450000000 1.0
C      1  0.4443300000000  0.4540300000000  0.4901290000000 1.0
C      1  0.4099790000000  0.5189310000000  0.4490530000000 1.0
C      1  0.4103670000000  0.4808470000000  0.5516140000000 1.0
C      1  0.5896330000000  0.5191530000000  0.4483860000000 1.0
C      1  0.5900210000000  0.4810690000000  0.5509470000000 1.0
C      1  0.6139170000000  0.5228980000000  0.5512410000000 1.0
C      1  0.6143930000000  0.4778090000000  0.4487850000000 1.0
C      1  0.3856070000000  0.5221910000000  0.5512150000000 1.0
C      1  0.3860830000000  0.4771020000000  0.4487590000000 1.0
C      1  0.3977430000000  0.5609230000000  0.5404470000000 1.0
C      1  0.3987660000000  0.4385430000000  0.4595160000000 1.0
C      1  0.6012340000000  0.5614570000000  0.5404840000000 1.0
C      1  0.6022570000000  0.4390770000000  0.4595530000000 1.0
C      1  0.4013740000000  0.5702840000000  0.5136000000000 1.0
C      1  0.4013470000000  0.4298460000000  0.4867290000000 1.0
C      1  0.5986530000000  0.5701540000000  0.5132710000000 1.0
C      1  0.5986260000000  0.4297160000000  0.4864000000000 1.0
C      1  0.4320120000000  0.4888920000000  0.5303320000000 1.0
C      1  0.4315050000000  0.5109890000000  0.4705110000000 1.0
C      1  0.5684950000000  0.4890110000000  0.5294890000000 1.0
C      1  0.5679880000000  0.5111080000000  0.4696680000000 1.0
C      1  0.5687880000000  0.4362350000000  0.5549470000000 1.0
C      1  0.5674060000000  0.5633830000000  0.4432380000000 1.0
C      1  0.4325940000000  0.4366170000000  0.5567630000000 1.0
C      1  0.4312120000000  0.5637650000000  0.4450530000000 1.0
C      1  0.5348990000000  0.5837220000000  0.5758160000000 1.0
C      1  0.5360510000000  0.4164880000000  0.4247440000000 1.0
C      1  0.4639490000000  0.5835120000000  0.5752560000000 1.0
C      1  0.4651010000000  0.4162790000000  0.4241840000000 1.0
C      1  0.4528420000000  0.5569700000000  0.4627570000000 1.0
C      1  0.4539970000000  0.4433350000000  0.5387520000000 1.0
C      1  0.5460030000000  0.5566650000000  0.4612480000000 1.0
C      1  0.5471580000000  0.4430300000000  0.5372430000000 1.0
C      1  0.5329940000000  0.4336400000000  0.5949040000000 1.0
C      1  0.5357600000000  0.5654930000000  0.4054040000000 1.0
C      1  0.4642400000000  0.4345070000000  0.5945960000000 1.0
C      1  0.4670060000000  0.5663600000000  0.4050960000000 1.0
C      1  0.5626040000000  0.4789380000000  0.3887240000000 1.0
C      1  0.5622170000000  0.5202180000000  0.6109740000000 1.0
C      1  0.4377830000000  0.4797820000000  0.3890260000000 1.0
C      1  0.4373960000000  0.5210620000000  0.6112760000000 1.0
C      1  0.4855810000000  0.4274280000000  0.5055000000000 1.0
C      1  0.4855200000000  0.5725170000000  0.4950860000000 1.0
C      1  0.5144800000000  0.4274830000000  0.5049140000000 1.0
C      1  0.5144190000000  0.5725720000000  0.4945000000000 1.0
C      1  0.4864460000000  0.4576820000000  0.4425440000000 1.0
C      1  0.4857440000000  0.5422810000000  0.5571810000000 1.0
C      1  0.5142560000000  0.4577190000000  0.4428190000000 1.0
C      1  0.5135540000000  0.5423180000000  0.5574560000000 1.0
C      1  0.4224870000000  0.4955790000000  0.4325200000000 1.0
C      1  0.4221350000000  0.5046600000000  0.5679610000000 1.0
C      1  0.5778650000000  0.4953400000000  0.4320390000000 1.0
C      1  0.5775130000000  0.5044210000000  0.5674800000000 1.0
C      1  0.5235290000000  0.5165080000000  0.5500780000000 1.0
C      1  0.5239720000000  0.4836330000000  0.4501150000000 1.0
C      1  0.4760280000000  0.5163670000000  0.5498850000000 1.0
C      1  0.4764710000000  0.4834920000000  0.4499220000000 1.0
C      1  0.4852030000000  0.5058110000000  0.4334810000000 1.0
C      1  0.4847160000000  0.4942400000000  0.5666140000000 1.0
C      1  0.5152840000000  0.5057600000000  0.4333860000000 1.0
C      1  0.5147970000000  0.4941890000000  0.5665190000000 1.0
C      1  0.4835840000000  0.5932400000000  0.4495770000000 1.0
C      1  0.4854910000000  0.4074670000000  0.5517900000000 1.0
C      1  0.5145090000000  0.5925330000000  0.4482100000000 1.0
C      1  0.5164160000000  0.4067600000000  0.5504230000000 1.0
C      1  0.4410190000000  0.4999150000000  0.4095560000000 1.0
C      1  0.4407880000000  0.5009020000000  0.5908270000000 1.0
C      1  0.5592120000000  0.4990980000000  0.4091730000000 1.0
C      1  0.5589810000000  0.5000850000000  0.5904440000000 1.0
END
