TITL C-862500-986-1467 0.00526748827949046 125000 -266.252488365331 0 0 51 (C1) n - 1
REM
REM in /home/nfs/bkarasulu/CARBON/AIRSS/Generating-Clusters/TERSOFF/Higher-Symm/FIRE-HFTN
REM
REM
REM
REM
REM
REM ./C.cell (b20cbc046b6831c77cfcea5457e17084)
REM AIRSS Version 0.9.1 bugfix July 2018 build 013d7b7c2542+ Fri, 06 Jul 2018 19:26:36 +0100
REM compiler GCC version 9.2.1 20190827 (Red Hat 9.2.1-1)
REM options -cpp -mtune=generic -march=x86-64 -g -O0 -fpre-include=/usr/include/finclude/math-vector-fortran.h
REM seed -932658686 -271638333 1363860978 64710704 -783448626 -1349087220 -1861007121 343702321 -114813202 -589209443 812848763 1099405288 -1350472078 267360799 -932675225 1051041 1521431353 506991830 995931254 -618001495 -1646394769 -1030833800 -7839059 73997549 -1519938277 -1297621957 -877340435 1352709295 -1525742760 35977508 756877534 -65704564 -456497606
REM
CELL 1.54180   50.00000   50.00000   50.00000   90.00000   90.00000   90.00000
LATT -1
SFAC C  
C      1  0.4927820000000  0.4684810000000  0.5311750000000 1.0
C      1  0.4923240000000  0.4602140000000  0.4785530000000 1.0
C      1  0.4924350000000  0.5060200000000  0.4611990000000 1.0
C      1  0.4919280000000  0.5451910000000  0.4954310000000 1.0
C      1  0.4932970000000  0.5196380000000  0.5409140000000 1.0
C      1  0.5124280000000  0.5247460000000  0.4981900000000 1.0
C      1  0.5138050000000  0.5107530000000  0.5236120000000 1.0
C      1  0.5140520000000  0.4819940000000  0.5185000000000 1.0
C      1  0.5131980000000  0.4772840000000  0.4895440000000 1.0
C      1  0.5150770000000  0.5037030000000  0.4777380000000 1.0
C      1  0.4910320000000  0.5578000000000  0.5582920000000 1.0
C      1  0.4903790000000  0.4661140000000  0.5730330000000 1.0
C      1  0.4933470000000  0.4197960000000  0.4898520000000 1.0
C      1  0.4841520000000  0.4897720000000  0.4233710000000 1.0
C      1  0.4918220000000  0.5712300000000  0.4625070000000 1.0
C      1  0.5461100000000  0.5075860000000  0.4712550000000 1.0
C      1  0.5449740000000  0.5301400000000  0.4993160000000 1.0
C      1  0.5457620000000  0.5107280000000  0.5296340000000 1.0
C      1  0.5458580000000  0.4758830000000  0.5205050000000 1.0
C      1  0.5456040000000  0.4741110000000  0.4845150000000 1.0
C      1  0.4683610000000  0.5094330000000  0.4772550000000 1.0
C      1  0.4636140000000  0.5393770000000  0.4844640000000 1.0
C      1  0.4651860000000  0.5233090000000  0.5295930000000 1.0
C      1  0.4661720000000  0.4724580000000  0.5180840000000 1.0
C      1  0.4650640000000  0.4580700000000  0.4910690000000 1.0
C      1  0.4960540000000  0.5188190000000  0.4349200000000 1.0
C      1  0.5011140000000  0.5736850000000  0.4972580000000 1.0
C      1  0.5000770000000  0.5263800000000  0.5689140000000 1.0
C      1  0.4993350000000  0.4441830000000  0.5471080000000 1.0
C      1  0.5013430000000  0.4384550000000  0.4600760000000 1.0
C      1  0.4811830000000  0.5468320000000  0.4447940000000 1.0
C      1  0.4846830000000  0.5693470000000  0.5290020000000 1.0
C      1  0.4828450000000  0.4971670000000  0.5748200000000 1.0
C      1  0.4836150000000  0.4294360000000  0.5187210000000 1.0
C      1  0.4840640000000  0.4604460000000  0.4373790000000 1.0
C      1  0.5304950000000  0.4357820000000  0.4542170000000 1.0
C      1  0.5246880000000  0.5229850000000  0.4266610000000 1.0
C      1  0.5303430000000  0.5791790000000  0.4998190000000 1.0
C      1  0.5290580000000  0.5252450000000  0.5760890000000 1.0
C      1  0.5283340000000  0.4368770000000  0.5492020000000 1.0
C      1  0.4343350000000  0.4843300000000  0.5198200000000 1.0
C      1  0.4369210000000  0.4743510000000  0.4880360000000 1.0
C      1  0.4383680000000  0.4998820000000  0.4719580000000 1.0
C      1  0.4334060000000  0.5264060000000  0.4930540000000 1.0
C      1  0.4345090000000  0.5151890000000  0.5218560000000 1.0
C      1  0.5509590000000  0.5587100000000  0.4986180000000 1.0
C      1  0.5505280000000  0.5203110000000  0.5569570000000 1.0
C      1  0.5501540000000  0.4528140000000  0.5381450000000 1.0
C      1  0.5512900000000  0.4507220000000  0.4679650000000 1.0
C      1  0.5479430000000  0.5160920000000  0.4430920000000 1.0
C      1  0.4715630000000  0.5016680000000  0.5075470000000 1.0
END
