TITL C-862502-1143-972 1.06479385652709e-05 125000 -315.491179119282 0 0 56 (S4) n - 1
REM
REM in /home/nfs/bkarasulu/CARBON/AIRSS/Generating-Clusters/TERSOFF/Higher-Symm/FIRE-HFTN
REM
REM
REM
REM
REM
REM ./C.cell (b20cbc046b6831c77cfcea5457e17084)
REM AIRSS Version 0.9.1 bugfix July 2018 build 013d7b7c2542+ Fri, 06 Jul 2018 19:26:36 +0100
REM compiler GCC version 9.2.1 20190827 (Red Hat 9.2.1-1)
REM options -cpp -mtune=generic -march=x86-64 -g -O0 -fpre-include=/usr/include/finclude/math-vector-fortran.h
REM seed 197377502 1310316844 -1649915891 -130109967 675625537 945479109 727217174 1568736194 1744905559 -506580953 1797491346 1421911201 1074255621 -1851144018 -1923546282 1634806896 1552623950 306354024 1136712235 2054885436 332411023 -527183736 1324339579 687060441 1333880572 -1752044551 -1135727579 -181362582 2092745959 -311955157 374384656 1859109540 247809987
REM
CELL 1.54180   50.00000   50.00000   50.00000   90.00000   90.00000   90.00000
LATT -1
SFAC C  
C      1  0.4895070000000  0.4319040000000  0.5249990000000 1.0
C      1  0.5104930000000  0.4750010000000  0.4319040000000 1.0
C      1  0.4895070000000  0.5680960000000  0.4750010000000 1.0
C      1  0.5104930000000  0.5249990000000  0.5680960000000 1.0
C      1  0.5630740000000  0.4858580000000  0.5326570000000 1.0
C      1  0.4369260000000  0.4673430000000  0.4858580000000 1.0
C      1  0.5630740000000  0.5141420000000  0.4673430000000 1.0
C      1  0.4369260000000  0.5326570000000  0.5141420000000 1.0
C      1  0.5224930000000  0.4399760000000  0.4868840000000 1.0
C      1  0.4775070000000  0.5131160000000  0.4399760000000 1.0
C      1  0.5224930000000  0.5600240000000  0.5131160000000 1.0
C      1  0.4775070000000  0.4868840000000  0.5600240000000 1.0
C      1  0.5471820000000  0.4665970000000  0.5153180000000 1.0
C      1  0.4528180000000  0.4846820000000  0.4665970000000 1.0
C      1  0.5471820000000  0.5334030000000  0.4846820000000 1.0
C      1  0.4528180000000  0.5153180000000  0.5334030000000 1.0
C      1  0.5279560000000  0.4819270000000  0.4545280000000 1.0
C      1  0.4720440000000  0.5454720000000  0.4819270000000 1.0
C      1  0.5279560000000  0.5180730000000  0.5454720000000 1.0
C      1  0.4720440000000  0.4545280000000  0.5180730000000 1.0
C      1  0.5077010000000  0.4796410000000  0.4792490000000 1.0
C      1  0.4922990000000  0.5207510000000  0.4796410000000 1.0
C      1  0.5077010000000  0.5203590000000  0.5207510000000 1.0
C      1  0.4922990000000  0.4792490000000  0.5203590000000 1.0
C      1  0.5672680000000  0.5070620000000  0.5137080000000 1.0
C      1  0.4327320000000  0.4862920000000  0.5070620000000 1.0
C      1  0.5672680000000  0.4929380000000  0.4862920000000 1.0
C      1  0.4327320000000  0.5137080000000  0.4929380000000 1.0
C      1  0.4749390000000  0.4445090000000  0.4664350000000 1.0
C      1  0.5250610000000  0.5335650000000  0.4445090000000 1.0
C      1  0.4749390000000  0.5554910000000  0.5335650000000 1.0
C      1  0.5250610000000  0.4664350000000  0.5554910000000 1.0
C      1  0.5169450000000  0.5675750000000  0.4839840000000 1.0
C      1  0.4830550000000  0.5160160000000  0.5675750000000 1.0
C      1  0.5169450000000  0.4324250000000  0.5160160000000 1.0
C      1  0.4830550000000  0.4839840000000  0.4324250000000 1.0
C      1  0.5412420000000  0.5082420000000  0.4483190000000 1.0
C      1  0.4587580000000  0.5516810000000  0.5082420000000 1.0
C      1  0.5412420000000  0.4917580000000  0.5516810000000 1.0
C      1  0.4587580000000  0.4483190000000  0.4917580000000 1.0
C      1  0.4790710000000  0.4935570000000  0.4828240000000 1.0
C      1  0.5209290000000  0.5171760000000  0.4935570000000 1.0
C      1  0.4790710000000  0.5064430000000  0.5171760000000 1.0
C      1  0.5209290000000  0.4828240000000  0.5064430000000 1.0
C      1  0.5022060000000  0.4338880000000  0.4665180000000 1.0
C      1  0.4977940000000  0.5334820000000  0.4338880000000 1.0
C      1  0.5022060000000  0.5661120000000  0.5334820000000 1.0
C      1  0.4977940000000  0.4665180000000  0.5661120000000 1.0
C      1  0.5348840000000  0.4462960000000  0.5340820000000 1.0
C      1  0.4651160000000  0.4659180000000  0.4462960000000 1.0
C      1  0.5348840000000  0.5537040000000  0.4659180000000 1.0
C      1  0.4651160000000  0.5340820000000  0.5537040000000 1.0
C      1  0.5470330000000  0.5361190000000  0.5204340000000 1.0
C      1  0.4529670000000  0.4795660000000  0.5361190000000 1.0
C      1  0.5470330000000  0.4638810000000  0.4795660000000 1.0
C      1  0.4529670000000  0.5204340000000  0.4638810000000 1.0
END
