TITL C-862506-1665-897 -0.00450003692678561 125000 -636.75853260869 0 0 121 (C1) n - 1
REM
REM in /home/nfs/bkarasulu/CARBON/AIRSS/Generating-Clusters/TERSOFF/Higher-Symm/FIRE-HFTN
REM
REM
REM
REM
REM
REM ./C.cell (b20cbc046b6831c77cfcea5457e17084)
REM AIRSS Version 0.9.1 bugfix July 2018 build 013d7b7c2542+ Fri, 06 Jul 2018 19:26:36 +0100
REM compiler GCC version 9.2.1 20190827 (Red Hat 9.2.1-1)
REM options -cpp -mtune=generic -march=x86-64 -g -O0 -fpre-include=/usr/include/finclude/math-vector-fortran.h
REM seed -1484460280 1658020838 1267610115 702270406 -1101520039 -144049332 909874579 -1750268441 1145058567 1246988678 436712729 -1978692858 -1070774062 2171224 1733136226 -237733108 -1595926066 1920247830 -1709052573 -198351157 -123195740 586072335 -1233625199 897530682 -2107644878 -804826673 -319483678 -364717236 334816016 745779790 -1644673277 1678818830 -1290753274
REM
CELL 1.54180   50.00000   50.00000   50.00000   90.00000   90.00000   90.00000
LATT -1
SFAC C  
C      1  0.5288900000000  0.4203690000000  0.5276310000000 1.0
C      1  0.4149060000000  0.5289150000000  0.5292360000000 1.0
C      1  0.5278080000000  0.5296410000000  0.4255570000000 1.0
C      1  0.4677000000000  0.5769680000000  0.5287020000000 1.0
C      1  0.5263570000000  0.5792800000000  0.4741760000000 1.0
C      1  0.4711080000000  0.4261520000000  0.4723780000000 1.0
C      1  0.5794120000000  0.4721670000000  0.5295330000000 1.0
C      1  0.4206640000000  0.4744270000000  0.4706690000000 1.0
C      1  0.5765420000000  0.5256780000000  0.4702300000000 1.0
C      1  0.4736200000000  0.4723380000000  0.4227130000000 1.0
C      1  0.5276280000000  0.4721490000000  0.5756200000000 1.0
C      1  0.4733670000000  0.5305290000000  0.5746190000000 1.0
C      1  0.5105060000000  0.4740200000000  0.5373530000000 1.0
C      1  0.4787130000000  0.5281710000000  0.5147720000000 1.0
C      1  0.5309520000000  0.4943670000000  0.4829380000000 1.0
C      1  0.5025010000000  0.5126150000000  0.5205320000000 1.0
C      1  0.5158850000000  0.5183490000000  0.4679520000000 1.0
C      1  0.4946700000000  0.4702190000000  0.4589690000000 1.0
C      1  0.5289310000000  0.4584090000000  0.5100630000000 1.0
C      1  0.4855340000000  0.4753570000000  0.4895820000000 1.0
C      1  0.5212460000000  0.5408710000000  0.4901550000000 1.0
C      1  0.4582380000000  0.4911140000000  0.4791660000000 1.0
C      1  0.5414710000000  0.4890180000000  0.5236320000000 1.0
C      1  0.4540690000000  0.5140810000000  0.5269350000000 1.0
C      1  0.5572880000000  0.4249400000000  0.5083380000000 1.0
C      1  0.4239980000000  0.5083120000000  0.5563990000000 1.0
C      1  0.5090360000000  0.5567460000000  0.4273350000000 1.0
C      1  0.4400460000000  0.5740910000000  0.5097200000000 1.0
C      1  0.5542610000000  0.5735930000000  0.4932270000000 1.0
C      1  0.4433530000000  0.4284600000000  0.4915140000000 1.0
C      1  0.5758800000000  0.4923980000000  0.5563840000000 1.0
C      1  0.4253560000000  0.4934680000000  0.4437150000000 1.0
C      1  0.5757460000000  0.5059530000000  0.4430440000000 1.0
C      1  0.4933580000000  0.4447750000000  0.4250320000000 1.0
C      1  0.5080970000000  0.4449240000000  0.5730230000000 1.0
C      1  0.4919340000000  0.5579290000000  0.5747780000000 1.0
C      1  0.5431790000000  0.5959270000000  0.5165950000000 1.0
C      1  0.5963520000000  0.5167610000000  0.5453260000000 1.0
C      1  0.5170640000000  0.5468140000000  0.5942980000000 1.0
C      1  0.4530170000000  0.4074060000000  0.5153630000000 1.0
C      1  0.5458880000000  0.4036780000000  0.4835230000000 1.0
C      1  0.4497020000000  0.5927940000000  0.4830930000000 1.0
C      1  0.4021020000000  0.4835250000000  0.5466940000000 1.0
C      1  0.5984800000000  0.4826480000000  0.4543260000000 1.0
C      1  0.4035660000000  0.5182830000000  0.4518110000000 1.0
C      1  0.4850550000000  0.4560070000000  0.5946960000000 1.0
C      1  0.5167130000000  0.4553940000000  0.4029640000000 1.0
C      1  0.4847760000000  0.5472200000000  0.4069750000000 1.0
C      1  0.5540420000000  0.5147190000000  0.5114000000000 1.0
C      1  0.5181130000000  0.5138840000000  0.5479000000000 1.0
C      1  0.5120540000000  0.5537810000000  0.5171930000000 1.0
C      1  0.4402420000000  0.4877150000000  0.5168860000000 1.0
C      1  0.5563370000000  0.4772010000000  0.4843890000000 1.0
C      1  0.4421250000000  0.5169410000000  0.4868070000000 1.0
C      1  0.4848140000000  0.4883810000000  0.5498970000000 1.0
C      1  0.5180390000000  0.4831950000000  0.4446440000000 1.0
C      1  0.4876170000000  0.5110800000000  0.4522890000000 1.0
C      1  0.4862960000000  0.4506820000000  0.5122850000000 1.0
C      1  0.5175990000000  0.4462370000000  0.4846560000000 1.0
C      1  0.4804670000000  0.5507500000000  0.4898060000000 1.0
C      1  0.4705610000000  0.5208070000000  0.4085730000000 1.0
C      1  0.5194840000000  0.4068120000000  0.4680820000000 1.0
C      1  0.4029750000000  0.4686050000000  0.5197930000000 1.0
C      1  0.5320420000000  0.4817100000000  0.4051090000000 1.0
C      1  0.4704440000000  0.4825540000000  0.5924010000000 1.0
C      1  0.5321560000000  0.5209380000000  0.5899670000000 1.0
C      1  0.4763900000000  0.5904880000000  0.4691970000000 1.0
C      1  0.5172020000000  0.5932920000000  0.5326130000000 1.0
C      1  0.4788860000000  0.4095050000000  0.5307120000000 1.0
C      1  0.5935630000000  0.5309280000000  0.5187010000000 1.0
C      1  0.4034850000000  0.5336880000000  0.4783440000000 1.0
C      1  0.5972160000000  0.4680450000000  0.4814810000000 1.0
C      1  0.4987460000000  0.5794120000000  0.4867020000000 1.0
C      1  0.5807160000000  0.4837230000000  0.5018430000000 1.0
C      1  0.4859250000000  0.5036500000000  0.5767400000000 1.0
C      1  0.4980260000000  0.4216250000000  0.4843720000000 1.0
C      1  0.5018330000000  0.4213560000000  0.5145820000000 1.0
C      1  0.4946370000000  0.5795650000000  0.5168450000000 1.0
C      1  0.4141600000000  0.5169270000000  0.5017620000000 1.0
C      1  0.5805290000000  0.5136160000000  0.4972420000000 1.0
C      1  0.4152230000000  0.4865620000000  0.4975780000000 1.0
C      1  0.5158270000000  0.4996860000000  0.5757990000000 1.0
C      1  0.4860520000000  0.4994160000000  0.4227920000000 1.0
C      1  0.5156720000000  0.5028270000000  0.4208770000000 1.0
C      1  0.4223510000000  0.4415820000000  0.5177140000000 1.0
C      1  0.4426710000000  0.5180240000000  0.4236570000000 1.0
C      1  0.5193240000000  0.4251800000000  0.4403470000000 1.0
C      1  0.5776340000000  0.5595810000000  0.5170400000000 1.0
C      1  0.4222670000000  0.5610550000000  0.4811100000000 1.0
C      1  0.5812270000000  0.4375540000000  0.4844580000000 1.0
C      1  0.5610450000000  0.4825240000000  0.4198890000000 1.0
C      1  0.4413180000000  0.4841350000000  0.5769770000000 1.0
C      1  0.5609340000000  0.5199730000000  0.5742490000000 1.0
C      1  0.4803710000000  0.5721950000000  0.4426750000000 1.0
C      1  0.5180520000000  0.5757630000000  0.5600150000000 1.0
C      1  0.4805650000000  0.4284820000000  0.5568860000000 1.0
C      1  0.4718690000000  0.4502420000000  0.5380000000000 1.0
C      1  0.4439930000000  0.5418380000000  0.4711400000000 1.0
C      1  0.5454020000000  0.4722030000000  0.4441630000000 1.0
C      1  0.5288020000000  0.5539640000000  0.5414910000000 1.0
C      1  0.4729410000000  0.5495800000000  0.4603810000000 1.0
C      1  0.5313490000000  0.4459780000000  0.4588450000000 1.0
C      1  0.5616050000000  0.4527800000000  0.4654580000000 1.0
C      1  0.4431090000000  0.4609700000000  0.5293270000000 1.0
C      1  0.5534250000000  0.5422910000000  0.5233660000000 1.0
C      1  0.4588880000000  0.5231360000000  0.4488320000000 1.0
C      1  0.5442840000000  0.5272620000000  0.5502730000000 1.0
C      1  0.4581850000000  0.4756410000000  0.5528720000000 1.0
C      1  0.4676050000000  0.5723230000000  0.5581180000000 1.0
C      1  0.5690670000000  0.5551700000000  0.4686410000000 1.0
C      1  0.5573870000000  0.4704670000000  0.5725330000000 1.0
C      1  0.5292800000000  0.4256460000000  0.5572280000000 1.0
C      1  0.4699200000000  0.4303740000000  0.4428280000000 1.0
C      1  0.5276050000000  0.5763690000000  0.4445460000000 1.0
C      1  0.4259210000000  0.4450060000000  0.4696220000000 1.0
C      1  0.5732480000000  0.4427550000000  0.5315440000000 1.0
C      1  0.4204050000000  0.5583390000000  0.5301200000000 1.0
C      1  0.4433830000000  0.5321510000000  0.5702320000000 1.0
C      1  0.5574340000000  0.5307560000000  0.4301580000000 1.0
C      1  0.4436860000000  0.4708670000000  0.4268320000000 1.0
C      1  0.5070480000000  0.4926710000000  0.4999470000000 1.0
END
