TITL C-862130-1496-1316 11.0362014885994 125000 -1083.51887641955 0 0 179 (C1) n - 1
REM
REM in /home/nfs/bkarasulu/CARBON/AIRSS/Generating-Clusters/TERSOFF/Higher-Symm/FIRE-HFTN
REM
REM
REM
REM
REM
REM ./C.cell (b20cbc046b6831c77cfcea5457e17084)
REM AIRSS Version 0.9.1 bugfix July 2018 build 013d7b7c2542+ Fri, 06 Jul 2018 19:26:36 +0100
REM compiler GCC version 9.2.1 20190827 (Red Hat 9.2.1-1)
REM options -cpp -mtune=generic -march=x86-64 -g -O0 -fpre-include=/usr/include/finclude/math-vector-fortran.h
REM seed 784011339 413741093 1724811921 -309158064 1112977238 516431864 -1386468692 1351004229 -1643554746 1339985969 1978138769 1871825127 566997091 -280110098 1968249464 -540841091 475871691 398528441 589645879 2131966459 -1856805951 -1154551872 -1071231092 -1270920691 -1492899612 645991742 903608459 -70514195 -1408047451 1313331195 -1320908738 577698448 -1746538233
REM
CELL 1.54180   50.00000   50.00000   50.00000   90.00000   90.00000   90.00000
LATT -1
SFAC C  
C      1  0.4500420000000  0.6000090000000  0.4889170000000 1.0
C      1  0.5940850000000  0.4919480000000  0.5957410000000 1.0
C      1  0.5781310000000  0.4448840000000  0.4607010000000 1.0
C      1  0.5445170000000  0.5686000000000  0.4980390000000 1.0
C      1  0.6301410000000  0.4635260000000  0.5113770000000 1.0
C      1  0.5677450000000  0.3862350000000  0.5399160000000 1.0
C      1  0.4736480000000  0.3961330000000  0.4457700000000 1.0
C      1  0.4177670000000  0.4479180000000  0.5449600000000 1.0
C      1  0.3950890000000  0.5253570000000  0.5358160000000 1.0
C      1  0.5573850000000  0.5220260000000  0.5906120000000 1.0
C      1  0.3685840000000  0.5294730000000  0.5497520000000 1.0
C      1  0.4197080000000  0.4524100000000  0.4229430000000 1.0
C      1  0.4625440000000  0.5767950000000  0.4179900000000 1.0
C      1  0.5709110000000  0.4643600000000  0.4382440000000 1.0
C      1  0.3963540000000  0.4630610000000  0.4385980000000 1.0
C      1  0.4925590000000  0.5999260000000  0.4528650000000 1.0
C      1  0.5627310000000  0.4369700000000  0.4858420000000 1.0
C      1  0.4551800000000  0.4073140000000  0.5206470000000 1.0
C      1  0.4656250000000  0.5662130000000  0.5847380000000 1.0
C      1  0.4399370000000  0.5079820000000  0.3996730000000 1.0
C      1  0.4724350000000  0.4289720000000  0.5105810000000 1.0
C      1  0.4417630000000  0.5267000000000  0.4498260000000 1.0
C      1  0.6250840000000  0.4841230000000  0.4909080000000 1.0
C      1  0.6116120000000  0.5087230000000  0.4985260000000 1.0
C      1  0.3968510000000  0.5159530000000  0.4320730000000 1.0
C      1  0.5726620000000  0.4460720000000  0.5341990000000 1.0
C      1  0.4982820000000  0.3941140000000  0.4613120000000 1.0
C      1  0.4821660000000  0.5523600000000  0.4743700000000 1.0
C      1  0.4377930000000  0.4767940000000  0.5888350000000 1.0
C      1  0.5408990000000  0.6020720000000  0.4355580000000 1.0
C      1  0.6092040000000  0.5495800000000  0.4508600000000 1.0
C      1  0.4634750000000  0.5952850000000  0.5443400000000 1.0
C      1  0.4753560000000  0.5350730000000  0.3884140000000 1.0
C      1  0.3961690000000  0.4941470000000  0.5291830000000 1.0
C      1  0.4282400000000  0.5016500000000  0.5028890000000 1.0
C      1  0.3930240000000  0.4400150000000  0.4823910000000 1.0
C      1  0.4512700000000  0.4089800000000  0.5517090000000 1.0
C      1  0.3859920000000  0.4963120000000  0.4768100000000 1.0
C      1  0.5521330000000  0.4591800000000  0.4121580000000 1.0
C      1  0.5306610000000  0.5156500000000  0.3720300000000 1.0
C      1  0.4186680000000  0.5556260000000  0.5728300000000 1.0
C      1  0.4628230000000  0.5088250000000  0.5360570000000 1.0
C      1  0.4373260000000  0.5856180000000  0.5353270000000 1.0
C      1  0.5125480000000  0.5670840000000  0.4184390000000 1.0
C      1  0.6277180000000  0.5478960000000  0.5239790000000 1.0
C      1  0.4499300000000  0.4512180000000  0.4335220000000 1.0
C      1  0.5394930000000  0.5751060000000  0.4254280000000 1.0
C      1  0.5841670000000  0.5650580000000  0.4494980000000 1.0
C      1  0.5775280000000  0.5115720000000  0.5357170000000 1.0
C      1  0.5344170000000  0.4762400000000  0.4552370000000 1.0
C      1  0.5851760000000  0.5071590000000  0.5083490000000 1.0
C      1  0.4022780000000  0.4871650000000  0.4991140000000 1.0
C      1  0.4902890000000  0.5587830000000  0.6018340000000 1.0
C      1  0.4951030000000  0.5485410000000  0.5479950000000 1.0
C      1  0.4724440000000  0.4096880000000  0.4194130000000 1.0
C      1  0.5574560000000  0.4445360000000  0.5599040000000 1.0
C      1  0.4852410000000  0.4274520000000  0.4832760000000 1.0
C      1  0.5145800000000  0.5279560000000  0.5584180000000 1.0
C      1  0.4555010000000  0.5530580000000  0.4024870000000 1.0
C      1  0.6208380000000  0.5360320000000  0.5496780000000 1.0
C      1  0.6245820000000  0.5347140000000  0.4983200000000 1.0
C      1  0.4904410000000  0.5835760000000  0.4264760000000 1.0
C      1  0.4834410000000  0.5174680000000  0.5159110000000 1.0
C      1  0.4852240000000  0.4599700000000  0.5532750000000 1.0
C      1  0.5299730000000  0.5242400000000  0.4009400000000 1.0
C      1  0.5013080000000  0.4434360000000  0.5987120000000 1.0
C      1  0.4550790000000  0.4376930000000  0.4655970000000 1.0
C      1  0.5000710000000  0.5653140000000  0.5235960000000 1.0
C      1  0.4938120000000  0.4997820000000  0.4426410000000 1.0
C      1  0.5596570000000  0.5529500000000  0.4338840000000 1.0
C      1  0.5296760000000  0.5704500000000  0.5231850000000 1.0
C      1  0.4951300000000  0.3987590000000  0.5797270000000 1.0
C      1  0.4996360000000  0.4701930000000  0.4792750000000 1.0
C      1  0.5189260000000  0.4336470000000  0.4401740000000 1.0
C      1  0.4552300000000  0.4875390000000  0.4739760000000 1.0
C      1  0.4609530000000  0.5974020000000  0.4618330000000 1.0
C      1  0.5365800000000  0.6138210000000  0.4817310000000 1.0
C      1  0.4414580000000  0.4987270000000  0.4524810000000 1.0
C      1  0.4083300000000  0.5122830000000  0.5797100000000 1.0
C      1  0.3950800000000  0.5451820000000  0.5114570000000 1.0
C      1  0.4354460000000  0.4007960000000  0.4997550000000 1.0
C      1  0.5861990000000  0.4899220000000  0.4336180000000 1.0
C      1  0.4805790000000  0.4105050000000  0.5574140000000 1.0
C      1  0.5314630000000  0.6352230000000  0.5006050000000 1.0
C      1  0.4482530000000  0.4493330000000  0.5854200000000 1.0
C      1  0.4843910000000  0.5454380000000  0.5045720000000 1.0
C      1  0.4489990000000  0.4814510000000  0.4308410000000 1.0
C      1  0.4364750000000  0.4136350000000  0.4729540000000 1.0
C      1  0.4689160000000  0.5051860000000  0.3897870000000 1.0
C      1  0.5449720000000  0.3972580000000  0.4616220000000 1.0
C      1  0.5624430000000  0.4814410000000  0.3912800000000 1.0
C      1  0.5415150000000  0.3992780000000  0.5416660000000 1.0
C      1  0.4738720000000  0.4993720000000  0.5623440000000 1.0
C      1  0.4887740000000  0.4809630000000  0.3871850000000 1.0
C      1  0.4116260000000  0.4584340000000  0.4951340000000 1.0
C      1  0.5078210000000  0.5396140000000  0.4145110000000 1.0
C      1  0.4936410000000  0.4557950000000  0.4044190000000 1.0
C      1  0.5366740000000  0.5674410000000  0.5751090000000 1.0
C      1  0.5567630000000  0.5925370000000  0.4868210000000 1.0
C      1  0.4702800000000  0.4389670000000  0.4156530000000 1.0
C      1  0.5869940000000  0.5181370000000  0.5833860000000 1.0
C      1  0.5422460000000  0.5795870000000  0.5485420000000 1.0
C      1  0.5576960000000  0.4541290000000  0.5100680000000 1.0
C      1  0.4556750000000  0.4994430000000  0.5852720000000 1.0
C      1  0.5330660000000  0.5526680000000  0.4766370000000 1.0
C      1  0.5751250000000  0.5040670000000  0.4095190000000 1.0
C      1  0.4452650000000  0.5869680000000  0.4393740000000 1.0
C      1  0.4172300000000  0.5790690000000  0.5554430000000 1.0
C      1  0.4830710000000  0.4884480000000  0.4670900000000 1.0
C      1  0.5080190000000  0.5621650000000  0.4660630000000 1.0
C      1  0.5011010000000  0.5053170000000  0.5701450000000 1.0
C      1  0.5799860000000  0.5889580000000  0.4678200000000 1.0
C      1  0.5227570000000  0.4463470000000  0.4138130000000 1.0
C      1  0.5545460000000  0.4883670000000  0.4721540000000 1.0
C      1  0.5497690000000  0.5076850000000  0.5416760000000 1.0
C      1  0.4710820000000  0.4392400000000  0.6023100000000 1.0
C      1  0.4344700000000  0.5795200000000  0.5055390000000 1.0
C      1  0.5932010000000  0.4004280000000  0.5376250000000 1.0
C      1  0.4446660000000  0.4915530000000  0.5232430000000 1.0
C      1  0.6177330000000  0.4369660000000  0.5118650000000 1.0
C      1  0.5078300000000  0.5024390000000  0.5154700000000 1.0
C      1  0.6270610000000  0.4778260000000  0.4626980000000 1.0
C      1  0.5162890000000  0.4195290000000  0.5852560000000 1.0
C      1  0.5161650000000  0.4299990000000  0.5283560000000 1.0
C      1  0.5506710000000  0.5381490000000  0.4589900000000 1.0
C      1  0.5959470000000  0.4286420000000  0.5300480000000 1.0
C      1  0.5442510000000  0.4123780000000  0.4863700000000 1.0
C      1  0.4100680000000  0.5582670000000  0.4625810000000 1.0
C      1  0.5544940000000  0.4689720000000  0.5753540000000 1.0
C      1  0.4357420000000  0.4328110000000  0.5636340000000 1.0
C      1  0.5585500000000  0.5303620000000  0.4115240000000 1.0
C      1  0.5214860000000  0.4044370000000  0.4464820000000 1.0
C      1  0.5270870000000  0.4535640000000  0.5132420000000 1.0
C      1  0.5153560000000  0.4619220000000  0.6176200000000 1.0
C      1  0.4320500000000  0.5358980000000  0.4100140000000 1.0
C      1  0.5193640000000  0.4907580000000  0.4360600000000 1.0
C      1  0.4274160000000  0.4480150000000  0.5187690000000 1.0
C      1  0.4401580000000  0.5530260000000  0.5944000000000 1.0
C      1  0.5380400000000  0.5385240000000  0.5739620000000 1.0
C      1  0.5403180000000  0.4916000000000  0.5640140000000 1.0
C      1  0.4873400000000  0.5257540000000  0.4326370000000 1.0
C      1  0.5494740000000  0.4974620000000  0.6075830000000 1.0
C      1  0.4940820000000  0.4333400000000  0.5462780000000 1.0
C      1  0.4187200000000  0.5532480000000  0.4931940000000 1.0
C      1  0.5289470000000  0.4968720000000  0.4111970000000 1.0
C      1  0.3838290000000  0.4435110000000  0.4557380000000 1.0
C      1  0.4457130000000  0.4617890000000  0.4836140000000 1.0
C      1  0.5193920000000  0.4521470000000  0.4628690000000 1.0
C      1  0.5083530000000  0.4753460000000  0.5055220000000 1.0
C      1  0.5656620000000  0.5148800000000  0.4682950000000 1.0
C      1  0.4169830000000  0.5386800000000  0.4381670000000 1.0
C      1  0.5460310000000  0.4909870000000  0.3687070000000 1.0
C      1  0.6279610000000  0.5498710000000  0.4733670000000 1.0
C      1  0.4555310000000  0.5242010000000  0.6034390000000 1.0
C      1  0.5026210000000  0.5071050000000  0.5987860000000 1.0
C      1  0.5001160000000  0.3893180000000  0.4926630000000 1.0
C      1  0.6141280000000  0.4928820000000  0.4415140000000 1.0
C      1  0.4352460000000  0.5279030000000  0.4912370000000 1.0
C      1  0.4114130000000  0.4840610000000  0.5784620000000 1.0
C      1  0.4976590000000  0.6011140000000  0.5818610000000 1.0
C      1  0.4170880000000  0.5303860000000  0.5577650000000 1.0
C      1  0.5197670000000  0.4341430000000  0.4867730000000 1.0
C      1  0.5141390000000  0.5779250000000  0.5918630000000 1.0
C      1  0.5222280000000  0.6115540000000  0.4561920000000 1.0
C      1  0.4698690000000  0.5942610000000  0.5732450000000 1.0
C      1  0.5698750000000  0.4749280000000  0.6009430000000 1.0
C      1  0.3930370000000  0.4921480000000  0.4486740000000 1.0
C      1  0.4681510000000  0.5399350000000  0.4498410000000 1.0
C      1  0.4858150000000  0.5290710000000  0.6109450000000 1.0
C      1  0.5953530000000  0.5227650000000  0.5559570000000 1.0
C      1  0.5385960000000  0.4211510000000  0.5633080000000 1.0
C      1  0.4687010000000  0.5502400000000  0.5594770000000 1.0
C      1  0.4040730000000  0.4731580000000  0.5523640000000 1.0
C      1  0.4479510000000  0.5316840000000  0.5485720000000 1.0
C      1  0.5239670000000  0.4023900000000  0.5138490000000 1.0
C      1  0.4564030000000  0.4528690000000  0.5122200000000 1.0
C      1  0.5217770000000  0.4904380000000  0.6123290000000 1.0
C      1  0.5315820000000  0.5160130000000  0.5219180000000 1.0
C      1  0.4854250000000  0.5910400000000  0.5259800000000 1.0
END
