TITL C-862507-1800-224 4.46809062213378e-05 125000 -258.815107222718 0 0 47 (C3h) n - 1
REM
REM in /home/nfs/bkarasulu/CARBON/AIRSS/Generating-Clusters/TERSOFF/Higher-Symm/FIRE-HFTN
REM
REM
REM
REM
REM
REM ./C.cell (b20cbc046b6831c77cfcea5457e17084)
REM AIRSS Version 0.9.1 bugfix July 2018 build 013d7b7c2542+ Fri, 06 Jul 2018 19:26:36 +0100
REM compiler GCC version 9.2.1 20190827 (Red Hat 9.2.1-1)
REM options -cpp -mtune=generic -march=x86-64 -g -O0 -fpre-include=/usr/include/finclude/math-vector-fortran.h
REM seed -1747593081 1531017899 1440741560 1637025698 1977413435 860620495 291783939 231430083 -873305713 45614100 1104826178 -1864751634 -412868037 1250178230 252700701 826578138 746001063 1378814977 -141837721 297903488 -1531620479 1353140697 -1598251611 -793768973 1822321259 371500993 349954972 818440733 -110244238 175387162 59502158 2008845796 1883626175
REM
CELL 1.54180   50.00000   50.00000   50.00000   90.00000   90.00000   90.00000
LATT -1
SFAC C  
C      1  0.4793130000000  0.4799600000000  0.4838330000000 1.0
C      1  0.4926250000000  0.5282220000000  0.4838330000000 1.0
C      1  0.5277660000000  0.4925620000000  0.4838330000000 1.0
C      1  0.4793130000000  0.4799600000000  0.5163530000000 1.0
C      1  0.4926250000000  0.5282220000000  0.5163530000000 1.0
C      1  0.5277660000000  0.4925620000000  0.5163530000000 1.0
C      1  0.4481500000000  0.4431800000000  0.4619750000000 1.0
C      1  0.4763540000000  0.5736000000000  0.4619750000000 1.0
C      1  0.5751990000000  0.4839640000000  0.4619750000000 1.0
C      1  0.4481500000000  0.4431800000000  0.5382120000000 1.0
C      1  0.4763540000000  0.5736000000000  0.5382120000000 1.0
C      1  0.5751990000000  0.4839640000000  0.5382120000000 1.0
C      1  0.4706960000000  0.5102750000000  0.5297480000000 1.0
C      1  0.5231870000000  0.5205270000000  0.5297480000000 1.0
C      1  0.5058200000000  0.4699420000000  0.5297480000000 1.0
C      1  0.4706960000000  0.5102750000000  0.4704390000000 1.0
C      1  0.5231870000000  0.5205270000000  0.4704390000000 1.0
C      1  0.5058200000000  0.4699420000000  0.4704390000000 1.0
C      1  0.5230890000000  0.5678430000000  0.4845680000000 1.0
C      1  0.5468470000000  0.4463690000000  0.4845680000000 1.0
C      1  0.4297680000000  0.4865320000000  0.4845680000000 1.0
C      1  0.5230890000000  0.5678430000000  0.5156190000000 1.0
C      1  0.5468470000000  0.4463690000000  0.5156190000000 1.0
C      1  0.4297680000000  0.4865320000000  0.5156190000000 1.0
C      1  0.4745940000000  0.5096990000000  0.4409030000000 1.0
C      1  0.5207390000000  0.5174390000000  0.4409030000000 1.0
C      1  0.5043700000000  0.4736060000000  0.4409030000000 1.0
C      1  0.4745940000000  0.5096990000000  0.5592840000000 1.0
C      1  0.5207390000000  0.5174390000000  0.5592840000000 1.0
C      1  0.5043700000000  0.4736060000000  0.5592840000000 1.0
C      1  0.4961900000000  0.5577620000000  0.5243010000000 1.0
C      1  0.5515660000000  0.4747040000000  0.5243010000000 1.0
C      1  0.4519480000000  0.4682770000000  0.5243010000000 1.0
C      1  0.4961900000000  0.5577620000000  0.4758850000000 1.0
C      1  0.5515660000000  0.4747040000000  0.4758850000000 1.0
C      1  0.4519480000000  0.4682770000000  0.4758850000000 1.0
C      1  0.4411790000000  0.5145100000000  0.5227070000000 1.0
C      1  0.5416140000000  0.5439720000000  0.5227070000000 1.0
C      1  0.5169110000000  0.4422620000000  0.5227070000000 1.0
C      1  0.4411790000000  0.5145100000000  0.4774800000000 1.0
C      1  0.5416140000000  0.5439720000000  0.4774800000000 1.0
C      1  0.5169110000000  0.4422620000000  0.4774800000000 1.0
C      1  0.4362470000000  0.5329610000000  0.5000930000000 1.0
C      1  0.5033980000000  0.4287650000000  0.5000930000000 1.0
C      1  0.5600590000000  0.5390180000000  0.5000930000000 1.0
C      1  0.4999010000000  0.5002480000000  0.4301380000000 1.0
C      1  0.4999010000000  0.5002480000000  0.5700490000000 1.0
END
