TITL C-862130-1496-255 -2.39169378235402e-07 125000 -115.553317175884 0 0 20 (Ih) n - 1
REM
REM in /home/nfs/bkarasulu/CARBON/AIRSS/Generating-Clusters/TERSOFF/Higher-Symm/FIRE-HFTN
REM
REM
REM
REM
REM
REM ./C.cell (b20cbc046b6831c77cfcea5457e17084)
REM AIRSS Version 0.9.1 bugfix July 2018 build 013d7b7c2542+ Fri, 06 Jul 2018 19:26:36 +0100
REM compiler GCC version 9.2.1 20190827 (Red Hat 9.2.1-1)
REM options -cpp -mtune=generic -march=x86-64 -g -O0 -fpre-include=/usr/include/finclude/math-vector-fortran.h
REM seed -1990944418 180198483 -167607833 2005536224 1953491218 -26788765 -527446052 1038087205 1568417042 -1681199040 2015858757 1911168185 196953275 -103388834 -308772486 -3003162 1710479909 1606107339 -426864188 836329942 -1752080472 -1227661687 -912957625 -1963210970 1492032636 -303355238 -1302738052 -1740737629 750952999 1748700028 -488226430 1305586660 1911626640
REM
CELL 1.54180   50.00000   50.00000   50.00000   90.00000   90.00000   90.00000
LATT -1
SFAC C  
C      1  0.5161780000000  0.4999950000000  0.4607700000000 1.0
C      1  0.4855520000000  0.4999950000000  0.5409500000000 1.0
C      1  0.4855520000000  0.4999950000000  0.4607700000000 1.0
C      1  0.5008650000000  0.4599050000000  0.4855470000000 1.0
C      1  0.4607750000000  0.4846820000000  0.5008600000000 1.0
C      1  0.5161780000000  0.4999950000000  0.5409500000000 1.0
C      1  0.5008650000000  0.5400840000000  0.4855470000000 1.0
C      1  0.5008650000000  0.5400840000000  0.5161730000000 1.0
C      1  0.5008650000000  0.4599050000000  0.5161730000000 1.0
C      1  0.5409550000000  0.5153080000000  0.5008600000000 1.0
C      1  0.4607750000000  0.5153080000000  0.5008600000000 1.0
C      1  0.5409550000000  0.4846820000000  0.5008600000000 1.0
C      1  0.5256420000000  0.4752180000000  0.4760830000000 1.0
C      1  0.4760880000000  0.5247710000000  0.4760830000000 1.0
C      1  0.5256420000000  0.4752180000000  0.5256370000000 1.0
C      1  0.4760880000000  0.5247710000000  0.5256370000000 1.0
C      1  0.5256420000000  0.5247710000000  0.5256370000000 1.0
C      1  0.4760880000000  0.4752180000000  0.5256370000000 1.0
C      1  0.5256420000000  0.5247710000000  0.4760830000000 1.0
C      1  0.4760880000000  0.4752180000000  0.4760830000000 1.0
END
