TITL C-862134-6730-270 0.00550102404126006 125000 -263.522394128124 0 0 46 (Ci) n - 1
REM
REM in /home/nfs/bkarasulu/CARBON/AIRSS/Generating-Clusters/TERSOFF/Higher-Symm/FIRE-HFTN
REM
REM
REM
REM
REM
REM ./C.cell (b20cbc046b6831c77cfcea5457e17084)
REM AIRSS Version 0.9.1 bugfix July 2018 build 013d7b7c2542+ Fri, 06 Jul 2018 19:26:36 +0100
REM compiler GCC version 9.2.1 20190827 (Red Hat 9.2.1-1)
REM options -cpp -mtune=generic -march=x86-64 -g -O0 -fpre-include=/usr/include/finclude/math-vector-fortran.h
REM seed -1454837951 -698309701 1633979644 -109582493 -135186921 -1607199124 -654537733 -301416129 2089151404 -978374559 872446938 -1437892712 -1112420278 -707552657 201535259 466676379 -2129822360 1037209700 1464946177 -1984517371 1624225767 -2064405760 1587218635 533255504 -1200852701 1578293565 -1235514452 2085105655 688361289 564710006 -2062781060 1190528909 -1079836334
REM
CELL 1.54180   50.00000   50.00000   50.00000   90.00000   90.00000   90.00000
LATT -1
SFAC C  
C      1  0.4810790000000  0.4864780000000  0.4827220000000 1.0
C      1  0.5188350000000  0.4867710000000  0.5176160000000 1.0
C      1  0.4811650000000  0.5157500000000  0.4823840000000 1.0
C      1  0.5189210000000  0.5160430000000  0.5172780000000 1.0
C      1  0.5431820000000  0.4513120000000  0.4267790000000 1.0
C      1  0.4560470000000  0.4510890000000  0.5728130000000 1.0
C      1  0.5439520000000  0.5514320000000  0.4271870000000 1.0
C      1  0.4568180000000  0.5512090000000  0.5732210000000 1.0
C      1  0.5330240000000  0.5177520000000  0.3924610000000 1.0
C      1  0.4680220000000  0.5163730000000  0.6069430000000 1.0
C      1  0.5319780000000  0.4861480000000  0.3930570000000 1.0
C      1  0.4669760000000  0.4847690000000  0.6075390000000 1.0
C      1  0.5016940000000  0.4848760000000  0.4031980000000 1.0
C      1  0.4968840000000  0.4853620000000  0.5966250000000 1.0
C      1  0.5031150000000  0.5171590000000  0.4033760000000 1.0
C      1  0.4983060000000  0.5176450000000  0.5968020000000 1.0
C      1  0.5615030000000  0.4605440000000  0.5236330000000 1.0
C      1  0.4387650000000  0.4595120000000  0.4775300000000 1.0
C      1  0.5612350000000  0.5430090000000  0.5224700000000 1.0
C      1  0.4384970000000  0.5419760000000  0.4763680000000 1.0
C      1  0.4835830000000  0.4503480000000  0.5637110000000 1.0
C      1  0.5157460000000  0.4501600000000  0.4360580000000 1.0
C      1  0.4842540000000  0.5523610000000  0.5639420000000 1.0
C      1  0.5164170000000  0.5521730000000  0.4362900000000 1.0
C      1  0.4229190000000  0.5157180000000  0.5859360000000 1.0
C      1  0.5775390000000  0.5157700000000  0.4141680000000 1.0
C      1  0.4224610000000  0.4867510000000  0.5858320000000 1.0
C      1  0.5770810000000  0.4868030000000  0.4140640000000 1.0
C      1  0.5373320000000  0.5312030000000  0.5340790000000 1.0
C      1  0.4628420000000  0.5306250000000  0.4652350000000 1.0
C      1  0.5371580000000  0.4718950000000  0.5347650000000 1.0
C      1  0.4626680000000  0.4713170000000  0.4659210000000 1.0
C      1  0.5052370000000  0.5348460000000  0.5741700000000 1.0
C      1  0.4956810000000  0.5344810000000  0.4257710000000 1.0
C      1  0.5043180000000  0.4680400000000  0.5742290000000 1.0
C      1  0.4947630000000  0.4676740000000  0.4258300000000 1.0
C      1  0.4682260000000  0.4680170000000  0.4375720000000 1.0
C      1  0.5310700000000  0.4684250000000  0.5629860000000 1.0
C      1  0.4689300000000  0.5340960000000  0.4370150000000 1.0
C      1  0.5317740000000  0.5345040000000  0.5624280000000 1.0
C      1  0.5527160000000  0.4717640000000  0.4083210000000 1.0
C      1  0.4463000000000  0.4709990000000  0.5917650000000 1.0
C      1  0.5537000000000  0.5315220000000  0.4082360000000 1.0
C      1  0.4472840000000  0.5307570000000  0.5916790000000 1.0
C      1  0.5000830000000  0.5295630000000  0.4996720000000 1.0
C      1  0.4999170000000  0.4729570000000  0.5003280000000 1.0
END
