TITL C-862130-1496-52 -0.00344531063824018 125000 -701.230387851481 0 0 135 (C1) n - 1
REM
REM in /home/nfs/bkarasulu/CARBON/AIRSS/Generating-Clusters/TERSOFF/Higher-Symm/FIRE-HFTN
REM
REM
REM
REM
REM
REM ./C.cell (b20cbc046b6831c77cfcea5457e17084)
REM AIRSS Version 0.9.1 bugfix July 2018 build 013d7b7c2542+ Fri, 06 Jul 2018 19:26:36 +0100
REM compiler GCC version 9.2.1 20190827 (Red Hat 9.2.1-1)
REM options -cpp -mtune=generic -march=x86-64 -g -O0 -fpre-include=/usr/include/finclude/math-vector-fortran.h
REM seed -1594389476 1970613395 850746436 1494185624 -493403622 -670602958 334966079 -1339938068 20451977 80659876 -1692839125 -1321664194 -906192392 -451251972 -1692984700 919544428 -544800561 -483271856 -904004617 71262043 1836570077 1970751123 1924530504 -2068017856 140564541 -1095038174 2089156037 717527242 2078573852 -438560811 -60477872 951572067 1722236736
REM
CELL 1.54180   50.00000   50.00000   50.00000   90.00000   90.00000   90.00000
LATT -1
SFAC C  
C      1  0.5303550000000  0.5139650000000  0.5568770000000 1.0
C      1  0.5338520000000  0.5158300000000  0.4478110000000 1.0
C      1  0.4372830000000  0.5174400000000  0.4979440000000 1.0
C      1  0.5275350000000  0.4816840000000  0.5555120000000 1.0
C      1  0.5337550000000  0.4835190000000  0.4448790000000 1.0
C      1  0.4366490000000  0.4851640000000  0.4966990000000 1.0
C      1  0.4721870000000  0.5150210000000  0.5570150000000 1.0
C      1  0.4650260000000  0.5174860000000  0.4487220000000 1.0
C      1  0.5627810000000  0.5173210000000  0.4965150000000 1.0
C      1  0.4693390000000  0.4829520000000  0.5555160000000 1.0
C      1  0.4665700000000  0.4851940000000  0.4450560000000 1.0
C      1  0.5632500000000  0.4851300000000  0.4968730000000 1.0
C      1  0.4853160000000  0.5115610000000  0.5289310000000 1.0
C      1  0.5304370000000  0.5188630000000  0.5023380000000 1.0
C      1  0.4848070000000  0.5200810000000  0.4759850000000 1.0
C      1  0.4832010000000  0.4796850000000  0.5236930000000 1.0
C      1  0.5306460000000  0.4863240000000  0.4983900000000 1.0
C      1  0.4844450000000  0.4879990000000  0.4714270000000 1.0
C      1  0.5159830000000  0.5116380000000  0.5284780000000 1.0
C      1  0.4701710000000  0.5203690000000  0.5035000000000 1.0
C      1  0.5150240000000  0.5177970000000  0.4754260000000 1.0
C      1  0.5149520000000  0.4793630000000  0.5240450000000 1.0
C      1  0.4685270000000  0.4883880000000  0.4982150000000 1.0
C      1  0.5152250000000  0.4855560000000  0.4713200000000 1.0
C      1  0.4351040000000  0.4796740000000  0.4333360000000 1.0
C      1  0.4739620000000  0.4781760000000  0.5897640000000 1.0
C      1  0.5898920000000  0.4798460000000  0.4769860000000 1.0
C      1  0.4344760000000  0.5216150000000  0.4344370000000 1.0
C      1  0.4761740000000  0.5200830000000  0.5894540000000 1.0
C      1  0.5896540000000  0.5217740000000  0.4756000000000 1.0
C      1  0.5652650000000  0.4784840000000  0.4330090000000 1.0
C      1  0.5236420000000  0.4774380000000  0.5892380000000 1.0
C      1  0.4106040000000  0.4797390000000  0.4765510000000 1.0
C      1  0.5646220000000  0.5204400000000  0.4334570000000 1.0
C      1  0.5256350000000  0.5193440000000  0.5897700000000 1.0
C      1  0.4101520000000  0.5216990000000  0.4771970000000 1.0
C      1  0.5354460000000  0.6034610000000  0.4600220000000 1.0
C      1  0.4491430000000  0.6046550000000  0.4889450000000 1.0
C      1  0.5167020000000  0.6015890000000  0.5497730000000 1.0
C      1  0.5340750000000  0.3956970000000  0.4644670000000 1.0
C      1  0.4497610000000  0.3954350000000  0.4888480000000 1.0
C      1  0.5158400000000  0.3943980000000  0.5496060000000 1.0
C      1  0.4639980000000  0.6042340000000  0.4607360000000 1.0
C      1  0.5496920000000  0.6042690000000  0.4883820000000 1.0
C      1  0.4851760000000  0.6021680000000  0.5491250000000 1.0
C      1  0.4660250000000  0.3953690000000  0.4622220000000 1.0
C      1  0.5523560000000  0.3975830000000  0.4899260000000 1.0
C      1  0.4841370000000  0.3941010000000  0.5494700000000 1.0
C      1  0.4025510000000  0.5122330000000  0.5206900000000 1.0
C      1  0.5780800000000  0.5142180000000  0.5733690000000 1.0
C      1  0.5299480000000  0.5110770000000  0.4064460000000 1.0
C      1  0.3966550000000  0.4818340000000  0.5258790000000 1.0
C      1  0.5639000000000  0.4871110000000  0.5756460000000 1.0
C      1  0.5295840000000  0.4809260000000  0.3980730000000 1.0
C      1  0.5984650000000  0.5128680000000  0.5180430000000 1.0
C      1  0.4339610000000  0.5111120000000  0.5734870000000 1.0
C      1  0.4685300000000  0.5108220000000  0.4075640000000 1.0
C      1  0.6027570000000  0.4853460000000  0.5311080000000 1.0
C      1  0.4241840000000  0.4814750000000  0.5754370000000 1.0
C      1  0.4732220000000  0.4820110000000  0.3971250000000 1.0
C      1  0.4865140000000  0.5434290000000  0.5561810000000 1.0
C      1  0.5560690000000  0.5457410000000  0.4829610000000 1.0
C      1  0.4573410000000  0.5467180000000  0.4589990000000 1.0
C      1  0.4836820000000  0.4541430000000  0.5568480000000 1.0
C      1  0.5563560000000  0.4560330000000  0.4851090000000 1.0
C      1  0.4593440000000  0.4568980000000  0.4588510000000 1.0
C      1  0.5160450000000  0.5428730000000  0.5564100000000 1.0
C      1  0.4432260000000  0.5463400000000  0.4846590000000 1.0
C      1  0.5412140000000  0.5452830000000  0.4577570000000 1.0
C      1  0.5129300000000  0.4532520000000  0.5567360000000 1.0
C      1  0.4447080000000  0.4567020000000  0.4845590000000 1.0
C      1  0.5419560000000  0.4556270000000  0.4592960000000 1.0
C      1  0.5849450000000  0.5386740000000  0.5288630000000 1.0
C      1  0.4844130000000  0.5377540000000  0.4115610000000 1.0
C      1  0.4316320000000  0.5378370000000  0.5568010000000 1.0
C      1  0.5833510000000  0.4617370000000  0.5345920000000 1.0
C      1  0.4863230000000  0.4582600000000  0.4113360000000 1.0
C      1  0.4293700000000  0.4579980000000  0.5566140000000 1.0
C      1  0.4162800000000  0.5384810000000  0.5316800000000 1.0
C      1  0.5138710000000  0.5378760000000  0.4112160000000 1.0
C      1  0.5718880000000  0.5380520000000  0.5550260000000 1.0
C      1  0.4156390000000  0.4584810000000  0.5310300000000 1.0
C      1  0.5153500000000  0.4577250000000  0.4115350000000 1.0
C      1  0.5670610000000  0.4611450000000  0.5588970000000 1.0
C      1  0.4498550000000  0.5621320000000  0.5641850000000 1.0
C      1  0.5820250000000  0.5638280000000  0.5104620000000 1.0
C      1  0.4691940000000  0.5631240000000  0.4222880000000 1.0
C      1  0.4476450000000  0.4341950000000  0.5645600000000 1.0
C      1  0.5812140000000  0.4385230000000  0.5139720000000 1.0
C      1  0.4699310000000  0.4355670000000  0.4243610000000 1.0
C      1  0.5529980000000  0.5613330000000  0.5634690000000 1.0
C      1  0.4179770000000  0.5638670000000  0.5131570000000 1.0
C      1  0.5292210000000  0.5630330000000  0.4217330000000 1.0
C      1  0.5499700000000  0.4358060000000  0.5657710000000 1.0
C      1  0.4193360000000  0.4357540000000  0.5105460000000 1.0
C      1  0.5309020000000  0.4345330000000  0.4248050000000 1.0
C      1  0.4835790000000  0.5617840000000  0.4712730000000 1.0
C      1  0.4840390000000  0.5581600000000  0.5270680000000 1.0
C      1  0.5325040000000  0.5606790000000  0.4994240000000 1.0
C      1  0.4843730000000  0.4408920000000  0.4720460000000 1.0
C      1  0.4828650000000  0.4380420000000  0.5284690000000 1.0
C      1  0.5319150000000  0.4411230000000  0.5013000000000 1.0
C      1  0.5154060000000  0.5606030000000  0.4709920000000 1.0
C      1  0.5170260000000  0.5576640000000  0.5269900000000 1.0
C      1  0.4673950000000  0.5620060000000  0.5001710000000 1.0
C      1  0.5161060000000  0.4409210000000  0.4724600000000 1.0
C      1  0.5159260000000  0.4376660000000  0.5285620000000 1.0
C      1  0.4678350000000  0.4405280000000  0.5006460000000 1.0
C      1  0.4819640000000  0.5818700000000  0.4465890000000 1.0
C      1  0.4647420000000  0.5797570000000  0.5408100000000 1.0
C      1  0.5541550000000  0.5813980000000  0.5100360000000 1.0
C      1  0.4825680000000  0.4183360000000  0.4495920000000 1.0
C      1  0.4633750000000  0.4165180000000  0.5412560000000 1.0
C      1  0.5537020000000  0.4199870000000  0.5118610000000 1.0
C      1  0.5170990000000  0.5812430000000  0.4465930000000 1.0
C      1  0.5367560000000  0.5792320000000  0.5404350000000 1.0
C      1  0.4456360000000  0.5821820000000  0.5115060000000 1.0
C      1  0.5177990000000  0.4182450000000  0.4500770000000 1.0
C      1  0.5362500000000  0.4175290000000  0.5421660000000 1.0
C      1  0.4469820000000  0.4181540000000  0.5097870000000 1.0
C      1  0.5263750000000  0.4441880000000  0.5851490000000 1.0
C      1  0.5596140000000  0.4447190000000  0.4341200000000 1.0
C      1  0.4138530000000  0.4462420000000  0.4811940000000 1.0
C      1  0.5303420000000  0.5525610000000  0.5842010000000 1.0
C      1  0.5582600000000  0.5541560000000  0.4314580000000 1.0
C      1  0.4118700000000  0.5552660000000  0.4830490000000 1.0
C      1  0.4701990000000  0.4442980000000  0.5847040000000 1.0
C      1  0.4414010000000  0.4460650000000  0.4337940000000 1.0
C      1  0.5877630000000  0.4469240000000  0.4840240000000 1.0
C      1  0.4728430000000  0.5534190000000  0.5843390000000 1.0
C      1  0.4401510000000  0.5550290000000  0.4325810000000 1.0
C      1  0.5872130000000  0.5552210000000  0.4803370000000 1.0
C      1  0.5870840000000  0.4996990000000  0.4490860000000 1.0
C      1  0.4126870000000  0.5003810000000  0.4497650000000 1.0
C      1  0.4998830000000  0.4987140000000  0.6009020000000 1.0
END
