TITL C-862127-1500-811 0.000567591606064872 125000 -266.742051446591 0 0 54 (C2) n - 1
REM
REM in /home/nfs/bkarasulu/CARBON/AIRSS/Generating-Clusters/TERSOFF/Higher-Symm/FIRE-HFTN
REM
REM
REM
REM
REM
REM ./C.cell (b20cbc046b6831c77cfcea5457e17084)
REM AIRSS Version 0.9.1 bugfix July 2018 build 013d7b7c2542+ Fri, 06 Jul 2018 19:26:36 +0100
REM compiler GCC version 9.2.1 20190827 (Red Hat 9.2.1-1)
REM options -cpp -mtune=generic -march=x86-64 -g -O0 -fpre-include=/usr/include/finclude/math-vector-fortran.h
REM seed -724907689 -1901206269 -850989069 824662167 140447179 565121276 358543396 -724901381 898617456 -1112864655 -263686039 578115975 -1424129444 -1484444223 2092973957 -1254163735 -1045351935 -179539518 2012064712 -185265929 -737139005 1568348782 -1862779865 725748372 -561075054 -2086876132 2085246927 -317402018 -761884621 -1600728569 456993618 369862170 1173471366
REM
CELL 1.54180   50.00000   50.00000   50.00000   90.00000   90.00000   90.00000
LATT -1
SFAC C  
C      1  0.5626130000000  0.5044990000000  0.4795220000000 1.0
C      1  0.5626130000000  0.4955010000000  0.5204780000000 1.0
C      1  0.5221730000000  0.4757350000000  0.5102490000000 1.0
C      1  0.5221730000000  0.5242650000000  0.4897510000000 1.0
C      1  0.5074600000000  0.5181350000000  0.5722340000000 1.0
C      1  0.5074600000000  0.4818650000000  0.4277660000000 1.0
C      1  0.4832400000000  0.4840400000000  0.5742120000000 1.0
C      1  0.4832400000000  0.5159600000000  0.4257880000000 1.0
C      1  0.5029700000000  0.5279000000000  0.4443330000000 1.0
C      1  0.5029700000000  0.4721000000000  0.5556670000000 1.0
C      1  0.4609950000000  0.5024270000000  0.5618170000000 1.0
C      1  0.4609950000000  0.4975730000000  0.4381830000000 1.0
C      1  0.4941700000000  0.4429500000000  0.5401990000000 1.0
C      1  0.4941700000000  0.5570500000000  0.4598010000000 1.0
C      1  0.4712620000000  0.4623060000000  0.5299670000000 1.0
C      1  0.4712620000000  0.5376940000000  0.4700330000000 1.0
C      1  0.5394420000000  0.4536640000000  0.4789930000000 1.0
C      1  0.5394420000000  0.5463360000000  0.5210070000000 1.0
C      1  0.4332230000000  0.5258270000000  0.4832230000000 1.0
C      1  0.4332230000000  0.4741730000000  0.5167770000000 1.0
C      1  0.5488940000000  0.4890870000000  0.5460630000000 1.0
C      1  0.5488940000000  0.5109130000000  0.4539370000000 1.0
C      1  0.4727770000000  0.5783530000000  0.4799140000000 1.0
C      1  0.4727770000000  0.4216470000000  0.5200860000000 1.0
C      1  0.5395580000000  0.5142510000000  0.5647250000000 1.0
C      1  0.5395580000000  0.4857490000000  0.4352750000000 1.0
C      1  0.5190670000000  0.5543810000000  0.4787540000000 1.0
C      1  0.5190670000000  0.4456190000000  0.5212460000000 1.0
C      1  0.4501730000000  0.4745920000000  0.4609400000000 1.0
C      1  0.4501730000000  0.5254080000000  0.5390600000000 1.0
C      1  0.5323140000000  0.4573580000000  0.4509230000000 1.0
C      1  0.5323140000000  0.5426420000000  0.5490770000000 1.0
C      1  0.5083330000000  0.5575720000000  0.5110610000000 1.0
C      1  0.5083330000000  0.4424280000000  0.4889390000000 1.0
C      1  0.4802000000000  0.5073460000000  0.5138260000000 1.0
C      1  0.4802000000000  0.4926540000000  0.4861740000000 1.0
C      1  0.4578400000000  0.4507650000000  0.5047220000000 1.0
C      1  0.4578400000000  0.5492350000000  0.4952780000000 1.0
C      1  0.4777870000000  0.4582050000000  0.4772900000000 1.0
C      1  0.4777870000000  0.5417950000000  0.5227100000000 1.0
C      1  0.5428060000000  0.5429420000000  0.4583010000000 1.0
C      1  0.5428060000000  0.4570580000000  0.5416990000000 1.0
C      1  0.5097210000000  0.5153460000000  0.5163550000000 1.0
C      1  0.5097210000000  0.4846540000000  0.4836450000000 1.0
C      1  0.4331280000000  0.5059090000000  0.5201440000000 1.0
C      1  0.4331280000000  0.4940910000000  0.4798560000000 1.0
C      1  0.4987280000000  0.5427390000000  0.5520530000000 1.0
C      1  0.4987280000000  0.4572610000000  0.4479470000000 1.0
C      1  0.4712820000000  0.4895250000000  0.5343510000000 1.0
C      1  0.4712820000000  0.5104750000000  0.4656490000000 1.0
C      1  0.5197080000000  0.5084180000000  0.4644730000000 1.0
C      1  0.5197080000000  0.4915820000000  0.5355270000000 1.0
C      1  0.5601370000000  0.5252930000000  0.5075810000000 1.0
C      1  0.5601370000000  0.4747070000000  0.4924190000000 1.0
END
