TITL C-862128-1543-110 -0.200734898314772 125000 -731.908063003077 0 0 127 (C2) n - 1
REM
REM in /home/nfs/bkarasulu/CARBON/AIRSS/Generating-Clusters/TERSOFF/Higher-Symm/FIRE-HFTN
REM
REM
REM
REM
REM
REM ./C.cell (b20cbc046b6831c77cfcea5457e17084)
REM AIRSS Version 0.9.1 bugfix July 2018 build 013d7b7c2542+ Fri, 06 Jul 2018 19:26:36 +0100
REM compiler GCC version 9.2.1 20190827 (Red Hat 9.2.1-1)
REM options -cpp -mtune=generic -march=x86-64 -g -O0 -fpre-include=/usr/include/finclude/math-vector-fortran.h
REM seed 604619513 783298240 940160905 -30069126 1520400474 -822475998 -35359728 1111769422 1030330901 -1362517816 1686270131 2121737852 1820647601 1913029552 -481848208 686000469 599235764 1881373965 -1836445847 1788810280 -1558169631 -360459528 9164743 -916206497 -2104846715 -606440474 1915380169 -1407362576 -1673581931 -185365010 -1625813901 -456044063 1456389314
REM
CELL 1.54180   50.00000   50.00000   50.00000   90.00000   90.00000   90.00000
LATT -1
SFAC C  
C      1  0.5473680000000  0.5534330000000  0.4420920000000 1.0
C      1  0.5470850000000  0.5697440000000  0.5353440000000 1.0
C      1  0.5503170000000  0.4900550000000  0.5807160000000 1.0
C      1  0.5528370000000  0.4167780000000  0.5119620000000 1.0
C      1  0.5509110000000  0.4607020000000  0.4298420000000 1.0
C      1  0.4552510000000  0.4468100000000  0.4420920000000 1.0
C      1  0.4555340000000  0.4304970000000  0.5353430000000 1.0
C      1  0.4523030000000  0.5101860000000  0.5807160000000 1.0
C      1  0.4497830000000  0.5834640000000  0.5119630000000 1.0
C      1  0.4517090000000  0.5395410000000  0.4298430000000 1.0
C      1  0.4653320000000  0.5954740000000  0.4528560000000 1.0
C      1  0.4696550000000  0.5737250000000  0.5730730000000 1.0
C      1  0.4636040000000  0.4503040000000  0.5953460000000 1.0
C      1  0.4694340000000  0.3986380000000  0.4794160000000 1.0
C      1  0.4673360000000  0.4892960000000  0.3977180000000 1.0
C      1  0.5372870000000  0.4047690000000  0.4528550000000 1.0
C      1  0.5329650000000  0.4265160000000  0.5730720000000 1.0
C      1  0.5390160000000  0.5499360000000  0.5953460000000 1.0
C      1  0.5331850000000  0.6016040000000  0.4794170000000 1.0
C      1  0.5352830000000  0.5109470000000  0.3977180000000 1.0
C      1  0.5440030000000  0.5741010000000  0.4686930000000 1.0
C      1  0.5475050000000  0.5518770000000  0.5647920000000 1.0
C      1  0.5445330000000  0.4563290000000  0.5711840000000 1.0
C      1  0.5493020000000  0.4192190000000  0.4783320000000 1.0
C      1  0.5460000000000  0.4922690000000  0.4204230000000 1.0
C      1  0.4586160000000  0.4261410000000  0.4686920000000 1.0
C      1  0.4551150000000  0.4483640000000  0.5647910000000 1.0
C      1  0.4580870000000  0.5439120000000  0.5711850000000 1.0
C      1  0.4533180000000  0.5810230000000  0.4783330000000 1.0
C      1  0.4566190000000  0.5079730000000  0.4204230000000 1.0
C      1  0.4160550000000  0.5514870000000  0.4978470000000 1.0
C      1  0.4174030000000  0.5180910000000  0.5474970000000 1.0
C      1  0.4184860000000  0.4609810000000  0.5310060000000 1.0
C      1  0.4194150000000  0.4593720000000  0.4718700000000 1.0
C      1  0.4169890000000  0.5147530000000  0.4516200000000 1.0
C      1  0.5865650000000  0.4487550000000  0.4978460000000 1.0
C      1  0.5852170000000  0.4821500000000  0.5474960000000 1.0
C      1  0.5841330000000  0.5392610000000  0.5310060000000 1.0
C      1  0.5832040000000  0.5408700000000  0.4718710000000 1.0
C      1  0.5856310000000  0.4854890000000  0.4516200000000 1.0
C      1  0.5365310000000  0.4694720000000  0.4966800000000 1.0
C      1  0.5328610000000  0.4937340000000  0.4626640000000 1.0
C      1  0.5285740000000  0.5291420000000  0.4847030000000 1.0
C      1  0.5330850000000  0.5150730000000  0.5239590000000 1.0
C      1  0.5325000000000  0.4710660000000  0.5454260000000 1.0
C      1  0.4660880000000  0.5307700000000  0.4966800000000 1.0
C      1  0.4697590000000  0.5065090000000  0.4626640000000 1.0
C      1  0.4740450000000  0.4711000000000  0.4847030000000 1.0
C      1  0.4695350000000  0.4851690000000  0.5239590000000 1.0
C      1  0.4701200000000  0.5291750000000  0.5454270000000 1.0
C      1  0.4900460000000  0.5127640000000  0.4241160000000 1.0
C      1  0.4869000000000  0.5789730000000  0.4848890000000 1.0
C      1  0.4930060000000  0.5393390000000  0.5790940000000 1.0
C      1  0.4880710000000  0.4461510000000  0.5603760000000 1.0
C      1  0.4923250000000  0.4296280000000  0.4627030000000 1.0
C      1  0.5125740000000  0.4874790000000  0.4241150000000 1.0
C      1  0.5157200000000  0.4212690000000  0.4848880000000 1.0
C      1  0.5096140000000  0.4609020000000  0.5790940000000 1.0
C      1  0.5145490000000  0.5540900000000  0.5603770000000 1.0
C      1  0.5102950000000  0.5706150000000  0.4627030000000 1.0
C      1  0.5094830000000  0.4098210000000  0.4449770000000 1.0
C      1  0.5083280000000  0.5216710000000  0.4001050000000 1.0
C      1  0.5054410000000  0.6038000000000  0.4879780000000 1.0
C      1  0.5116610000000  0.5419490000000  0.6027650000000 1.0
C      1  0.5051040000000  0.4212040000000  0.5661870000000 1.0
C      1  0.4931370000000  0.5904220000000  0.4449780000000 1.0
C      1  0.4942920000000  0.4785720000000  0.4001050000000 1.0
C      1  0.4971790000000  0.3964420000000  0.4879770000000 1.0
C      1  0.4909590000000  0.4582910000000  0.6027650000000 1.0
C      1  0.4975160000000  0.5790370000000  0.5661880000000 1.0
C      1  0.5171630000000  0.5397950000000  0.5117610000000 1.0
C      1  0.5253010000000  0.4988510000000  0.5470200000000 1.0
C      1  0.5298070000000  0.4566260000000  0.5217290000000 1.0
C      1  0.5224740000000  0.4635390000000  0.4682120000000 1.0
C      1  0.5171130000000  0.5203130000000  0.4571130000000 1.0
C      1  0.4854570000000  0.4604460000000  0.5117610000000 1.0
C      1  0.4773190000000  0.5013900000000  0.5470200000000 1.0
C      1  0.4728130000000  0.5436160000000  0.5217300000000 1.0
C      1  0.4801460000000  0.5367030000000  0.4682120000000 1.0
C      1  0.4855060000000  0.4799290000000  0.4571120000000 1.0
C      1  0.5253160000000  0.5066070000000  0.5767740000000 1.0
C      1  0.5290420000000  0.4281170000000  0.5240910000000 1.0
C      1  0.5269350000000  0.4491860000000  0.4418010000000 1.0
C      1  0.5225980000000  0.5394220000000  0.4354630000000 1.0
C      1  0.5219360000000  0.5667990000000  0.5210510000000 1.0
C      1  0.4773040000000  0.4936340000000  0.5767740000000 1.0
C      1  0.4735780000000  0.5721250000000  0.5240920000000 1.0
C      1  0.4756840000000  0.5510570000000  0.4418010000000 1.0
C      1  0.4800220000000  0.4608210000000  0.4354630000000 1.0
C      1  0.4806840000000  0.4334430000000  0.5210500000000 1.0
C      1  0.5991830000000  0.5208790000000  0.4857660000000 1.0
C      1  0.5992790000000  0.5198110000000  0.5156010000000 1.0
C      1  0.5999180000000  0.4909890000000  0.5239430000000 1.0
C      1  0.6005940000000  0.4742520000000  0.4990930000000 1.0
C      1  0.6002430000000  0.4927730000000  0.4756090000000 1.0
C      1  0.4034370000000  0.4793630000000  0.4857660000000 1.0
C      1  0.4033410000000  0.4804300000000  0.5156010000000 1.0
C      1  0.4027020000000  0.5092530000000  0.5239430000000 1.0
C      1  0.4020250000000  0.5259900000000  0.4990940000000 1.0
C      1  0.4023770000000  0.5074690000000  0.4756100000000 1.0
C      1  0.5693830000000  0.5057590000000  0.4373590000000 1.0
C      1  0.5678810000000  0.5612200000000  0.4870600000000 1.0
C      1  0.5707720000000  0.5310760000000  0.5561240000000 1.0
C      1  0.5718410000000  0.4551740000000  0.5477110000000 1.0
C      1  0.5722110000000  0.4408770000000  0.4731020000000 1.0
C      1  0.4332370000000  0.4944840000000  0.4373590000000 1.0
C      1  0.4347390000000  0.4390220000000  0.4870600000000 1.0
C      1  0.4318480000000  0.4691650000000  0.5561240000000 1.0
C      1  0.4307780000000  0.5450670000000  0.5477120000000 1.0
C      1  0.4304090000000  0.5593660000000  0.4731030000000 1.0
C      1  0.5739450000000  0.4584580000000  0.4487840000000 1.0
C      1  0.5703900000000  0.5345250000000  0.4460830000000 1.0
C      1  0.5700320000000  0.5616310000000  0.5174250000000 1.0
C      1  0.5725680000000  0.5022230000000  0.5652680000000 1.0
C      1  0.5749090000000  0.4366730000000  0.5223880000000 1.0
C      1  0.4286750000000  0.5417840000000  0.4487850000000 1.0
C      1  0.4322290000000  0.4657170000000  0.4460830000000 1.0
C      1  0.4325880000000  0.4386110000000  0.5174250000000 1.0
C      1  0.4300520000000  0.4980180000000  0.5652680000000 1.0
C      1  0.4277100000000  0.5635690000000  0.5223890000000 1.0
C      1  0.5013100000000  0.5001200000000  0.5914390000000 1.0
C      1  0.5031750000000  0.4159860000000  0.5246130000000 1.0
C      1  0.4994440000000  0.5842550000000  0.5246140000000 1.0
C      1  0.4995470000000  0.5536320000000  0.4258470000000 1.0
C      1  0.5030730000000  0.4466110000000  0.4258460000000 1.0
C      1  0.5456410000000  0.5006560000000  0.4958860000000 1.0
C      1  0.4569790000000  0.4995850000000  0.4958860000000 1.0
END
