TITL C-862130-1496-852 0.000271101327337389 125000 -286.579151165787 0 0 54 (Ci) n - 1
REM
REM in /home/nfs/bkarasulu/CARBON/AIRSS/Generating-Clusters/TERSOFF/Higher-Symm/FIRE-HFTN
REM
REM
REM
REM
REM
REM ./C.cell (b20cbc046b6831c77cfcea5457e17084)
REM AIRSS Version 0.9.1 bugfix July 2018 build 013d7b7c2542+ Fri, 06 Jul 2018 19:26:36 +0100
REM compiler GCC version 9.2.1 20190827 (Red Hat 9.2.1-1)
REM options -cpp -mtune=generic -march=x86-64 -g -O0 -fpre-include=/usr/include/finclude/math-vector-fortran.h
REM seed 711391548 148166542 238336365 142245989 -1973649886 -654159485 -573625714 -1322897984 -1072516448 1848154140 -359510968 1312457986 -713446641 -205915478 -505034904 1992976585 19119881 -843491582 1838080832 1746909704 -1763383313 -441550789 -874494397 2073118593 235453445 136128674 121008366 971732014 596534412 146704476 1907670351 558232447 960510645
REM
CELL 1.54180   50.00000   50.00000   50.00000   90.00000   90.00000   90.00000
LATT -1
SFAC C  
C      1  0.4713240000000  0.4423060000000  0.4690890000000 1.0
C      1  0.5286760000000  0.5576940000000  0.5309110000000 1.0
C      1  0.4538480000000  0.5097840000000  0.5361060000000 1.0
C      1  0.5461520000000  0.4902160000000  0.4638940000000 1.0
C      1  0.5215060000000  0.4427350000000  0.4595950000000 1.0
C      1  0.4784940000000  0.5572650000000  0.5404050000000 1.0
C      1  0.5074810000000  0.4345810000000  0.5100000000000 1.0
C      1  0.4925190000000  0.5654190000000  0.4900000000000 1.0
C      1  0.4921960000000  0.4783800000000  0.4811770000000 1.0
C      1  0.5078040000000  0.5216200000000  0.5188230000000 1.0
C      1  0.5299080000000  0.4545840000000  0.5501140000000 1.0
C      1  0.4700920000000  0.5454160000000  0.4498860000000 1.0
C      1  0.5197150000000  0.4887790000000  0.4457210000000 1.0
C      1  0.4802850000000  0.5112210000000  0.5542790000000 1.0
C      1  0.5473310000000  0.4588700000000  0.4625420000000 1.0
C      1  0.4526690000000  0.5411300000000  0.5374580000000 1.0
C      1  0.5109210000000  0.4926550000000  0.5249620000000 1.0
C      1  0.4890790000000  0.5073450000000  0.4750380000000 1.0
C      1  0.4346230000000  0.4735130000000  0.4701640000000 1.0
C      1  0.5653770000000  0.5264870000000  0.5298360000000 1.0
C      1  0.5024600000000  0.4663970000000  0.4533310000000 1.0
C      1  0.4975400000000  0.5336030000000  0.5466690000000 1.0
C      1  0.5423090000000  0.5523390000000  0.4804670000000 1.0
C      1  0.4576910000000  0.4476610000000  0.5195330000000 1.0
C      1  0.4499830000000  0.5206230000000  0.4824710000000 1.0
C      1  0.5500170000000  0.4793770000000  0.5175290000000 1.0
C      1  0.4532820000000  0.4958870000000  0.4559550000000 1.0
C      1  0.5467180000000  0.5041130000000  0.5440450000000 1.0
C      1  0.4775080000000  0.4470940000000  0.5565080000000 1.0
C      1  0.5224920000000  0.5529060000000  0.4434920000000 1.0
C      1  0.5536180000000  0.5506970000000  0.5132640000000 1.0
C      1  0.4463820000000  0.4493030000000  0.4867360000000 1.0
C      1  0.5005940000000  0.4344760000000  0.4805430000000 1.0
C      1  0.4994060000000  0.5655240000000  0.5194570000000 1.0
C      1  0.4840960000000  0.4323660000000  0.5280970000000 1.0
C      1  0.5159040000000  0.5676340000000  0.4719030000000 1.0
C      1  0.5054750000000  0.5114300000000  0.4350070000000 1.0
C      1  0.4945250000000  0.4885700000000  0.5649930000000 1.0
C      1  0.4548590000000  0.5015040000000  0.5063760000000 1.0
C      1  0.5451410000000  0.4984960000000  0.4936240000000 1.0
C      1  0.5289330000000  0.5342140000000  0.5528040000000 1.0
C      1  0.4710670000000  0.4657860000000  0.4471960000000 1.0
C      1  0.5598270000000  0.5123300000000  0.4488380000000 1.0
C      1  0.4401730000000  0.4876700000000  0.5511620000000 1.0
C      1  0.4659080000000  0.4751530000000  0.4981350000000 1.0
C      1  0.5340920000000  0.5248470000000  0.5018650000000 1.0
C      1  0.4479640000000  0.4597050000000  0.5481010000000 1.0
C      1  0.5520360000000  0.5402950000000  0.4518990000000 1.0
C      1  0.5348550000000  0.4469040000000  0.5214290000000 1.0
C      1  0.4651450000000  0.5530960000000  0.4785710000000 1.0
C      1  0.4889960000000  0.5243050000000  0.4975640000000 1.0
C      1  0.5110040000000  0.4756950000000  0.5024360000000 1.0
C      1  0.5212440000000  0.4823180000000  0.5527240000000 1.0
C      1  0.4787560000000  0.5176820000000  0.4472760000000 1.0
END
