TITL C-862505-1648-365 0.000108759789370289 125000 -623.393495245418 0 0 117 (D3) n - 1
REM
REM in /home/nfs/bkarasulu/CARBON/AIRSS/Generating-Clusters/TERSOFF/Higher-Symm/FIRE-HFTN
REM
REM
REM
REM
REM
REM ./C.cell (b20cbc046b6831c77cfcea5457e17084)
REM AIRSS Version 0.9.1 bugfix July 2018 build 013d7b7c2542+ Fri, 06 Jul 2018 19:26:36 +0100
REM compiler GCC version 9.2.1 20190827 (Red Hat 9.2.1-1)
REM options -cpp -mtune=generic -march=x86-64 -g -O0 -fpre-include=/usr/include/finclude/math-vector-fortran.h
REM seed -630557682 -407034659 -1930322758 -274906854 -1836100548 -217956797 -837288102 685734321 1110445384 1099774737 -48069341 -229345797 465545564 -511619369 308613328 -1542285211 1671833936 -1382309324 -2095970363 813236294 1701397375 147767647 1676682400 1003385366 -1521863960 -1464017172 1450314931 -1396024409 51681100 215375180 -1061097202 -1062284219 -2036652902
REM
CELL 1.54180   50.00000   50.00000   50.00000   90.00000   90.00000   90.00000
LATT -1
SFAC C  
C      1  0.5126340000000  0.4338300000000  0.4920490000000 1.0
C      1  0.5509880000000  0.5440260000000  0.4920490000000 1.0
C      1  0.4363780000000  0.5221440000000  0.4920490000000 1.0
C      1  0.4873660000000  0.4338300000000  0.5081280000000 1.0
C      1  0.4490120000000  0.5440260000000  0.5081280000000 1.0
C      1  0.5636220000000  0.5221440000000  0.5081280000000 1.0
C      1  0.5165670000000  0.4729550000000  0.5346890000000 1.0
C      1  0.5151380000000  0.5278710000000  0.5346890000000 1.0
C      1  0.4682940000000  0.4991750000000  0.5346890000000 1.0
C      1  0.4834330000000  0.4729550000000  0.4654880000000 1.0
C      1  0.4848620000000  0.5278710000000  0.4654880000000 1.0
C      1  0.5317060000000  0.4991750000000  0.4654880000000 1.0
C      1  0.5014310000000  0.4698750000000  0.4068360000000 1.0
C      1  0.5253740000000  0.5163020000000  0.4068360000000 1.0
C      1  0.4731950000000  0.5138230000000  0.4068360000000 1.0
C      1  0.4985690000000  0.4698750000000  0.5933410000000 1.0
C      1  0.4746260000000  0.5163020000000  0.5933410000000 1.0
C      1  0.5268050000000  0.5138230000000  0.5933420000000 1.0
C      1  0.4959120000000  0.4441250000000  0.5750510000000 1.0
C      1  0.5504330000000  0.5243970000000  0.5750510000000 1.0
C      1  0.4536550000000  0.5314780000000  0.5750500000000 1.0
C      1  0.5040880000000  0.4441250000000  0.4251270000000 1.0
C      1  0.4495670000000  0.5243970000000  0.4251270000000 1.0
C      1  0.5463450000000  0.5314780000000  0.4251270000000 1.0
C      1  0.4682910000000  0.4719910000000  0.5238890000000 1.0
C      1  0.5401110000000  0.4865440000000  0.5238890000000 1.0
C      1  0.4915970000000  0.5414650000000  0.5238890000000 1.0
C      1  0.5317090000000  0.4719910000000  0.4762880000000 1.0
C      1  0.4598890000000  0.4865440000000  0.4762880000000 1.0
C      1  0.5084030000000  0.5414650000000  0.4762880000000 1.0
C      1  0.5882190000000  0.5315350000000  0.4707540000000 1.0
C      1  0.4285810000000  0.5606320000000  0.4707540000000 1.0
C      1  0.4832010000000  0.4078330000000  0.4707540000000 1.0
C      1  0.4117810000000  0.5315350000000  0.5294230000000 1.0
C      1  0.5714190000000  0.5606320000000  0.5294230000000 1.0
C      1  0.5167990000000  0.4078330000000  0.5294230000000 1.0
C      1  0.4564180000000  0.4505950000000  0.5415890000000 1.0
C      1  0.5645770000000  0.4869600000000  0.5415890000000 1.0
C      1  0.4790050000000  0.5624450000000  0.5415890000000 1.0
C      1  0.5435820000000  0.4505950000000  0.4585890000000 1.0
C      1  0.4354230000000  0.4869600000000  0.4585890000000 1.0
C      1  0.5209950000000  0.5624450000000  0.4585890000000 1.0
C      1  0.4772400000000  0.5637360000000  0.4433580000000 1.0
C      1  0.4561830000000  0.4484210000000  0.4433580000000 1.0
C      1  0.5665770000000  0.4878430000000  0.4433580000000 1.0
C      1  0.5227600000000  0.5637360000000  0.5568200000000 1.0
C      1  0.5438170000000  0.4484210000000  0.5568200000000 1.0
C      1  0.4334230000000  0.4878430000000  0.5568200000000 1.0
C      1  0.4697510000000  0.4371830000000  0.5642590000000 1.0
C      1  0.5695250000000  0.5052120000000  0.5642590000000 1.0
C      1  0.4607230000000  0.5576040000000  0.5642590000000 1.0
C      1  0.5302490000000  0.4371830000000  0.4359180000000 1.0
C      1  0.4304750000000  0.5052120000000  0.4359180000000 1.0
C      1  0.5392770000000  0.5576040000000  0.4359180000000 1.0
C      1  0.5440670000000  0.4764820000000  0.4256020000000 1.0
C      1  0.4983340000000  0.5499220000000  0.4256020000000 1.0
C      1  0.4575990000000  0.4735960000000  0.4256020000000 1.0
C      1  0.4559330000000  0.4764820000000  0.5745760000000 1.0
C      1  0.5016660000000  0.5499220000000  0.5745760000000 1.0
C      1  0.5424010000000  0.4735960000000  0.5745760000000 1.0
C      1  0.4665940000000  0.5138750000000  0.4841740000000 1.0
C      1  0.5046870000000  0.4641320000000  0.4841740000000 1.0
C      1  0.5287190000000  0.5219930000000  0.4841740000000 1.0
C      1  0.5334060000000  0.5138750000000  0.5160040000000 1.0
C      1  0.4953130000000  0.4641320000000  0.5160040000000 1.0
C      1  0.4712810000000  0.5219930000000  0.5160040000000 1.0
C      1  0.4832810000000  0.5906140000000  0.5302960000000 1.0
C      1  0.4298850000000  0.4402140000000  0.5302960000000 1.0
C      1  0.5868330000000  0.4691720000000  0.5302960000000 1.0
C      1  0.5167190000000  0.5906140000000  0.4698820000000 1.0
C      1  0.5701150000000  0.4402140000000  0.4698820000000 1.0
C      1  0.4131670000000  0.4691720000000  0.4698810000000 1.0
C      1  0.4798790000000  0.4325070000000  0.4369320000000 1.0
C      1  0.5685110000000  0.5163210000000  0.4369320000000 1.0
C      1  0.4516100000000  0.5511720000000  0.4369320000000 1.0
C      1  0.5201210000000  0.4325070000000  0.5632450000000 1.0
C      1  0.4314890000000  0.5163210000000  0.5632450000000 1.0
C      1  0.5483900000000  0.5511720000000  0.5632450000000 1.0
C      1  0.5163810000000  0.5753820000000  0.5274730000000 1.0
C      1  0.4265270000000  0.4764950000000  0.5274730000000 1.0
C      1  0.5570920000000  0.4481230000000  0.5274730000000 1.0
C      1  0.4836190000000  0.5753820000000  0.4727050000000 1.0
C      1  0.5734730000000  0.4764950000000  0.4727050000000 1.0
C      1  0.4429080000000  0.4481230000000  0.4727050000000 1.0
C      1  0.5377860000000  0.4258560000000  0.5121440000000 1.0
C      1  0.5453180000000  0.5697960000000  0.5121440000000 1.0
C      1  0.4168960000000  0.5043490000000  0.5121440000000 1.0
C      1  0.4622140000000  0.4258560000000  0.4880340000000 1.0
C      1  0.4546820000000  0.5697960000000  0.4880330000000 1.0
C      1  0.5831040000000  0.5043490000000  0.4880340000000 1.0
C      1  0.4843140000000  0.4133540000000  0.5313000000000 1.0
C      1  0.5828810000000  0.5297390000000  0.5313000000000 1.0
C      1  0.4328050000000  0.5569080000000  0.5313000000000 1.0
C      1  0.5156860000000  0.4133540000000  0.4688770000000 1.0
C      1  0.4171190000000  0.5297390000000  0.4688770000000 1.0
C      1  0.5671950000000  0.5569080000000  0.4688770000000 1.0
C      1  0.5001410000000  0.5317720000000  0.6010150000000 1.0
C      1  0.4724140000000  0.4842360000000  0.6010150000000 1.0
C      1  0.5274450000000  0.4839920000000  0.6010150000000 1.0
C      1  0.4998590000000  0.5317720000000  0.3991630000000 1.0
C      1  0.5275860000000  0.4842360000000  0.3991630000000 1.0
C      1  0.4725550000000  0.4839920000000  0.3991630000000 1.0
C      1  0.4522820000000  0.5846130000000  0.5179870000000 1.0
C      1  0.4505820000000  0.4163680000000  0.5179870000000 1.0
C      1  0.5971360000000  0.4990190000000  0.5179870000000 1.0
C      1  0.5477180000000  0.5846130000000  0.4821900000000 1.0
C      1  0.5494180000000  0.4163680000000  0.4821900000000 1.0
C      1  0.4028640000000  0.4990190000000  0.4821900000000 1.0
C      1  0.5205530000000  0.4996650000000  0.4374970000000 1.0
C      1  0.4900140000000  0.5179670000000  0.4374970000000 1.0
C      1  0.4894340000000  0.4823680000000  0.4374970000000 1.0
C      1  0.4794470000000  0.4996650000000  0.5626800000000 1.0
C      1  0.5099860000000  0.5179670000000  0.5626800000000 1.0
C      1  0.5105660000000  0.4823680000000  0.5626800000000 1.0
C      1  0.5516490000000  0.4701810000000  0.5000890000000 1.0
C      1  0.4483510000000  0.4701810000000  0.5000890000000 1.0
C      1  0.5000000000000  0.5596390000000  0.5000890000000 1.0
END
