TITL C-862503-991-1001 6.237904097914e-05 125000 -158.220559197031 0 0 32 (C4) n - 1
REM
REM in /home/nfs/bkarasulu/CARBON/AIRSS/Generating-Clusters/TERSOFF/Higher-Symm/FIRE-HFTN
REM
REM
REM
REM
REM
REM ./C.cell (b20cbc046b6831c77cfcea5457e17084)
REM AIRSS Version 0.9.1 bugfix July 2018 build 013d7b7c2542+ Fri, 06 Jul 2018 19:26:36 +0100
REM compiler GCC version 9.2.1 20190827 (Red Hat 9.2.1-1)
REM options -cpp -mtune=generic -march=x86-64 -g -O0 -fpre-include=/usr/include/finclude/math-vector-fortran.h
REM seed 1656261971 -43759613 -288657628 2004200459 -1773669144 -737576847 979032693 1102471887 -1896138417 526894753 -661561825 -689585915 1362343586 -1926607113 1927122382 169375001 -681248206 780445212 -1741215709 1526046640 -1709199859 -647275084 -869572681 133721873 -1695981428 -2021364199 1111501326 -2014739314 1706414225 -612564249 -312278311 1226307259 1964877712
REM
CELL 1.54180   50.00000   50.00000   50.00000   90.00000   90.00000   90.00000
LATT -1
SFAC C  
C      1  0.5694600000000  0.4772070000000  0.4929340000000 1.0
C      1  0.5694600000000  0.4929340000000  0.5227930000000 1.0
C      1  0.5694600000000  0.5227930000000  0.5070660000000 1.0
C      1  0.5694600000000  0.5070660000000  0.4772070000000 1.0
C      1  0.4911340000000  0.5424180000000  0.5217050000000 1.0
C      1  0.4911340000000  0.5217050000000  0.4575820000000 1.0
C      1  0.4911340000000  0.4575820000000  0.4782950000000 1.0
C      1  0.4911340000000  0.4782950000000  0.5424180000000 1.0
C      1  0.5190350000000  0.4861560000000  0.5446310000000 1.0
C      1  0.5190350000000  0.5446310000000  0.5138440000000 1.0
C      1  0.5190350000000  0.5138440000000  0.4553690000000 1.0
C      1  0.5190350000000  0.4553690000000  0.4861560000000 1.0
C      1  0.4891050000000  0.4323660000000  0.5654520000000 1.0
C      1  0.4891050000000  0.5654520000000  0.5676340000000 1.0
C      1  0.4891050000000  0.5676340000000  0.4345480000000 1.0
C      1  0.4891050000000  0.4345480000000  0.4323660000000 1.0
C      1  0.5360110000000  0.5223260000000  0.5069210000000 1.0
C      1  0.5360110000000  0.5069210000000  0.4776740000000 1.0
C      1  0.5360110000000  0.4776740000000  0.4930790000000 1.0
C      1  0.5360110000000  0.4930790000000  0.5223260000000 1.0
C      1  0.4409910000000  0.4892140000000  0.5210920000000 1.0
C      1  0.4409910000000  0.5210920000000  0.5107860000000 1.0
C      1  0.4409910000000  0.5107860000000  0.4789080000000 1.0
C      1  0.4409910000000  0.4789080000000  0.4892140000000 1.0
C      1  0.4744500000000  0.4891960000000  0.5211290000000 1.0
C      1  0.4744500000000  0.5211290000000  0.5108040000000 1.0
C      1  0.4744500000000  0.5108040000000  0.4788710000000 1.0
C      1  0.4744500000000  0.4788710000000  0.4891960000000 1.0
C      1  0.4798150000000  0.4594920000000  0.5615000000000 1.0
C      1  0.4798150000000  0.5615000000000  0.5405080000000 1.0
C      1  0.4798150000000  0.5405080000000  0.4385000000000 1.0
C      1  0.4798150000000  0.4385000000000  0.4594920000000 1.0
END
