TITL C-862132-7359-407 -0.000183703369601934 125000 -105.009166338299 0 0 21 (C3) n - 1
REM
REM in /home/nfs/bkarasulu/CARBON/AIRSS/Generating-Clusters/TERSOFF/Higher-Symm/FIRE-HFTN
REM
REM
REM
REM
REM
REM ./C.cell (b20cbc046b6831c77cfcea5457e17084)
REM AIRSS Version 0.9.1 bugfix July 2018 build 013d7b7c2542+ Fri, 06 Jul 2018 19:26:36 +0100
REM compiler GCC version 9.2.1 20190827 (Red Hat 9.2.1-1)
REM options -cpp -mtune=generic -march=x86-64 -g -O0 -fpre-include=/usr/include/finclude/math-vector-fortran.h
REM seed -356392618 -113921080 1862940388 -285707324 2141834941 1822323732 1043073820 -192391981 1806747224 -1014254509 956059428 -1112287449 1935991923 -388605025 1622722821 -821726321 -590893128 -2022647904 1970645959 -605140130 -980934832 -198552534 1501007528 -1305169304 1998776428 265825962 -186787057 1418475166 1184306842 829142356 -1664247743 1229728768 1733024572
REM
CELL 1.54180   50.00000   50.00000   50.00000   90.00000   90.00000   90.00000
LATT -1
SFAC C  
C      1  0.4734480000000  0.5112530000000  0.4534270000000 1.0
C      1  0.5230210000000  0.5173680000000  0.4534270000000 1.0
C      1  0.5035300000000  0.4713790000000  0.4534270000000 1.0
C      1  0.4939790000000  0.4804960000000  0.5514850000000 1.0
C      1  0.4861190000000  0.5149670000000  0.5514850000000 1.0
C      1  0.5199020000000  0.5045380000000  0.5514850000000 1.0
C      1  0.4965520000000  0.5279530000000  0.4432330000000 1.0
C      1  0.5259320000000  0.4890090000000  0.4432330000000 1.0
C      1  0.4775160000000  0.4830370000000  0.4432330000000 1.0
C      1  0.5163990000000  0.5123700000000  0.4839220000000 1.0
C      1  0.5025130000000  0.4796130000000  0.4839220000000 1.0
C      1  0.4810880000000  0.5080170000000  0.4839220000000 1.0
C      1  0.5660100000000  0.4981370000000  0.5321530000000 1.0
C      1  0.4653810000000  0.4437650000000  0.5321530000000 1.0
C      1  0.4686090000000  0.5580980000000  0.5321530000000 1.0
C      1  0.5046510000000  0.4611290000000  0.5059590000000 1.0
C      1  0.4640110000000  0.5154070000000  0.5059590000000 1.0
C      1  0.5313380000000  0.5234640000000  0.5059590000000 1.0
C      1  0.4729040000000  0.5294220000000  0.5298200000000 1.0
C      1  0.5390280000000  0.5087550000000  0.5298210000000 1.0
C      1  0.4880680000000  0.4618230000000  0.5298210000000 1.0
END
