TITL C-862503-991-381 0.448347597997871 125000 -70.415728282124 0 0 14 (C1) n - 1
REM
REM in /home/nfs/bkarasulu/CARBON/AIRSS/Generating-Clusters/TERSOFF/Higher-Symm/FIRE-HFTN
REM
REM
REM
REM
REM
REM ./C.cell (b20cbc046b6831c77cfcea5457e17084)
REM AIRSS Version 0.9.1 bugfix July 2018 build 013d7b7c2542+ Fri, 06 Jul 2018 19:26:36 +0100
REM compiler GCC version 9.2.1 20190827 (Red Hat 9.2.1-1)
REM options -cpp -mtune=generic -march=x86-64 -g -O0 -fpre-include=/usr/include/finclude/math-vector-fortran.h
REM seed -1124236884 821558220 -750432233 1490316220 -1709661137 -371743418 -1287526802 195093642 -2101936017 -271034460 -1456329512 1854931332 -837338077 -1328671262 1347133309 -214849854 1124746209 -922479012 1505647878 2112466045 -1854024459 527726448 1637448351 -556140859 -942461272 -1254695606 -2060755463 1393848343 -27431050 -1274779922 309933948 1443270175 1081161551
REM
CELL 1.54180   50.00000   50.00000   50.00000   90.00000   90.00000   90.00000
LATT -1
SFAC C  
C      1  0.5000290000000  0.5123130000000  0.5560680000000 1.0
C      1  0.5032240000000  0.4839380000000  0.5486160000000 1.0
C      1  0.4889720000000  0.4706140000000  0.5264640000000 1.0
C      1  0.5017120000000  0.4541770000000  0.5052720000000 1.0
C      1  0.5007950000000  0.4599270000000  0.4758700000000 1.0
C      1  0.5083850000000  0.4858420000000  0.4630610000000 1.0
C      1  0.4894380000000  0.5071660000000  0.4547770000000 1.0
C      1  0.4925770000000  0.5360820000000  0.4608810000000 1.0
C      1  0.4975080000000  0.5469530000000  0.4875220000000 1.0
C      1  0.5034400000000  0.5289420000000  0.5091300000000 1.0
C      1  0.5008970000000  0.5343750000000  0.5372030000000 1.0
C      1  0.4773970000000  0.4910300000000  0.4916370000000 1.0
C      1  0.5029120000000  0.5015370000000  0.5016260000000 1.0
C      1  0.5279430000000  0.4865810000000  0.5002210000000 1.0
END
