TITL C-862127-1500-906 0.000352053452307457 125000 -1024.60408209366 0 0 176 (C1) n - 1
REM
REM in /home/nfs/bkarasulu/CARBON/AIRSS/Generating-Clusters/TERSOFF/Higher-Symm/FIRE-HFTN
REM
REM
REM
REM
REM
REM ./C.cell (b20cbc046b6831c77cfcea5457e17084)
REM AIRSS Version 0.9.1 bugfix July 2018 build 013d7b7c2542+ Fri, 06 Jul 2018 19:26:36 +0100
REM compiler GCC version 9.2.1 20190827 (Red Hat 9.2.1-1)
REM options -cpp -mtune=generic -march=x86-64 -g -O0 -fpre-include=/usr/include/finclude/math-vector-fortran.h
REM seed 737358246 410655989 -1016839311 768374337 -458257339 729381618 -1715027177 133217436 -606328287 -1613904397 1426126051 -1354228466 -1656219362 -840002211 1666928030 -1641123955 1122254712 -1472579789 181274693 -653956950 -1232498700 -1019697789 222192329 -26066617 87802167 -49161483 1833674194 185166793 -796130183 2121693117 -544425775 760367464 -854248962
REM
CELL 1.54180   50.00000   50.00000   50.00000   90.00000   90.00000   90.00000
LATT -1
SFAC C  
C      1  0.3945850000000  0.4858480000000  0.5269410000000 1.0
C      1  0.4379610000000  0.4829790000000  0.3945920000000 1.0
C      1  0.5681500000000  0.4841170000000  0.4133020000000 1.0
C      1  0.6046860000000  0.4837900000000  0.5393930000000 1.0
C      1  0.4943540000000  0.4843430000000  0.6115510000000 1.0
C      1  0.3953370000000  0.5155630000000  0.5248150000000 1.0
C      1  0.4402350000000  0.5121450000000  0.4045540000000 1.0
C      1  0.5698260000000  0.5140830000000  0.4156400000000 1.0
C      1  0.6007410000000  0.5136100000000  0.5402370000000 1.0
C      1  0.4921820000000  0.5142700000000  0.6097290000000 1.0
C      1  0.4346140000000  0.5425180000000  0.4853950000000 1.0
C      1  0.4865940000000  0.5368110000000  0.4398090000000 1.0
C      1  0.5602170000000  0.5384950000000  0.4710630000000 1.0
C      1  0.5469570000000  0.5378550000000  0.5514260000000 1.0
C      1  0.4685650000000  0.5395080000000  0.5588130000000 1.0
C      1  0.4392220000000  0.4648300000000  0.4903940000000 1.0
C      1  0.4902910000000  0.4572080000000  0.4332240000000 1.0
C      1  0.5579180000000  0.4617160000000  0.4704120000000 1.0
C      1  0.5460340000000  0.4605700000000  0.5477360000000 1.0
C      1  0.4701850000000  0.4630000000000  0.5575630000000 1.0
C      1  0.4752480000000  0.4803560000000  0.4221280000000 1.0
C      1  0.5698420000000  0.4873230000000  0.4625990000000 1.0
C      1  0.5568520000000  0.4862730000000  0.5564820000000 1.0
C      1  0.4649530000000  0.4884470000000  0.5711390000000 1.0
C      1  0.4246340000000  0.4902090000000  0.4879210000000 1.0
C      1  0.4739680000000  0.5118100000000  0.4295630000000 1.0
C      1  0.5559050000000  0.5132490000000  0.4552330000000 1.0
C      1  0.5588280000000  0.5117040000000  0.5406720000000 1.0
C      1  0.4808050000000  0.5141250000000  0.5693270000000 1.0
C      1  0.4303090000000  0.5165530000000  0.5016130000000 1.0
C      1  0.4884190000000  0.5463290000000  0.5379830000000 1.0
C      1  0.4555510000000  0.5533930000000  0.5022630000000 1.0
C      1  0.4818550000000  0.5382960000000  0.4698860000000 1.0
C      1  0.5316910000000  0.5436220000000  0.4796690000000 1.0
C      1  0.5355500000000  0.5424260000000  0.5240070000000 1.0
C      1  0.4943690000000  0.4598980000000  0.5414750000000 1.0
C      1  0.4622440000000  0.4627390000000  0.5091370000000 1.0
C      1  0.4829580000000  0.4519810000000  0.4609770000000 1.0
C      1  0.5288500000000  0.4585160000000  0.4694950000000 1.0
C      1  0.5389170000000  0.4567320000000  0.5199600000000 1.0
C      1  0.4398470000000  0.4723310000000  0.4246960000000 1.0
C      1  0.5379870000000  0.4763370000000  0.4153100000000 1.0
C      1  0.5938730000000  0.4753180000000  0.5114430000000 1.0
C      1  0.5177040000000  0.4765420000000  0.5924980000000 1.0
C      1  0.4198440000000  0.4791680000000  0.5435340000000 1.0
C      1  0.4386320000000  0.5127400000000  0.4368020000000 1.0
C      1  0.5397660000000  0.5167480000000  0.4265100000000 1.0
C      1  0.5808220000000  0.5151100000000  0.5145440000000 1.0
C      1  0.5113360000000  0.5171360000000  0.5839600000000 1.0
C      1  0.4248910000000  0.5201880000000  0.5360980000000 1.0
C      1  0.4313980000000  0.5932680000000  0.4822410000000 1.0
C      1  0.4933660000000  0.5880080000000  0.4352600000000 1.0
C      1  0.5638440000000  0.5906750000000  0.4750420000000 1.0
C      1  0.5446900000000  0.5912170000000  0.5542420000000 1.0
C      1  0.4636330000000  0.5924670000000  0.5608340000000 1.0
C      1  0.4345690000000  0.4122320000000  0.4870680000000 1.0
C      1  0.4933460000000  0.4077400000000  0.4294610000000 1.0
C      1  0.5629450000000  0.4105790000000  0.4703780000000 1.0
C      1  0.5470780000000  0.4099360000000  0.5522490000000 1.0
C      1  0.4652390000000  0.4114460000000  0.5595970000000 1.0
C      1  0.4617840000000  0.5952080000000  0.5325670000000 1.0
C      1  0.4596270000000  0.5905530000000  0.4777990000000 1.0
C      1  0.5110440000000  0.5900310000000  0.4571600000000 1.0
C      1  0.5468470000000  0.5905090000000  0.4981080000000 1.0
C      1  0.5174850000000  0.5918320000000  0.5453610000000 1.0
C      1  0.4649880000000  0.4124810000000  0.5315100000000 1.0
C      1  0.4590690000000  0.4075380000000  0.4744650000000 1.0
C      1  0.5096490000000  0.4104560000000  0.4525480000000 1.0
C      1  0.5483520000000  0.4111100000000  0.4942890000000 1.0
C      1  0.5204330000000  0.4124500000000  0.5434610000000 1.0
C      1  0.4912700000000  0.4814440000000  0.3913990000000 1.0
C      1  0.6005620000000  0.4847860000000  0.4586430000000 1.0
C      1  0.5705020000000  0.4845510000000  0.5840020000000 1.0
C      1  0.4421350000000  0.4859300000000  0.5917090000000 1.0
C      1  0.3988910000000  0.4864500000000  0.4716290000000 1.0
C      1  0.4912060000000  0.5137300000000  0.3990700000000 1.0
C      1  0.6000030000000  0.5164280000000  0.4603700000000 1.0
C      1  0.5687500000000  0.5159920000000  0.5836500000000 1.0
C      1  0.4417920000000  0.5172630000000  0.5910370000000 1.0
C      1  0.3971500000000  0.5171620000000  0.4711470000000 1.0
C      1  0.4226390000000  0.4380380000000  0.4818330000000 1.0
C      1  0.4924600000000  0.4320720000000  0.4135810000000 1.0
C      1  0.5765220000000  0.4354650000000  0.4653380000000 1.0
C      1  0.5567210000000  0.4344780000000  0.5639010000000 1.0
C      1  0.4574850000000  0.4363600000000  0.5717770000000 1.0
C      1  0.4151370000000  0.5692820000000  0.4776920000000 1.0
C      1  0.4920520000000  0.5628820000000  0.4212180000000 1.0
C      1  0.5789670000000  0.5667430000000  0.4681420000000 1.0
C      1  0.5555670000000  0.5673020000000  0.5668420000000 1.0
C      1  0.4550700000000  0.5674940000000  0.5730840000000 1.0
C      1  0.4693000000000  0.4976140000000  0.5163280000000 1.0
C      1  0.4738010000000  0.4817880000000  0.4736570000000 1.0
C      1  0.5144040000000  0.4897040000000  0.4665260000000 1.0
C      1  0.5351720000000  0.4846360000000  0.5034710000000 1.0
C      1  0.5075820000000  0.4915020000000  0.5343140000000 1.0
C      1  0.4732420000000  0.5335690000000  0.5149970000000 1.0
C      1  0.4650800000000  0.5145500000000  0.4781550000000 1.0
C      1  0.5094130000000  0.5248750000000  0.4729710000000 1.0
C      1  0.5397580000000  0.5204170000000  0.5028360000000 1.0
C      1  0.5105150000000  0.5274330000000  0.5333560000000 1.0
C      1  0.4181170000000  0.5692530000000  0.5313390000000 1.0
C      1  0.4485850000000  0.5641060000000  0.4374820000000 1.0
C      1  0.5446690000000  0.5637100000000  0.4322210000000 1.0
C      1  0.5817680000000  0.5657080000000  0.5231450000000 1.0
C      1  0.5037270000000  0.5650070000000  0.5844590000000 1.0
C      1  0.4218880000000  0.4379280000000  0.5320090000000 1.0
C      1  0.4451040000000  0.4316870000000  0.4325930000000 1.0
C      1  0.5441470000000  0.4352250000000  0.4256190000000 1.0
C      1  0.5854010000000  0.4349020000000  0.5190810000000 1.0
C      1  0.5075120000000  0.4363750000000  0.5857890000000 1.0
C      1  0.4036800000000  0.4441280000000  0.5054240000000 1.0
C      1  0.4630720000000  0.4388220000000  0.4034320000000 1.0
C      1  0.5752170000000  0.4418100000000  0.4350620000000 1.0
C      1  0.5847570000000  0.4417500000000  0.5523030000000 1.0
C      1  0.4762620000000  0.4428160000000  0.5955770000000 1.0
C      1  0.4006950000000  0.5593580000000  0.5035530000000 1.0
C      1  0.4631640000000  0.5571830000000  0.4091630000000 1.0
C      1  0.5763780000000  0.5579350000000  0.4375740000000 1.0
C      1  0.5836000000000  0.5580390000000  0.5547080000000 1.0
C      1  0.4742380000000  0.5580110000000  0.5960810000000 1.0
C      1  0.5963020000000  0.5288270000000  0.4902400000000 1.0
C      1  0.5400370000000  0.5289610000000  0.5918500000000 1.0
C      1  0.4262150000000  0.5311470000000  0.5661120000000 1.0
C      1  0.4163520000000  0.5292150000000  0.4498230000000 1.0
C      1  0.5195200000000  0.5275950000000  0.4046820000000 1.0
C      1  0.6097640000000  0.4685110000000  0.4851490000000 1.0
C      1  0.5469930000000  0.4688600000000  0.6001830000000 1.0
C      1  0.4203800000000  0.4707330000000  0.5733050000000 1.0
C      1  0.4094130000000  0.4700800000000  0.4442560000000 1.0
C      1  0.5197770000000  0.4674380000000  0.3923160000000 1.0
C      1  0.5942110000000  0.4680860000000  0.5623680000000 1.0
C      1  0.4693930000000  0.4688530000000  0.6079840000000 1.0
C      1  0.3905660000000  0.4702400000000  0.5021490000000 1.0
C      1  0.4616250000000  0.4646530000000  0.3858050000000 1.0
C      1  0.5872050000000  0.4682960000000  0.4294750000000 1.0
C      1  0.5892220000000  0.5299400000000  0.5631650000000 1.0
C      1  0.4669770000000  0.5307520000000  0.6052930000000 1.0
C      1  0.3910630000000  0.5312830000000  0.4995940000000 1.0
C      1  0.4618290000000  0.5307300000000  0.3942480000000 1.0
C      1  0.5878330000000  0.5304800000000  0.4341390000000 1.0
C      1  0.4206480000000  0.5574950000000  0.4485780000000 1.0
C      1  0.5207300000000  0.5560520000000  0.4111710000000 1.0
C      1  0.5948510000000  0.5575870000000  0.4943050000000 1.0
C      1  0.5351420000000  0.5577060000000  0.5894860000000 1.0
C      1  0.4260930000000  0.5600980000000  0.5625110000000 1.0
C      1  0.4200870000000  0.4425570000000  0.4507400000000 1.0
C      1  0.5209580000000  0.4393000000000  0.4024930000000 1.0
C      1  0.5978080000000  0.4406970000000  0.4880320000000 1.0
C      1  0.5402100000000  0.4411680000000  0.5901500000000 1.0
C      1  0.4276340000000  0.4431700000000  0.5640210000000 1.0
C      1  0.5524790000000  0.5695110000000  0.5180840000000 1.0
C      1  0.5001050000000  0.5708710000000  0.5554500000000 1.0
C      1  0.4448750000000  0.5756030000000  0.5192060000000 1.0
C      1  0.4670500000000  0.5675060000000  0.4607450000000 1.0
C      1  0.5317370000000  0.5691340000000  0.4586540000000 1.0
C      1  0.5561570000000  0.4329760000000  0.5120230000000 1.0
C      1  0.5062010000000  0.4350680000000  0.5557560000000 1.0
C      1  0.4499900000000  0.4357920000000  0.5214130000000 1.0
C      1  0.4650180000000  0.4278510000000  0.4548790000000 1.0
C      1  0.5279330000000  0.4335790000000  0.4508570000000 1.0
C      1  0.4822730000000  0.3960960000000  0.5161690000000 1.0
C      1  0.4793840000000  0.3930690000000  0.4873100000000 1.0
C      1  0.5061000000000  0.3941510000000  0.4757100000000 1.0
C      1  0.5251400000000  0.3955820000000  0.4975850000000 1.0
C      1  0.5104160000000  0.3967010000000  0.5223210000000 1.0
C      1  0.4805100000000  0.6108840000000  0.5177850000000 1.0
C      1  0.4788150000000  0.6090060000000  0.4886490000000 1.0
C      1  0.5059980000000  0.6082540000000  0.4781750000000 1.0
C      1  0.5246790000000  0.6085040000000  0.5001820000000 1.0
C      1  0.5091760000000  0.6094800000000  0.5248160000000 1.0
C      1  0.5227120000000  0.4928090000000  0.4359420000000 1.0
C      1  0.5679570000000  0.4893430000000  0.5044260000000 1.0
C      1  0.4438990000000  0.4961550000000  0.5357140000000 1.0
C      1  0.4472230000000  0.4862120000000  0.4528360000000 1.0
C      1  0.5164840000000  0.4921980000000  0.5661680000000 1.0
C      1  0.4992810000000  0.4871520000000  0.4991530000000 1.0
END
