TITL C-862501-1041-160 0.145863710904515 125000 -950.107585525582 0 0 160 (C5) n - 1
REM
REM in /home/nfs/bkarasulu/CARBON/AIRSS/Generating-Clusters/TERSOFF/Higher-Symm/FIRE-HFTN
REM
REM
REM
REM
REM
REM ./C.cell (b20cbc046b6831c77cfcea5457e17084)
REM AIRSS Version 0.9.1 bugfix July 2018 build 013d7b7c2542+ Fri, 06 Jul 2018 19:26:36 +0100
REM compiler GCC version 9.2.1 20190827 (Red Hat 9.2.1-1)
REM options -cpp -mtune=generic -march=x86-64 -g -O0 -fpre-include=/usr/include/finclude/math-vector-fortran.h
REM seed 1074474688 1068214419 -580000821 252888184 -846689165 232821821 -764087994 1086614721 1411894861 -1892084058 -12791644 2128102944 -1402953228 -991814761 -739121481 288973227 -135178504 1581942442 449767050 -663498225 -1672799025 -1024845431 2079015868 -671810053 -1927907852 -1294705331 -602951411 1431717662 101695695 -883120357 -1073318142 -229241998 1748520245
REM
CELL 1.54180   50.00000   50.00000   50.00000   90.00000   90.00000   90.00000
LATT -1
SFAC C  
C      1  0.4636160000000  0.4865650000000  0.4505700000000 1.0
C      1  0.4759790000000  0.5304530000000  0.4505710000000 1.0
C      1  0.5215390000000  0.5322570000000  0.4505720000000 1.0
C      1  0.5373340000000  0.4894840000000  0.4505710000000 1.0
C      1  0.5015350000000  0.4612450000000  0.4505700000000 1.0
C      1  0.5026560000000  0.5251810000000  0.5694450000000 1.0
C      1  0.5247700000000  0.5052530000000  0.5694450000000 1.0
C      1  0.5126510000000  0.4780640000000  0.5694440000000 1.0
C      1  0.4830480000000  0.4811880000000  0.5694440000000 1.0
C      1  0.4768710000000  0.5103080000000  0.5694440000000 1.0
C      1  0.4924600000000  0.4214010000000  0.6026130000000 1.0
C      1  0.4229190000000  0.4828800000000  0.6026140000000 1.0
C      1  0.4598990000000  0.5680160000000  0.6026160000000 1.0
C      1  0.5522960000000  0.5591530000000  0.6026170000000 1.0
C      1  0.5724200000000  0.4685400000000  0.6026150000000 1.0
C      1  0.5330580000000  0.3973210000000  0.4821840000000 1.0
C      1  0.4125620000000  0.4368310000000  0.4821830000000 1.0
C      1  0.4129020000000  0.5636390000000  0.4821860000000 1.0
C      1  0.5336090000000  0.6025010000000  0.4821880000000 1.0
C      1  0.6078700000000  0.4997110000000  0.4821870000000 1.0
C      1  0.4994380000000  0.4051710000000  0.5789920000000 1.0
C      1  0.4096390000000  0.4712290000000  0.5789920000000 1.0
C      1  0.4447140000000  0.5770460000000  0.5789950000000 1.0
C      1  0.5561910000000  0.5763860000000  0.5789960000000 1.0
C      1  0.5900120000000  0.4701610000000  0.5789940000000 1.0
C      1  0.5373030000000  0.4485300000000  0.3938180000000 1.0
C      1  0.4625760000000  0.4486210000000  0.3938170000000 1.0
C      1  0.4395700000000  0.5197180000000  0.3938180000000 1.0
C      1  0.5000780000000  0.5635690000000  0.3938200000000 1.0
C      1  0.5604810000000  0.5195720000000  0.3938200000000 1.0
C      1  0.4351020000000  0.4864240000000  0.4541560000000 1.0
C      1  0.4670330000000  0.5575280000000  0.4541580000000 1.0
C      1  0.5445240000000  0.5491310000000  0.4541590000000 1.0
C      1  0.5604850000000  0.4728390000000  0.4541580000000 1.0
C      1  0.4928580000000  0.4340830000000  0.4541560000000 1.0
C      1  0.5817300000000  0.4621820000000  0.4157320000000 1.0
C      1  0.4892880000000  0.4105860000000  0.4157290000000 1.0
C      1  0.4116510000000  0.4825600000000  0.4157300000000 1.0
C      1  0.4561110000000  0.5786370000000  0.4157320000000 1.0
C      1  0.5612250000000  0.5660430000000  0.4157340000000 1.0
C      1  0.5474990000000  0.4948410000000  0.4030260000000 1.0
C      1  0.5097700000000  0.4532340000000  0.4030240000000 1.0
C      1  0.4585410000000  0.4762590000000  0.4030240000000 1.0
C      1  0.4646080000000  0.5320960000000  0.4030250000000 1.0
C      1  0.5195870000000  0.5435800000000  0.4030260000000 1.0
C      1  0.5704460000000  0.4960500000000  0.5341650000000 1.0
C      1  0.5180130000000  0.4317800000000  0.5341630000000 1.0
C      1  0.4406860000000  0.4617870000000  0.5341630000000 1.0
C      1  0.4453280000000  0.5446020000000  0.5341650000000 1.0
C      1  0.5255250000000  0.5657780000000  0.5341660000000 1.0
C      1  0.4812160000000  0.5180630000000  0.4236600000000 1.0
C      1  0.5113730000000  0.5234480000000  0.4236600000000 1.0
C      1  0.5258140000000  0.4964310000000  0.4236600000000 1.0
C      1  0.5045820000000  0.4743480000000  0.4236590000000 1.0
C      1  0.4770190000000  0.4877170000000  0.4236590000000 1.0
C      1  0.4811490000000  0.4027610000000  0.4795660000000 1.0
C      1  0.4016940000000  0.4878800000000  0.4795670000000 1.0
C      1  0.4580950000000  0.5897490000000  0.4795690000000 1.0
C      1  0.5724070000000  0.5675890000000  0.4795700000000 1.0
C      1  0.5866560000000  0.4520230000000  0.4795680000000 1.0
C      1  0.5263890000000  0.4374280000000  0.5064470000000 1.0
C      1  0.4486450000000  0.4555660000000  0.5064460000000 1.0
C      1  0.4418710000000  0.5351110000000  0.5064480000000 1.0
C      1  0.5154290000000  0.5661330000000  0.5064500000000 1.0
C      1  0.5676640000000  0.5057620000000  0.5064490000000 1.0
C      1  0.4951600000000  0.4507190000000  0.6042530000000 1.0
C      1  0.4516370000000  0.4893720000000  0.6042530000000 1.0
C      1  0.4749480000000  0.5427090000000  0.6042550000000 1.0
C      1  0.5328780000000  0.5370210000000  0.6042550000000 1.0
C      1  0.5453700000000  0.4801680000000  0.6042540000000 1.0
C      1  0.5543430000000  0.5879450000000  0.4668350000000 1.0
C      1  0.6004330000000  0.4754940000000  0.4668340000000 1.0
C      1  0.5077290000000  0.3969100000000  0.4668310000000 1.0
C      1  0.4043440000000  0.4607940000000  0.4668310000000 1.0
C      1  0.4331530000000  0.5788600000000  0.4668340000000 1.0
C      1  0.4345610000000  0.5054800000000  0.5598870000000 1.0
C      1  0.4849910000000  0.5639280000000  0.5598890000000 1.0
C      1  0.5561620000000  0.5340280000000  0.5598890000000 1.0
C      1  0.5497180000000  0.4571000000000  0.5598880000000 1.0
C      1  0.4745640000000  0.4394570000000  0.5598860000000 1.0
C      1  0.4874280000000  0.5218420000000  0.5304700000000 1.0
C      1  0.5168890000000  0.5187050000000  0.5304700000000 1.0
C      1  0.5230090000000  0.4897170000000  0.5304700000000 1.0
C      1  0.4973310000000  0.4749390000000  0.5304690000000 1.0
C      1  0.4753410000000  0.4947930000000  0.5304690000000 1.0
C      1  0.4163850000000  0.5349600000000  0.4915300000000 1.0
C      1  0.5074100000000  0.5903260000000  0.4915320000000 1.0
C      1  0.5881950000000  0.5208650000000  0.4915320000000 1.0
C      1  0.5470980000000  0.4225690000000  0.4915290000000 1.0
C      1  0.4409130000000  0.4312800000000  0.4915280000000 1.0
C      1  0.5390870000000  0.4307100000000  0.5542080000000 1.0
C      1  0.4461800000000  0.4414120000000  0.5542070000000 1.0
C      1  0.4276490000000  0.5330790000000  0.5542090000000 1.0
C      1  0.5091030000000  0.5790300000000  0.5542110000000 1.0
C      1  0.5779760000000  0.5157620000000  0.5542100000000 1.0
C      1  0.3970670000000  0.4867180000000  0.5574190000000 1.0
C      1  0.4555610000000  0.5937900000000  0.5574220000000 1.0
C      1  0.5754670000000  0.5712450000000  0.5574230000000 1.0
C      1  0.5910800000000  0.4502410000000  0.5574210000000 1.0
C      1  0.4808220000000  0.3980000000000  0.5574180000000 1.0
C      1  0.4296820000000  0.4178460000000  0.5548010000000 1.0
C      1  0.4001380000000  0.5414880000000  0.5548030000000 1.0
C      1  0.5085990000000  0.6077930000000  0.5548060000000 1.0
C      1  0.6051750000000  0.5251310000000  0.5548050000000 1.0
C      1  0.5564020000000  0.4077370000000  0.5548020000000 1.0
C      1  0.6004360000000  0.5435300000000  0.5086030000000 1.0
C      1  0.5724360000000  0.4179310000000  0.5086000000000 1.0
C      1  0.4443320000000  0.4057480000000  0.5085980000000 1.0
C      1  0.3931590000000  0.5238180000000  0.5086000000000 1.0
C      1  0.4896370000000  0.6089720000000  0.5086030000000 1.0
C      1  0.5479960000000  0.4795220000000  0.5413000000000 1.0
C      1  0.4953560000000  0.4480240000000  0.5412980000000 1.0
C      1  0.4491340000000  0.4883540000000  0.5412990000000 1.0
C      1  0.4732060000000  0.5447770000000  0.5413000000000 1.0
C      1  0.5343060000000  0.5393180000000  0.5413010000000 1.0
C      1  0.4178240000000  0.5121220000000  0.4663050000000 1.0
C      1  0.4861350000000  0.5819010000000  0.4663070000000 1.0
C      1  0.5736080000000  0.5384960000000  0.4663070000000 1.0
C      1  0.5593580000000  0.4418920000000  0.4663050000000 1.0
C      1  0.4630780000000  0.4255920000000  0.4663040000000 1.0
C      1  0.3902920000000  0.4943840000000  0.5062370000000 1.0
C      1  0.4607570000000  0.6026020000000  0.5062400000000 1.0
C      1  0.5854540000000  0.5690280000000  0.5062410000000 1.0
C      1  0.5920560000000  0.4400590000000  0.5062380000000 1.0
C      1  0.4714400000000  0.3939260000000  0.5062360000000 1.0
C      1  0.5914470000000  0.5331120000000  0.4430820000000 1.0
C      1  0.5597490000000  0.4232620000000  0.4430800000000 1.0
C      1  0.4454810000000  0.4194630000000  0.4430780000000 1.0
C      1  0.4065570000000  0.5269650000000  0.4430800000000 1.0
C      1  0.4967690000000  0.5972040000000  0.4430820000000 1.0
C      1  0.5731950000000  0.5815330000000  0.5298790000000 1.0
C      1  0.6001620000000  0.4555820000000  0.5298770000000 1.0
C      1  0.4887080000000  0.3910140000000  0.5298740000000 1.0
C      1  0.3928590000000  0.4770600000000  0.5298740000000 1.0
C      1  0.4450750000000  0.5948070000000  0.5298770000000 1.0
C      1  0.5088560000000  0.4110610000000  0.4392420000000 1.0
C      1  0.4181500000000  0.4640950000000  0.4392410000000 1.0
C      1  0.4405590000000  0.5667500000000  0.4392440000000 1.0
C      1  0.5451140000000  0.5771600000000  0.4392450000000 1.0
C      1  0.5873240000000  0.4809390000000  0.4392440000000 1.0
C      1  0.5920250000000  0.5083090000000  0.4280360000000 1.0
C      1  0.5363390000000  0.4150480000000  0.4280330000000 1.0
C      1  0.4304340000000  0.4391900000000  0.4280320000000 1.0
C      1  0.4206690000000  0.5473720000000  0.4280340000000 1.0
C      1  0.5205380000000  0.5900890000000  0.4280360000000 1.0
C      1  0.5218150000000  0.4627150000000  0.5933040000000 1.0
C      1  0.4712820000000  0.4677290000000  0.5933030000000 1.0
C      1  0.4604350000000  0.5173380000000  0.5933040000000 1.0
C      1  0.5042640000000  0.5429840000000  0.5933050000000 1.0
C      1  0.5421990000000  0.5092250000000  0.5933050000000 1.0
C      1  0.4878390000000  0.4343200000000  0.3983270000000 1.0
C      1  0.4337750000000  0.4912730000000  0.3983280000000 1.0
C      1  0.4712340000000  0.5602890000000  0.3983300000000 1.0
C      1  0.5484480000000  0.5459910000000  0.3983300000000 1.0
C      1  0.5587100000000  0.4681380000000  0.3983290000000 1.0
C      1  0.4279830000000  0.4010030000000  0.5318950000000 1.0
C      1  0.3835940000000  0.5378990000000  0.5318970000000 1.0
C      1  0.5000730000000  0.6224190000000  0.5319010000000 1.0
C      1  0.6164510000000  0.5377590000000  0.5319010000000 1.0
C      1  0.5718970000000  0.4009160000000  0.5318970000000 1.0
END
