TITL C-862507-1800-232 12.3344296905662 125000 -765.835173439456 0 0 142 (C4) n - 1
REM
REM in /home/nfs/bkarasulu/CARBON/AIRSS/Generating-Clusters/TERSOFF/Higher-Symm/FIRE-HFTN
REM
REM
REM
REM
REM
REM ./C.cell (b20cbc046b6831c77cfcea5457e17084)
REM AIRSS Version 0.9.1 bugfix July 2018 build 013d7b7c2542+ Fri, 06 Jul 2018 19:26:36 +0100
REM compiler GCC version 9.2.1 20190827 (Red Hat 9.2.1-1)
REM options -cpp -mtune=generic -march=x86-64 -g -O0 -fpre-include=/usr/include/finclude/math-vector-fortran.h
REM seed 973901875 802848777 405698983 677426511 281152597 -406952199 1960897640 -821062763 178136847 1758662897 992917405 -1845409245 2122904208 -6994836 -659745984 -1101071959 1414374476 1658298371 -1479137553 1988531456 1289157291 -1717210485 1729055978 -1661982001 1919460519 427337970 1060617735 1887199746 345473051 1428482716 -1336482317 655628199 1306692351
REM
CELL 1.54180   50.00000   50.00000   50.00000   90.00000   90.00000   90.00000
LATT -1
SFAC C  
C      1  0.4414610000000  0.4675270000000  0.4291820000000 1.0
C      1  0.4671110000000  0.5589280000000  0.4291830000000 1.0
C      1  0.5585110000000  0.5332780000000  0.4291820000000 1.0
C      1  0.5328610000000  0.4418770000000  0.4291810000000 1.0
C      1  0.4423060000000  0.4662850000000  0.5713920000000 1.0
C      1  0.4658700000000  0.5580820000000  0.5713930000000 1.0
C      1  0.5576670000000  0.5345180000000  0.5713930000000 1.0
C      1  0.5341030000000  0.4427210000000  0.5713920000000 1.0
C      1  0.5574160000000  0.3897930000000  0.4783240000000 1.0
C      1  0.3893770000000  0.4429720000000  0.4783250000000 1.0
C      1  0.4425560000000  0.6110110000000  0.4783260000000 1.0
C      1  0.6105950000000  0.5578330000000  0.4783250000000 1.0
C      1  0.5573150000000  0.3867510000000  0.5202090000000 1.0
C      1  0.3863350000000  0.4430730000000  0.5202100000000 1.0
C      1  0.4426570000000  0.6140530000000  0.5202120000000 1.0
C      1  0.6136370000000  0.5577310000000  0.5202110000000 1.0
C      1  0.5354160000000  0.4427260000000  0.4850570000000 1.0
C      1  0.4423100000000  0.4649720000000  0.4850570000000 1.0
C      1  0.4645560000000  0.5580780000000  0.4850580000000 1.0
C      1  0.5576620000000  0.5358320000000  0.4850580000000 1.0
C      1  0.5356200000000  0.4441650000000  0.5154930000000 1.0
C      1  0.4437500000000  0.4647680000000  0.5154930000000 1.0
C      1  0.4643530000000  0.5566380000000  0.5154940000000 1.0
C      1  0.5562230000000  0.5360350000000  0.5154940000000 1.0
C      1  0.5202470000000  0.4787690000000  0.4136020000000 1.0
C      1  0.4783520000000  0.4801420000000  0.4136020000000 1.0
C      1  0.4797260000000  0.5220370000000  0.4136030000000 1.0
C      1  0.5216200000000  0.5206630000000  0.4136030000000 1.0
C      1  0.5206280000000  0.4791310000000  0.5873830000000 1.0
C      1  0.4787160000000  0.4797590000000  0.5873830000000 1.0
C      1  0.4793440000000  0.5216710000000  0.5873840000000 1.0
C      1  0.5212570000000  0.5210430000000  0.5873840000000 1.0
C      1  0.5160050000000  0.5623480000000  0.5926490000000 1.0
C      1  0.5619330000000  0.4843830000000  0.5926480000000 1.0
C      1  0.4839680000000  0.4384540000000  0.5926480000000 1.0
C      1  0.4380390000000  0.5164200000000  0.5926490000000 1.0
C      1  0.5172690000000  0.5620050000000  0.4078290000000 1.0
C      1  0.5615880000000  0.4831200000000  0.4078290000000 1.0
C      1  0.4827030000000  0.4388010000000  0.4078280000000 1.0
C      1  0.4383840000000  0.5176860000000  0.4078290000000 1.0
C      1  0.5260260000000  0.4816440000000  0.5316160000000 1.0
C      1  0.4812290000000  0.4743620000000  0.5316150000000 1.0
C      1  0.4739460000000  0.5191590000000  0.5316160000000 1.0
C      1  0.5187430000000  0.5264420000000  0.5316160000000 1.0
C      1  0.5261050000000  0.4803930000000  0.4691510000000 1.0
C      1  0.4799760000000  0.4742840000000  0.4691510000000 1.0
C      1  0.4738680000000  0.5204120000000  0.4691510000000 1.0
C      1  0.5199960000000  0.5265210000000  0.4691510000000 1.0
C      1  0.4872360000000  0.5516490000000  0.4058330000000 1.0
C      1  0.5512320000000  0.5131530000000  0.4058330000000 1.0
C      1  0.5127360000000  0.4491570000000  0.4058320000000 1.0
C      1  0.4487410000000  0.4876530000000  0.4058330000000 1.0
C      1  0.4861490000000  0.5514400000000  0.5948710000000 1.0
C      1  0.5510250000000  0.5142390000000  0.5948700000000 1.0
C      1  0.5138240000000  0.4493620000000  0.5948700000000 1.0
C      1  0.4489470000000  0.4865630000000  0.5948700000000 1.0
C      1  0.5498830000000  0.4821360000000  0.4862010000000 1.0
C      1  0.4817200000000  0.4505050000000  0.4862000000000 1.0
C      1  0.4500890000000  0.5186680000000  0.4862010000000 1.0
C      1  0.5182520000000  0.5502990000000  0.4862010000000 1.0
C      1  0.5497520000000  0.4837030000000  0.5144740000000 1.0
C      1  0.4832870000000  0.4506360000000  0.5144740000000 1.0
C      1  0.4502200000000  0.5171010000000  0.5144750000000 1.0
C      1  0.5166860000000  0.5501680000000  0.5144750000000 1.0
C      1  0.4676280000000  0.5119780000000  0.4418570000000 1.0
C      1  0.5115610000000  0.5327610000000  0.4418570000000 1.0
C      1  0.5323450000000  0.4888270000000  0.4418570000000 1.0
C      1  0.4884110000000  0.4680440000000  0.4418570000000 1.0
C      1  0.4676930000000  0.5112210000000  0.5591080000000 1.0
C      1  0.5108050000000  0.5326940000000  0.5591080000000 1.0
C      1  0.5322790000000  0.4895820000000  0.5591080000000 1.0
C      1  0.4891670000000  0.4681080000000  0.5591080000000 1.0
C      1  0.5315090000000  0.3988860000000  0.4682150000000 1.0
C      1  0.3984700000000  0.4688790000000  0.4682160000000 1.0
C      1  0.4684630000000  0.6019180000000  0.4682170000000 1.0
C      1  0.6015020000000  0.5319260000000  0.4682160000000 1.0
C      1  0.5302970000000  0.3933620000000  0.5296740000000 1.0
C      1  0.3929470000000  0.4700910000000  0.5296750000000 1.0
C      1  0.4696750000000  0.6074410000000  0.5296770000000 1.0
C      1  0.6070250000000  0.5307130000000  0.5296760000000 1.0
C      1  0.4591870000000  0.4396690000000  0.5664890000000 1.0
C      1  0.4392540000000  0.5412010000000  0.5664900000000 1.0
C      1  0.5407860000000  0.5611340000000  0.5664910000000 1.0
C      1  0.5607190000000  0.4596020000000  0.5664900000000 1.0
C      1  0.4577370000000  0.4405500000000  0.4337700000000 1.0
C      1  0.4401330000000  0.5426520000000  0.4337710000000 1.0
C      1  0.5422350000000  0.5602550000000  0.4337710000000 1.0
C      1  0.5598390000000  0.4581540000000  0.4337700000000 1.0
C      1  0.5598520000000  0.4441300000000  0.5337000000000 1.0
C      1  0.4437140000000  0.4405360000000  0.5337000000000 1.0
C      1  0.4401210000000  0.5566740000000  0.5337010000000 1.0
C      1  0.5562580000000  0.5602670000000  0.5337010000000 1.0
C      1  0.5595110000000  0.4431390000000  0.4667550000000 1.0
C      1  0.4427230000000  0.4408780000000  0.4667550000000 1.0
C      1  0.4404610000000  0.5576650000000  0.4667560000000 1.0
C      1  0.5572490000000  0.5599270000000  0.4667560000000 1.0
C      1  0.5126930000000  0.5762780000000  0.4737930000000 1.0
C      1  0.5758620000000  0.4876950000000  0.4737920000000 1.0
C      1  0.4872790000000  0.4245260000000  0.4737910000000 1.0
C      1  0.4241100000000  0.5131100000000  0.4737920000000 1.0
C      1  0.5106030000000  0.5761560000000  0.5265710000000 1.0
C      1  0.5757410000000  0.4897850000000  0.5265700000000 1.0
C      1  0.4893700000000  0.4246470000000  0.5265700000000 1.0
C      1  0.4242320000000  0.5110180000000  0.5265710000000 1.0
C      1  0.4474250000000  0.4899130000000  0.4477290000000 1.0
C      1  0.4894970000000  0.5529640000000  0.4477290000000 1.0
C      1  0.5525470000000  0.5108920000000  0.4477290000000 1.0
C      1  0.5104760000000  0.4478410000000  0.4477280000000 1.0
C      1  0.4480500000000  0.4887310000000  0.5529590000000 1.0
C      1  0.4883160000000  0.5523370000000  0.5529590000000 1.0
C      1  0.5519220000000  0.5120720000000  0.5529590000000 1.0
C      1  0.5116570000000  0.4484660000000  0.5529580000000 1.0
C      1  0.5238330000000  0.5825040000000  0.5510060000000 1.0
C      1  0.5820890000000  0.4765540000000  0.5510050000000 1.0
C      1  0.4761390000000  0.4182990000000  0.5510040000000 1.0
C      1  0.4178840000000  0.5242490000000  0.5510050000000 1.0
C      1  0.5261660000000  0.5822070000000  0.4493950000000 1.0
C      1  0.5817910000000  0.4742230000000  0.4493940000000 1.0
C      1  0.4738060000000  0.4185980000000  0.4493940000000 1.0
C      1  0.4181810000000  0.5265820000000  0.4493950000000 1.0
C      1  0.5802730000000  0.4249630000000  0.4761710000000 1.0
C      1  0.4245460000000  0.4201150000000  0.4761710000000 1.0
C      1  0.4196990000000  0.5758420000000  0.4761720000000 1.0
C      1  0.5754260000000  0.5806890000000  0.4761720000000 1.0
C      1  0.5803210000000  0.4255400000000  0.5245020000000 1.0
C      1  0.4251250000000  0.4200670000000  0.5245020000000 1.0
C      1  0.4196510000000  0.5752630000000  0.5245040000000 1.0
C      1  0.5748480000000  0.5807370000000  0.5245030000000 1.0
C      1  0.4904650000000  0.5937060000000  0.5140520000000 1.0
C      1  0.5932900000000  0.5099230000000  0.5140510000000 1.0
C      1  0.5095070000000  0.4070980000000  0.5140500000000 1.0
C      1  0.4066820000000  0.4908810000000  0.5140510000000 1.0
C      1  0.4910450000000  0.5931800000000  0.4847820000000 1.0
C      1  0.5927640000000  0.5093440000000  0.4847810000000 1.0
C      1  0.5089280000000  0.4076240000000  0.4847800000000 1.0
C      1  0.4072080000000  0.4914610000000  0.4847810000000 1.0
C      1  0.5753720000000  0.4053640000000  0.5008610000000 1.0
C      1  0.4049480000000  0.4250170000000  0.5008610000000 1.0
C      1  0.4246010000000  0.5954400000000  0.5008630000000 1.0
C      1  0.5950240000000  0.5757870000000  0.5008620000000 1.0
C      1  0.4999860000000  0.5004010000000  0.6000500000000 1.0
C      1  0.4999860000000  0.5004030000000  0.4011170000000 1.0
END
