TITL C-862503-991-705 0.089457868694491 125000 -388.392255081911 0 0 67 (C5) n - 1
REM
REM in /home/nfs/bkarasulu/CARBON/AIRSS/Generating-Clusters/TERSOFF/Higher-Symm/FIRE-HFTN
REM
REM
REM
REM
REM
REM ./C.cell (b20cbc046b6831c77cfcea5457e17084)
REM AIRSS Version 0.9.1 bugfix July 2018 build 013d7b7c2542+ Fri, 06 Jul 2018 19:26:36 +0100
REM compiler GCC version 9.2.1 20190827 (Red Hat 9.2.1-1)
REM options -cpp -mtune=generic -march=x86-64 -g -O0 -fpre-include=/usr/include/finclude/math-vector-fortran.h
REM seed 1868766188 413711744 -641556616 100532278 272977793 1205028295 -1256879103 1552900767 -175057041 465550265 246122757 -2125928114 -490199581 973967318 1996279681 1378733754 2106521202 -605062646 1924094335 -1299079194 -1378062141 -688012139 1367879056 -2095401750 2122108895 741949734 -1852856619 -1436896887 -377591132 556680672 -814236627 75733875 1099595912
REM
CELL 1.54180   50.00000   50.00000   50.00000   90.00000   90.00000   90.00000
LATT -1
SFAC C  
C      1  0.5668500000000  0.5364790000000  0.4639800000000 1.0
C      1  0.5668500000000  0.5452400000000  0.5230690000000 1.0
C      1  0.5668500000000  0.4917490000000  0.5496610000000 1.0
C      1  0.5668500000000  0.4499290000000  0.5070060000000 1.0
C      1  0.5668500000000  0.4775740000000  0.4540520000000 1.0
C      1  0.5002180000000  0.5389510000000  0.4714770000000 1.0
C      1  0.5002180000000  0.5388730000000  0.5277370000000 1.0
C      1  0.5002180000000  0.4853420000000  0.5450490000000 1.0
C      1  0.5002180000000  0.4523360000000  0.4994880000000 1.0
C      1  0.5002180000000  0.4854680000000  0.4540180000000 1.0
C      1  0.5248070000000  0.5004760000000  0.5372300000000 1.0
C      1  0.5248070000000  0.4644490000000  0.5114640000000 1.0
C      1  0.5248070000000  0.4778210000000  0.4692380000000 1.0
C      1  0.5248060000000  0.5221120000000  0.4689070000000 1.0
C      1  0.5248070000000  0.5361140000000  0.5109290000000 1.0
C      1  0.4286740000000  0.5107650000000  0.5485410000000 1.0
C      1  0.4286750000000  0.4568710000000  0.5247450000000 1.0
C      1  0.4286740000000  0.4628480000000  0.4661360000000 1.0
C      1  0.4286740000000  0.5204360000000  0.4537090000000 1.0
C      1  0.4286740000000  0.5500500000000  0.5046380000000 1.0
C      1  0.4385580000000  0.5377140000000  0.5501440000000 1.0
C      1  0.4385580000000  0.4636740000000  0.5508710000000 1.0
C      1  0.4385580000000  0.4401040000000  0.4806790000000 1.0
C      1  0.4385580000000  0.4995760000000  0.4365720000000 1.0
C      1  0.4385580000000  0.5599020000000  0.4795040000000 1.0
C      1  0.5460030000000  0.4553150000000  0.4606410000000 1.0
C      1  0.5460030000000  0.5233340000000  0.4448470000000 1.0
C      1  0.5460030000000  0.5593740000000  0.5046560000000 1.0
C      1  0.5460030000000  0.5136300000000  0.5574140000000 1.0
C      1  0.5460030000000  0.4493180000000  0.5302110000000 1.0
C      1  0.5212230000000  0.4384340000000  0.5442420000000 1.0
C      1  0.5212230000000  0.4386090000000  0.4546260000000 1.0
C      1  0.5212220000000  0.5238920000000  0.4270990000000 1.0
C      1  0.5212220000000  0.5764260000000  0.4997020000000 1.0
C      1  0.5212230000000  0.5236100000000  0.5721010000000 1.0
C      1  0.5587390000000  0.4644260000000  0.5525340000000 1.0
C      1  0.5587390000000  0.4387540000000  0.4819080000000 1.0
C      1  0.5587380000000  0.4979900000000  0.4356680000000 1.0
C      1  0.5587380000000  0.5602720000000  0.4777160000000 1.0
C      1  0.5587380000000  0.5395280000000  0.5499430000000 1.0
C      1  0.5023890000000  0.4345270000000  0.4761450000000 1.0
C      1  0.5023890000000  0.5021650000000  0.4298670000000 1.0
C      1  0.5023890000000  0.5670800000000  0.4798940000000 1.0
C      1  0.5023890000000  0.5395610000000  0.5570900000000 1.0
C      1  0.5023890000000  0.4576390000000  0.5547740000000 1.0
C      1  0.5829060000000  0.4747500000000  0.5037840000000 1.0
C      1  0.5829060000000  0.4883090000000  0.4766620000000 1.0
C      1  0.5829060000000  0.5182930000000  0.4811760000000 1.0
C      1  0.5829060000000  0.5232650000000  0.5110880000000 1.0
C      1  0.5829060000000  0.4963540000000  0.5250600000000 1.0
C      1  0.4741940000000  0.4942040000000  0.5347740000000 1.0
C      1  0.4741940000000  0.4648470000000  0.5047410000000 1.0
C      1  0.4741940000000  0.4843380000000  0.4675400000000 1.0
C      1  0.4741940000000  0.5257420000000  0.4745810000000 1.0
C      1  0.4741940000000  0.5318390000000  0.5161340000000 1.0
C      1  0.4104750000000  0.5055940000000  0.5250780000000 1.0
C      1  0.4104750000000  0.4775880000000  0.5125770000000 1.0
C      1  0.4104750000000  0.4808230000000  0.4820780000000 1.0
C      1  0.4104750000000  0.5108280000000  0.4757300000000 1.0
C      1  0.4104750000000  0.5261380000000  0.5023060000000 1.0
C      1  0.4494210000000  0.5386230000000  0.4634970000000 1.0
C      1  0.4494220000000  0.5463610000000  0.5249600000000 1.0
C      1  0.4494220000000  0.4902980000000  0.5513130000000 1.0
C      1  0.4494220000000  0.4479110000000  0.5061370000000 1.0
C      1  0.4494220000000  0.4777770000000  0.4518640000000 1.0
C      1  0.5046380000000  0.5001940000000  0.4995540000000 1.0
C      1  0.4720760000000  0.5001940000000  0.4995540000000 1.0
END
