TITL C-862127-1500-984 0.000705295081757767 125000 -512.306634611725 0 0 102 (D2d) n - 1
REM
REM in /home/nfs/bkarasulu/CARBON/AIRSS/Generating-Clusters/TERSOFF/Higher-Symm/FIRE-HFTN
REM
REM
REM
REM
REM
REM ./C.cell (b20cbc046b6831c77cfcea5457e17084)
REM AIRSS Version 0.9.1 bugfix July 2018 build 013d7b7c2542+ Fri, 06 Jul 2018 19:26:36 +0100
REM compiler GCC version 9.2.1 20190827 (Red Hat 9.2.1-1)
REM options -cpp -mtune=generic -march=x86-64 -g -O0 -fpre-include=/usr/include/finclude/math-vector-fortran.h
REM seed 949047517 294856362 -2004327127 1672086971 1017494838 861860857 630702678 -888023373 -516297321 -816692842 1039149566 494881371 -879177911 -1832672378 -833187505 717942782 1239749814 348139649 -308181386 -557886192 -1246865786 -1994309383 1409456373 500679919 -1515764989 1810131538 -1413844234 44321435 -405479762 1993800634 472060822 -415015461 -1233546920
REM
CELL 1.54180   50.00000   50.00000   50.00000   90.00000   90.00000   90.00000
LATT -1
SFAC C  
C      1  0.5083950000000  0.5928280000000  0.4709220000000 1.0
C      1  0.4916050000000  0.5928280000000  0.5290780000000 1.0
C      1  0.4916050000000  0.4062190000000  0.4709220000000 1.0
C      1  0.5083950000000  0.4062190000000  0.5290780000000 1.0
C      1  0.4709220000000  0.5928280000000  0.5083950000000 1.0
C      1  0.5290780000000  0.5928280000000  0.4916050000000 1.0
C      1  0.4709220000000  0.4062190000000  0.4916050000000 1.0
C      1  0.5290780000000  0.4062190000000  0.5083950000000 1.0
C      1  0.4935270000000  0.4832410000000  0.4680660000000 1.0
C      1  0.5064730000000  0.4832410000000  0.5319340000000 1.0
C      1  0.5064730000000  0.5158050000000  0.4680660000000 1.0
C      1  0.4935270000000  0.5158050000000  0.5319340000000 1.0
C      1  0.4680660000000  0.4832410000000  0.4935270000000 1.0
C      1  0.5319340000000  0.4832410000000  0.5064730000000 1.0
C      1  0.4680660000000  0.5158050000000  0.5064730000000 1.0
C      1  0.5319340000000  0.5158050000000  0.4935270000000 1.0
C      1  0.5119700000000  0.5194370000000  0.4160350000000 1.0
C      1  0.4880300000000  0.5194370000000  0.5839650000000 1.0
C      1  0.4880300000000  0.4796100000000  0.4160350000000 1.0
C      1  0.5119700000000  0.4796100000000  0.5839650000000 1.0
C      1  0.4160350000000  0.5194370000000  0.5119700000000 1.0
C      1  0.5839650000000  0.5194370000000  0.4880300000000 1.0
C      1  0.4160350000000  0.4796100000000  0.4880300000000 1.0
C      1  0.5839650000000  0.4796100000000  0.5119700000000 1.0
C      1  0.5637270000000  0.5323740000000  0.4157920000000 1.0
C      1  0.4362730000000  0.5323740000000  0.5842080000000 1.0
C      1  0.4362730000000  0.4666730000000  0.4157920000000 1.0
C      1  0.5637270000000  0.4666730000000  0.5842080000000 1.0
C      1  0.4157920000000  0.5323740000000  0.5637270000000 1.0
C      1  0.5842080000000  0.5323740000000  0.4362730000000 1.0
C      1  0.4157920000000  0.4666730000000  0.4362730000000 1.0
C      1  0.5842080000000  0.4666730000000  0.5637270000000 1.0
C      1  0.4842990000000  0.5474380000000  0.5388580000000 1.0
C      1  0.5157010000000  0.5474380000000  0.4611420000000 1.0
C      1  0.5157010000000  0.4516090000000  0.5388580000000 1.0
C      1  0.4842990000000  0.4516090000000  0.4611420000000 1.0
C      1  0.5388580000000  0.5474380000000  0.4842990000000 1.0
C      1  0.4611420000000  0.5474380000000  0.5157010000000 1.0
C      1  0.5388580000000  0.4516090000000  0.5157010000000 1.0
C      1  0.4611420000000  0.4516090000000  0.4842990000000 1.0
C      1  0.4870260000000  0.5478460000000  0.5707870000000 1.0
C      1  0.5129740000000  0.5478460000000  0.4292130000000 1.0
C      1  0.5129740000000  0.4512010000000  0.5707870000000 1.0
C      1  0.4870260000000  0.4512010000000  0.4292130000000 1.0
C      1  0.5707870000000  0.5478460000000  0.4870260000000 1.0
C      1  0.4292130000000  0.5478460000000  0.5129740000000 1.0
C      1  0.5707870000000  0.4512010000000  0.5129740000000 1.0
C      1  0.4292130000000  0.4512010000000  0.4870260000000 1.0
C      1  0.5691820000000  0.5235510000000  0.5212430000000 1.0
C      1  0.4308180000000  0.5235510000000  0.4787570000000 1.0
C      1  0.4308180000000  0.4754950000000  0.5212430000000 1.0
C      1  0.5691820000000  0.4754950000000  0.4787570000000 1.0
C      1  0.5212430000000  0.5235510000000  0.5691820000000 1.0
C      1  0.4787570000000  0.5235510000000  0.4308180000000 1.0
C      1  0.5212430000000  0.4754950000000  0.4308180000000 1.0
C      1  0.4787570000000  0.4754950000000  0.5691820000000 1.0
C      1  0.4665060000000  0.4292510000000  0.5113830000000 1.0
C      1  0.5334940000000  0.4292510000000  0.4886170000000 1.0
C      1  0.5334940000000  0.5697960000000  0.5113830000000 1.0
C      1  0.4665060000000  0.5697960000000  0.4886170000000 1.0
C      1  0.5113830000000  0.4292510000000  0.4665060000000 1.0
C      1  0.4886170000000  0.4292510000000  0.5334940000000 1.0
C      1  0.5113830000000  0.5697960000000  0.5334940000000 1.0
C      1  0.4886170000000  0.5697960000000  0.4665060000000 1.0
C      1  0.4135130000000  0.4878450000000  0.4563790000000 1.0
C      1  0.5864870000000  0.4878450000000  0.5436210000000 1.0
C      1  0.5864870000000  0.5112020000000  0.4563790000000 1.0
C      1  0.4135130000000  0.5112020000000  0.5436210000000 1.0
C      1  0.4563790000000  0.4878450000000  0.4135130000000 1.0
C      1  0.5436210000000  0.4878450000000  0.5864870000000 1.0
C      1  0.4563790000000  0.5112020000000  0.5864870000000 1.0
C      1  0.5436210000000  0.5112020000000  0.4135130000000 1.0
C      1  0.4227940000000  0.5163950000000  0.4461010000000 1.0
C      1  0.5772060000000  0.5163950000000  0.5538990000000 1.0
C      1  0.5772060000000  0.4826520000000  0.4461010000000 1.0
C      1  0.4227940000000  0.4826520000000  0.5538990000000 1.0
C      1  0.4461010000000  0.5163950000000  0.4227940000000 1.0
C      1  0.5538990000000  0.5163950000000  0.5772060000000 1.0
C      1  0.4461010000000  0.4826520000000  0.5772060000000 1.0
C      1  0.5538990000000  0.4826520000000  0.4227940000000 1.0
C      1  0.4824640000000  0.4425290000000  0.5628220000000 1.0
C      1  0.5175360000000  0.4425290000000  0.4371780000000 1.0
C      1  0.5175360000000  0.5565170000000  0.5628220000000 1.0
C      1  0.4824640000000  0.5565170000000  0.4371780000000 1.0
C      1  0.5628220000000  0.4425290000000  0.4824640000000 1.0
C      1  0.4371780000000  0.4425290000000  0.5175360000000 1.0
C      1  0.5628220000000  0.5565170000000  0.5175360000000 1.0
C      1  0.4371780000000  0.5565170000000  0.4824640000000 1.0
C      1  0.4721180000000  0.4990840000000  0.4507880000000 1.0
C      1  0.5278820000000  0.4990840000000  0.5492120000000 1.0
C      1  0.5278820000000  0.4999630000000  0.4507880000000 1.0
C      1  0.4721180000000  0.4999630000000  0.5492120000000 1.0
C      1  0.4507880000000  0.4990840000000  0.4721180000000 1.0
C      1  0.5492120000000  0.4990840000000  0.5278820000000 1.0
C      1  0.4507880000000  0.4999630000000  0.5278820000000 1.0
C      1  0.5492120000000  0.4999630000000  0.4721180000000 1.0
C      1  0.4825760000000  0.5312340000000  0.4825760000000 1.0
C      1  0.5174240000000  0.4678120000000  0.4825760000000 1.0
C      1  0.4825760000000  0.4678120000000  0.5174240000000 1.0
C      1  0.5174240000000  0.5312340000000  0.5174240000000 1.0
C      1  0.5000000000000  0.4517780000000  0.5000000000000 1.0
C      1  0.5000000000000  0.5472690000000  0.5000000000000 1.0
END
