TITL C-862133-5440-511 0.0671419246068675 125000 -1149.5177474951 0 0 199 (C1) n - 1
REM
REM in /home/nfs/bkarasulu/CARBON/AIRSS/Generating-Clusters/TERSOFF/Higher-Symm/FIRE-HFTN
REM
REM
REM
REM
REM
REM ./C.cell (b20cbc046b6831c77cfcea5457e17084)
REM AIRSS Version 0.9.1 bugfix July 2018 build 013d7b7c2542+ Fri, 06 Jul 2018 19:26:36 +0100
REM compiler GCC version 9.2.1 20190827 (Red Hat 9.2.1-1)
REM options -cpp -mtune=generic -march=x86-64 -g -O0 -fpre-include=/usr/include/finclude/math-vector-fortran.h
REM seed -1960149913 -1510944743 -913758846 52866297 1894106653 722396713 358202491 -443336475 -1017953276 -805083611 -1289043361 -1332604136 274087452 1361833964 -2031808686 993837790 1971192467 -1967345488 1621837377 1624853142 1236882626 -958658328 676224307 603685942 -1381925857 1979362134 -1322263028 1684259091 -1258778366 -1120091734 -608628317 -1283128096 1672265980
REM
CELL 1.54180   50.00000   50.00000   50.00000   90.00000   90.00000   90.00000
LATT -1
SFAC C  
C      1  0.5795040000000  0.5233790000000  0.5028210000000 1.0
C      1  0.5229600000000  0.5004640000000  0.5931230000000 1.0
C      1  0.5006200000000  0.5883310000000  0.5256920000000 1.0
C      1  0.4143680000000  0.4776710000000  0.5030990000000 1.0
C      1  0.5830760000000  0.4795190000000  0.4978880000000 1.0
C      1  0.4148870000000  0.5199290000000  0.5014320000000 1.0
C      1  0.4780600000000  0.4915930000000  0.5807490000000 1.0
C      1  0.5275660000000  0.4917580000000  0.4156940000000 1.0
C      1  0.4814280000000  0.4997860000000  0.4065330000000 1.0
C      1  0.4955790000000  0.4215760000000  0.5214380000000 1.0
C      1  0.4999570000000  0.4143850000000  0.4784500000000 1.0
C      1  0.4946250000000  0.5830280000000  0.4753900000000 1.0
C      1  0.4396650000000  0.5033210000000  0.6078720000000 1.0
C      1  0.5063160000000  0.6038620000000  0.4365390000000 1.0
C      1  0.6056680000000  0.4396700000000  0.5062710000000 1.0
C      1  0.5643720000000  0.4912010000000  0.6087600000000 1.0
C      1  0.4377200000000  0.4907650000000  0.3920910000000 1.0
C      1  0.5645600000000  0.5020140000000  0.3907320000000 1.0
C      1  0.4941870000000  0.3924770000000  0.4401210000000 1.0
C      1  0.5056160000000  0.3951830000000  0.5573270000000 1.0
C      1  0.4954980000000  0.6071980000000  0.5654550000000 1.0
C      1  0.3948890000000  0.5579470000000  0.5060950000000 1.0
C      1  0.6039380000000  0.5578900000000  0.4947810000000 1.0
C      1  0.3914220000000  0.4396630000000  0.4948730000000 1.0
C      1  0.5379620000000  0.4636470000000  0.5059740000000 1.0
C      1  0.4577740000000  0.5165150000000  0.5427060000000 1.0
C      1  0.5202730000000  0.5344170000000  0.4549330000000 1.0
C      1  0.4664180000000  0.5392780000000  0.5187050000000 1.0
C      1  0.5277730000000  0.5465740000000  0.4826630000000 1.0
C      1  0.4538830000000  0.4600280000000  0.4889830000000 1.0
C      1  0.5325780000000  0.4835900000000  0.5281690000000 1.0
C      1  0.4590600000000  0.4812890000000  0.4681900000000 1.0
C      1  0.5422080000000  0.5134500000000  0.4521250000000 1.0
C      1  0.4861680000000  0.4736280000000  0.4605130000000 1.0
C      1  0.5064220000000  0.4744010000000  0.5375780000000 1.0
C      1  0.4867950000000  0.5341120000000  0.5466870000000 1.0
C      1  0.4692710000000  0.4370510000000  0.4305280000000 1.0
C      1  0.4313160000000  0.4257980000000  0.4599630000000 1.0
C      1  0.4299350000000  0.4645250000000  0.4300140000000 1.0
C      1  0.5384580000000  0.5689440000000  0.4231940000000 1.0
C      1  0.4642850000000  0.5681700000000  0.5753950000000 1.0
C      1  0.5292560000000  0.4407160000000  0.5683170000000 1.0
C      1  0.5663040000000  0.5712760000000  0.4628990000000 1.0
C      1  0.4338660000000  0.5717500000000  0.5377410000000 1.0
C      1  0.5636300000000  0.4319470000000  0.5347310000000 1.0
C      1  0.5777130000000  0.5391370000000  0.4273570000000 1.0
C      1  0.4236870000000  0.5391470000000  0.5733780000000 1.0
C      1  0.5662390000000  0.4688300000000  0.5644700000000 1.0
C      1  0.5107110000000  0.5422760000000  0.5070710000000 1.0
C      1  0.5263650000000  0.5121870000000  0.5163020000000 1.0
C      1  0.5093980000000  0.5156180000000  0.5480400000000 1.0
C      1  0.4751860000000  0.4557140000000  0.5079520000000 1.0
C      1  0.5182750000000  0.4596850000000  0.4845310000000 1.0
C      1  0.4816280000000  0.5286240000000  0.4948900000000 1.0
C      1  0.4548910000000  0.4927310000000  0.5269840000000 1.0
C      1  0.5411320000000  0.4921940000000  0.4710830000000 1.0
C      1  0.4565070000000  0.5061430000000  0.4840490000000 1.0
C      1  0.4833920000000  0.4825250000000  0.5188880000000 1.0
C      1  0.5081670000000  0.4886030000000  0.4753410000000 1.0
C      1  0.4993310000000  0.5123770000000  0.4513430000000 1.0
C      1  0.4241210000000  0.5380650000000  0.4569670000000 1.0
C      1  0.5476320000000  0.4481690000000  0.4134940000000 1.0
C      1  0.4511040000000  0.4184820000000  0.5426170000000 1.0
C      1  0.5832210000000  0.4568840000000  0.4515230000000 1.0
C      1  0.4182610000000  0.4578040000000  0.5461850000000 1.0
C      1  0.5800680000000  0.5398940000000  0.5471710000000 1.0
C      1  0.4634400000000  0.5398790000000  0.4194310000000 1.0
C      1  0.5418840000000  0.5426650000000  0.5810270000000 1.0
C      1  0.4535110000000  0.4473230000000  0.5880150000000 1.0
C      1  0.5457790000000  0.5793850000000  0.5435770000000 1.0
C      1  0.4560880000000  0.5771600000000  0.4592460000000 1.0
C      1  0.5439760000000  0.4220370000000  0.4589100000000 1.0
C      1  0.4954740000000  0.5401500000000  0.6050640000000 1.0
C      1  0.5411660000000  0.6023140000000  0.4941000000000 1.0
C      1  0.6027610000000  0.4926760000000  0.5411720000000 1.0
C      1  0.5060160000000  0.4549180000000  0.6059000000000 1.0
C      1  0.4962860000000  0.4546120000000  0.3936660000000 1.0
C      1  0.5077370000000  0.5401670000000  0.3936270000000 1.0
C      1  0.4559990000000  0.3982430000000  0.4938820000000 1.0
C      1  0.5397270000000  0.3999430000000  0.5054980000000 1.0
C      1  0.4569850000000  0.6039330000000  0.5073230000000 1.0
C      1  0.3970220000000  0.5044040000000  0.5440630000000 1.0
C      1  0.6040650000000  0.5062560000000  0.4568550000000 1.0
C      1  0.3984870000000  0.4939560000000  0.4590310000000 1.0
C      1  0.5300600000000  0.4497350000000  0.4592300000000 1.0
C      1  0.4453760000000  0.4728340000000  0.5454480000000 1.0
C      1  0.4706830000000  0.5215050000000  0.4433350000000 1.0
C      1  0.4774290000000  0.5535200000000  0.4695100000000 1.0
C      1  0.5180920000000  0.5618560000000  0.5367970000000 1.0
C      1  0.4725150000000  0.4417100000000  0.5378860000000 1.0
C      1  0.5543760000000  0.5324120000000  0.5273120000000 1.0
C      1  0.4522020000000  0.5292960000000  0.4650370000000 1.0
C      1  0.5640960000000  0.4695020000000  0.4736750000000 1.0
C      1  0.5381270000000  0.4689000000000  0.4362830000000 1.0
C      1  0.4654830000000  0.4646790000000  0.5647320000000 1.0
C      1  0.5362420000000  0.5281520000000  0.5538440000000 1.0
C      1  0.5209650000000  0.4072280000000  0.5323310000000 1.0
C      1  0.4018880000000  0.5335240000000  0.5268250000000 1.0
C      1  0.5384790000000  0.5223000000000  0.4000170000000 1.0
C      1  0.4749930000000  0.6009250000000  0.5385130000000 1.0
C      1  0.5225180000000  0.5961980000000  0.4638860000000 1.0
C      1  0.4750650000000  0.4015010000000  0.4653380000000 1.0
C      1  0.5958820000000  0.4659930000000  0.5236910000000 1.0
C      1  0.4028350000000  0.4651780000000  0.4753130000000 1.0
C      1  0.5956400000000  0.5335130000000  0.4743640000000 1.0
C      1  0.4667460000000  0.4748290000000  0.3962200000000 1.0
C      1  0.5358180000000  0.4752400000000  0.6044730000000 1.0
C      1  0.4657710000000  0.5210800000000  0.5974150000000 1.0
C      1  0.4022940000000  0.5219270000000  0.4730650000000 1.0
C      1  0.5250730000000  0.4670700000000  0.3938400000000 1.0
C      1  0.4693230000000  0.4006290000000  0.5210550000000 1.0
C      1  0.6047170000000  0.4791610000000  0.4702730000000 1.0
C      1  0.3985250000000  0.4759990000000  0.5297310000000 1.0
C      1  0.6001900000000  0.5206370000000  0.5288980000000 1.0
C      1  0.4787980000000  0.5271570000000  0.3946040000000 1.0
C      1  0.5252120000000  0.5280620000000  0.6045070000000 1.0
C      1  0.4778810000000  0.4679490000000  0.6047070000000 1.0
C      1  0.5287530000000  0.6035690000000  0.5229990000000 1.0
C      1  0.4696510000000  0.6027730000000  0.4782960000000 1.0
C      1  0.5276040000000  0.4015630000000  0.4769640000000 1.0
C      1  0.6009380000000  0.4915980000000  0.5708230000000 1.0
C      1  0.4952870000000  0.5702310000000  0.6036310000000 1.0
C      1  0.5706650000000  0.5983750000000  0.4946540000000 1.0
C      1  0.3990610000000  0.5044760000000  0.5740750000000 1.0
C      1  0.6032430000000  0.5056200000000  0.4265200000000 1.0
C      1  0.4000930000000  0.4940420000000  0.4292520000000 1.0
C      1  0.5066180000000  0.4253790000000  0.6001900000000 1.0
C      1  0.4947650000000  0.4254770000000  0.3992340000000 1.0
C      1  0.5060720000000  0.5701110000000  0.3965230000000 1.0
C      1  0.4257110000000  0.3998450000000  0.4938280000000 1.0
C      1  0.5697690000000  0.4011800000000  0.5068170000000 1.0
C      1  0.4276790000000  0.5986960000000  0.5061580000000 1.0
C      1  0.4626240000000  0.4209570000000  0.5730290000000 1.0
C      1  0.4281640000000  0.5668190000000  0.4663720000000 1.0
C      1  0.5768210000000  0.4613080000000  0.4220070000000 1.0
C      1  0.5357520000000  0.5729680000000  0.5732200000000 1.0
C      1  0.4681110000000  0.5695150000000  0.4294890000000 1.0
C      1  0.5365820000000  0.4219940000000  0.4283850000000 1.0
C      1  0.5741780000000  0.4293100000000  0.4650160000000 1.0
C      1  0.4231850000000  0.4292920000000  0.5357140000000 1.0
C      1  0.5732570000000  0.5689060000000  0.5357380000000 1.0
C      1  0.4334390000000  0.5309500000000  0.4260840000000 1.0
C      1  0.5716020000000  0.5325170000000  0.5760600000000 1.0
C      1  0.4247590000000  0.4609540000000  0.5800100000000 1.0
C      1  0.5472790000000  0.5850870000000  0.4459330000000 1.0
C      1  0.5811820000000  0.4513150000000  0.5467660000000 1.0
C      1  0.4480820000000  0.5478430000000  0.5887890000000 1.0
C      1  0.4564740000000  0.4177550000000  0.4478720000000 1.0
C      1  0.5404710000000  0.4226360000000  0.5489800000000 1.0
C      1  0.4527960000000  0.5856900000000  0.5550970000000 1.0
C      1  0.4149850000000  0.5524410000000  0.5485420000000 1.0
C      1  0.5848580000000  0.5521250000000  0.4524000000000 1.0
C      1  0.4149180000000  0.4480500000000  0.4492940000000 1.0
C      1  0.5479520000000  0.4567150000000  0.5833650000000 1.0
C      1  0.4520010000000  0.4536530000000  0.4141440000000 1.0
C      1  0.5555660000000  0.5488790000000  0.4100380000000 1.0
C      1  0.5355850000000  0.4736870000000  0.3670470000000 1.0
C      1  0.4767000000000  0.3742430000000  0.5325590000000 1.0
C      1  0.3765160000000  0.5367930000000  0.4739780000000 1.0
C      1  0.4640930000000  0.5283500000000  0.3690980000000 1.0
C      1  0.5386800000000  0.5292510000000  0.6307960000000 1.0
C      1  0.4681400000000  0.4777790000000  0.6308590000000 1.0
C      1  0.5285290000000  0.6307270000000  0.5346770000000 1.0
C      1  0.4723810000000  0.6286940000000  0.4646740000000 1.0
C      1  0.5265560000000  0.3747240000000  0.4641940000000 1.0
C      1  0.6315630000000  0.4684140000000  0.4758740000000 1.0
C      1  0.3717620000000  0.4637400000000  0.5263230000000 1.0
C      1  0.6263440000000  0.5334820000000  0.5234580000000 1.0
C      1  0.5533780000000  0.4891070000000  0.5487670000000 1.0
C      1  0.4876750000000  0.5554990000000  0.5650490000000 1.0
C      1  0.5521090000000  0.5615380000000  0.4856740000000 1.0
C      1  0.4381100000000  0.5157930000000  0.5635490000000 1.0
C      1  0.5629100000000  0.5149220000000  0.4336360000000 1.0
C      1  0.4406550000000  0.4857360000000  0.4458620000000 1.0
C      1  0.5059490000000  0.4550690000000  0.5594120000000 1.0
C      1  0.4910990000000  0.4517300000000  0.4425240000000 1.0
C      1  0.5166170000000  0.5535110000000  0.4336440000000 1.0
C      1  0.4353900000000  0.4397510000000  0.4850150000000 1.0
C      1  0.5563600000000  0.4427230000000  0.5094290000000 1.0
C      1  0.4484320000000  0.5614700000000  0.5152590000000 1.0
C      1  0.4918270000000  0.5840210000000  0.4189440000000 1.0
C      1  0.5867620000000  0.4204120000000  0.4910570000000 1.0
C      1  0.4193830000000  0.4889180000000  0.5898080000000 1.0
C      1  0.5089760000000  0.4118940000000  0.4214580000000 1.0
C      1  0.4911160000000  0.4118200000000  0.5781160000000 1.0
C      1  0.5102270000000  0.5860240000000  0.5829460000000 1.0
C      1  0.4155490000000  0.5754610000000  0.4922410000000 1.0
C      1  0.5841660000000  0.5761970000000  0.5089420000000 1.0
C      1  0.4092140000000  0.4195130000000  0.5106770000000 1.0
C      1  0.5800010000000  0.5055700000000  0.5866240000000 1.0
C      1  0.4225330000000  0.5061250000000  0.4139380000000 1.0
C      1  0.5845250000000  0.4879380000000  0.4099160000000 1.0
C      1  0.5017790000000  0.4976740000000  0.4258050000000 1.0
C      1  0.5048960000000  0.4982490000000  0.5720180000000 1.0
C      1  0.4362650000000  0.4990540000000  0.5042680000000 1.0
C      1  0.4979000000000  0.4397490000000  0.4944480000000 1.0
C      1  0.5551740000000  0.5023160000000  0.4982000000000 1.0
C      1  0.4973050000000  0.5715320000000  0.5017860000000 1.0
C      1  0.4988290000000  0.5021740000000  0.5006690000000 1.0
END
