TITL C-862129-6180-1290 -0.000564921449841061 125000 -1138.6455708901 0 0 198 (S4) n - 1
REM
REM in /home/nfs/bkarasulu/CARBON/AIRSS/Generating-Clusters/TERSOFF/Higher-Symm/FIRE-HFTN
REM
REM
REM
REM
REM
REM ./C.cell (b20cbc046b6831c77cfcea5457e17084)
REM AIRSS Version 0.9.1 bugfix July 2018 build 013d7b7c2542+ Fri, 06 Jul 2018 19:26:36 +0100
REM compiler GCC version 9.2.1 20190827 (Red Hat 9.2.1-1)
REM options -cpp -mtune=generic -march=x86-64 -g -O0 -fpre-include=/usr/include/finclude/math-vector-fortran.h
REM seed -421224590 1396164485 -2049572366 1511511717 -214622987 1038313494 205787316 -502140103 1474788268 2056334549 -1527107772 -423771513 656099955 915157083 -1390576977 -1438813577 1821168809 393308314 256180806 -1228565030 -2009067929 1795799381 15913957 -1702929091 -1320638243 -1330710314 1539449087 252271434 -915340531 946457390 1750629909 1111818306 815073258
REM
CELL 1.54180   50.00000   50.00000   50.00000   90.00000   90.00000   90.00000
LATT -1
SFAC C  
C      1  0.4743160000000  0.5845190000000  0.4417290000000 1.0
C      1  0.4743160000000  0.4154810000000  0.5582710000000 1.0
C      1  0.5265780000000  0.5845050000000  0.5598100000000 1.0
C      1  0.5265780000000  0.4154950000000  0.4401900000000 1.0
C      1  0.4742990000000  0.4401900000000  0.5845050000000 1.0
C      1  0.4742990000000  0.5598100000000  0.4154950000000 1.0
C      1  0.5265610000000  0.5582710000000  0.5845190000000 1.0
C      1  0.5265610000000  0.4417290000000  0.4154810000000 1.0
C      1  0.4788060000000  0.5486630000000  0.5909690000000 1.0
C      1  0.4788060000000  0.4513370000000  0.4090310000000 1.0
C      1  0.5211850000000  0.5493050000000  0.4095460000000 1.0
C      1  0.5211850000000  0.4506950000000  0.5904540000000 1.0
C      1  0.4796930000000  0.5904540000000  0.5493050000000 1.0
C      1  0.4796930000000  0.4095460000000  0.4506950000000 1.0
C      1  0.5220720000000  0.4090310000000  0.5486630000000 1.0
C      1  0.5220720000000  0.5909690000000  0.4513370000000 1.0
C      1  0.5390710000000  0.5062810000000  0.5279440000000 1.0
C      1  0.5390710000000  0.4937190000000  0.4720560000000 1.0
C      1  0.4617620000000  0.5068110000000  0.4738780000000 1.0
C      1  0.4617620000000  0.4931890000000  0.5261220000000 1.0
C      1  0.5391160000000  0.5261220000000  0.5068110000000 1.0
C      1  0.5391160000000  0.4738780000000  0.4931890000000 1.0
C      1  0.4618060000000  0.4720560000000  0.5062810000000 1.0
C      1  0.4618060000000  0.5279440000000  0.4937190000000 1.0
C      1  0.5356910000000  0.4788040000000  0.3821610000000 1.0
C      1  0.5356910000000  0.5211960000000  0.6178380000000 1.0
C      1  0.4644530000000  0.4782470000000  0.6158990000000 1.0
C      1  0.4644530000000  0.5217530000000  0.3841010000000 1.0
C      1  0.5364250000000  0.3841010000000  0.4782470000000 1.0
C      1  0.5364250000000  0.6158990000000  0.5217530000000 1.0
C      1  0.4651870000000  0.6178390000000  0.4788040000000 1.0
C      1  0.4651870000000  0.3821620000000  0.5211960000000 1.0
C      1  0.5678730000000  0.4930180000000  0.5317570000000 1.0
C      1  0.5678730000000  0.5069820000000  0.4682430000000 1.0
C      1  0.4336780000000  0.4930500000000  0.4697850000000 1.0
C      1  0.4336780000000  0.5069500000000  0.5302150000000 1.0
C      1  0.5672000000000  0.5302150000000  0.4930500000000 1.0
C      1  0.5672000000000  0.4697850000000  0.5069500000000 1.0
C      1  0.4330050000000  0.4682430000000  0.4930180000000 1.0
C      1  0.4330050000000  0.5317570000000  0.5069820000000 1.0
C      1  0.4799040000000  0.5668170000000  0.4696570000000 1.0
C      1  0.4799040000000  0.4331830000000  0.5303430000000 1.0
C      1  0.5218750000000  0.5671700000000  0.5311590000000 1.0
C      1  0.5218750000000  0.4328300000000  0.4688410000000 1.0
C      1  0.4790030000000  0.4688410000000  0.5671700000000 1.0
C      1  0.4790030000000  0.5311590000000  0.4328300000000 1.0
C      1  0.5209730000000  0.5303430000000  0.5668170000000 1.0
C      1  0.5209730000000  0.4696570000000  0.4331830000000 1.0
C      1  0.5125240000000  0.4782860000000  0.5906290000000 1.0
C      1  0.5125240000000  0.5217140000000  0.4093710000000 1.0
C      1  0.4869570000000  0.4790890000000  0.4077780000000 1.0
C      1  0.4869570000000  0.5209110000000  0.5922220000000 1.0
C      1  0.5139210000000  0.5922220000000  0.4790890000000 1.0
C      1  0.5139210000000  0.4077780000000  0.5209110000000 1.0
C      1  0.4883540000000  0.4093710000000  0.4782860000000 1.0
C      1  0.4883540000000  0.5906290000000  0.5217140000000 1.0
C      1  0.5005450000000  0.4035570000000  0.4326280000000 1.0
C      1  0.5005450000000  0.5964430000000  0.5673720000000 1.0
C      1  0.5004810000000  0.4035850000000  0.5661720000000 1.0
C      1  0.5004810000000  0.5964150000000  0.4338280000000 1.0
C      1  0.5003970000000  0.4338280000000  0.4035850000000 1.0
C      1  0.5003970000000  0.5661720000000  0.5964150000000 1.0
C      1  0.5003330000000  0.5673720000000  0.4035570000000 1.0
C      1  0.5003330000000  0.4326280000000  0.5964430000000 1.0
C      1  0.3871750000000  0.5561660000000  0.4986110000000 1.0
C      1  0.3871750000000  0.4438340000000  0.5013890000000 1.0
C      1  0.6110690000000  0.5562820000000  0.5025880000000 1.0
C      1  0.6110690000000  0.4437180000000  0.4974120000000 1.0
C      1  0.3898090000000  0.4974120000000  0.5562820000000 1.0
C      1  0.3898090000000  0.5025880000000  0.4437180000000 1.0
C      1  0.6137030000000  0.5013890000000  0.5561660000000 1.0
C      1  0.6137030000000  0.4986110000000  0.4438340000000 1.0
C      1  0.5991680000000  0.5286870000000  0.5033890000000 1.0
C      1  0.5991680000000  0.4713130000000  0.4966110000000 1.0
C      1  0.4000740000000  0.5301830000000  0.5036090000000 1.0
C      1  0.4000740000000  0.4698170000000  0.4963910000000 1.0
C      1  0.6008040000000  0.4963910000000  0.5301830000000 1.0
C      1  0.6008040000000  0.5036090000000  0.4698170000000 1.0
C      1  0.4017100000000  0.4966110000000  0.5286870000000 1.0
C      1  0.4017100000000  0.5033890000000  0.4713130000000 1.0
C      1  0.3862640000000  0.4295280000000  0.4760330000000 1.0
C      1  0.3862650000000  0.5704720000000  0.5239670000000 1.0
C      1  0.6153600000000  0.4356090000000  0.5252330000000 1.0
C      1  0.6153600000000  0.5643910000000  0.4747670000000 1.0
C      1  0.3855170000000  0.4747670000000  0.4356090000000 1.0
C      1  0.3855170000000  0.5252330000000  0.5643910000000 1.0
C      1  0.6146130000000  0.5239670000000  0.4295280000000 1.0
C      1  0.6146130000000  0.4760330000000  0.5704720000000 1.0
C      1  0.5054340000000  0.5141010000000  0.6162470000000 1.0
C      1  0.5054340000000  0.4858990000000  0.3837530000000 1.0
C      1  0.4945320000000  0.5142920000000  0.3861630000000 1.0
C      1  0.4945320000000  0.4857080000000  0.6138370000000 1.0
C      1  0.5063450000000  0.6138370000000  0.5142920000000 1.0
C      1  0.5063450000000  0.3861630000000  0.4857080000000 1.0
C      1  0.4954440000000  0.3837530000000  0.5141010000000 1.0
C      1  0.4954440000000  0.6162470000000  0.4858990000000 1.0
C      1  0.4338560000000  0.4212140000000  0.4627210000000 1.0
C      1  0.4338560000000  0.5787860000000  0.5372790000000 1.0
C      1  0.5679940000000  0.4233510000000  0.5374060000000 1.0
C      1  0.5679940000000  0.5766490000000  0.4625940000000 1.0
C      1  0.4328840000000  0.4625940000000  0.4233510000000 1.0
C      1  0.4328840000000  0.5374060000000  0.5766490000000 1.0
C      1  0.5670210000000  0.5372790000000  0.4212140000000 1.0
C      1  0.5670210000000  0.4627210000000  0.5787860000000 1.0
C      1  0.5464000000000  0.4226480000000  0.5568260000000 1.0
C      1  0.5464000000000  0.5773520000000  0.4431740000000 1.0
C      1  0.4549140000000  0.4220300000000  0.4428590000000 1.0
C      1  0.4549140000000  0.5779700000000  0.5571410000000 1.0
C      1  0.5459640000000  0.5571410000000  0.4220300000000 1.0
C      1  0.5459640000000  0.4428590000000  0.5779700000000 1.0
C      1  0.4544770000000  0.4431740000000  0.4226480000000 1.0
C      1  0.4544770000000  0.5568260000000  0.5773520000000 1.0
C      1  0.4396050000000  0.4543900000000  0.5658530000000 1.0
C      1  0.4396050000000  0.5456100000000  0.4341470000000 1.0
C      1  0.5607330000000  0.4562980000000  0.4348300000000 1.0
C      1  0.5607330000000  0.5437020000000  0.5651700000000 1.0
C      1  0.4401440000000  0.5651700000000  0.4562980000000 1.0
C      1  0.4401440000000  0.4348300000000  0.5437020000000 1.0
C      1  0.5612730000000  0.4341470000000  0.4543900000000 1.0
C      1  0.5612730000000  0.5658530000000  0.5456100000000 1.0
C      1  0.5759140000000  0.5934190000000  0.5474370000000 1.0
C      1  0.5759140000000  0.4065810000000  0.4525630000000 1.0
C      1  0.4242780000000  0.5920970000000  0.4571910000000 1.0
C      1  0.4242780000000  0.4079030000000  0.5428090000000 1.0
C      1  0.5765990000000  0.5428090000000  0.5920970000000 1.0
C      1  0.5765990000000  0.4571910000000  0.4079030000000 1.0
C      1  0.4249640000000  0.4525630000000  0.5934190000000 1.0
C      1  0.4249640000000  0.5474370000000  0.4065810000000 1.0
C      1  0.4875490000000  0.5079550000000  0.5293870000000 1.0
C      1  0.4875490000000  0.4920450000000  0.4706130000000 1.0
C      1  0.5130770000000  0.5087930000000  0.4702520000000 1.0
C      1  0.5130770000000  0.4912070000000  0.5297480000000 1.0
C      1  0.4878010000000  0.5297480000000  0.5087930000000 1.0
C      1  0.4878010000000  0.4702520000000  0.4912070000000 1.0
C      1  0.5133280000000  0.4706130000000  0.5079550000000 1.0
C      1  0.5133280000000  0.5293870000000  0.4920450000000 1.0
C      1  0.4711520000000  0.5755220000000  0.5001730000000 1.0
C      1  0.4711520000000  0.4244780000000  0.4998270000000 1.0
C      1  0.5306800000000  0.5767610000000  0.5008180000000 1.0
C      1  0.5306800000000  0.4232390000000  0.4991820000000 1.0
C      1  0.4701980000000  0.4991820000000  0.5767610000000 1.0
C      1  0.4701980000000  0.5008180000000  0.4232390000000 1.0
C      1  0.5297260000000  0.4998270000000  0.5755220000000 1.0
C      1  0.5297260000000  0.5001730000000  0.4244780000000 1.0
C      1  0.4455140000000  0.6129910000000  0.5001630000000 1.0
C      1  0.4455140000000  0.3870090000000  0.4998370000000 1.0
C      1  0.5564470000000  0.6110470000000  0.5007240000000 1.0
C      1  0.5564460000000  0.3889530000000  0.4992760000000 1.0
C      1  0.4444310000000  0.4992760000000  0.6110470000000 1.0
C      1  0.4444310000000  0.5007240000000  0.3889530000000 1.0
C      1  0.5553640000000  0.4998370000000  0.6129910000000 1.0
C      1  0.5553640000000  0.5001630000000  0.3870090000000 1.0
C      1  0.4424890000000  0.5848710000000  0.5093660000000 1.0
C      1  0.4424890000000  0.4151290000000  0.4906340000000 1.0
C      1  0.5604240000000  0.5827650000000  0.4908990000000 1.0
C      1  0.5604240000000  0.4172350000000  0.5091010000000 1.0
C      1  0.4404540000000  0.5091010000000  0.5827650000000 1.0
C      1  0.4404540000000  0.4908990000000  0.4172350000000 1.0
C      1  0.5583890000000  0.4906340000000  0.5848710000000 1.0
C      1  0.5583890000000  0.5093660000000  0.4151290000000 1.0
C      1  0.5987050000000  0.4737190000000  0.4313980000000 1.0
C      1  0.5987050000000  0.5262810000000  0.5686010000000 1.0
C      1  0.4080440000000  0.4798580000000  0.5766910000000 1.0
C      1  0.4080440000000  0.5201420000000  0.4233090000000 1.0
C      1  0.5928340000000  0.4233090000000  0.4798580000000 1.0
C      1  0.5928340000000  0.5766910000000  0.5201420000000 1.0
C      1  0.4021720000000  0.5686020000000  0.4737190000000 1.0
C      1  0.4021720000000  0.4313990000000  0.5262810000000 1.0
C      1  0.4545880000000  0.5481030000000  0.3950190000000 1.0
C      1  0.4545880000000  0.4518970000000  0.6049810000000 1.0
C      1  0.5464380000000  0.5461700000000  0.6045590000000 1.0
C      1  0.5464380000000  0.4538300000000  0.3954410000000 1.0
C      1  0.4544400000000  0.3954410000000  0.5461700000000 1.0
C      1  0.4544400000000  0.6045590000000  0.4538300000000 1.0
C      1  0.5462890000000  0.6049810000000  0.5481030000000 1.0
C      1  0.5462890000000  0.3950190000000  0.4518970000000 1.0
C      1  0.4270930000000  0.4573950000000  0.5259000000000 1.0
C      1  0.4270940000000  0.5426050000000  0.4741000000000 1.0
C      1  0.5689490000000  0.4470500000000  0.4808540000000 1.0
C      1  0.5689490000000  0.5529500000000  0.5191460000000 1.0
C      1  0.4319280000000  0.5191460000000  0.4470500000000 1.0
C      1  0.4319280000000  0.4808540000000  0.5529500000000 1.0
C      1  0.5737840000000  0.4741000000000  0.4573950000000 1.0
C      1  0.5737840000000  0.5259000000000  0.5426050000000 1.0
C      1  0.4071390000000  0.4552020000000  0.4361990000000 1.0
C      1  0.4071390000000  0.5447980000000  0.5638010000000 1.0
C      1  0.5932780000000  0.4564020000000  0.5672240000000 1.0
C      1  0.5932780000000  0.5435980000000  0.4327760000000 1.0
C      1  0.4076000000000  0.4327760000000  0.4564020000000 1.0
C      1  0.4076000000000  0.5672240000000  0.5435980000000 1.0
C      1  0.5937380000000  0.5638010000000  0.4552020000000 1.0
C      1  0.5937380000000  0.4361990000000  0.5447980000000 1.0
C      1  0.5154770000000  0.5392000000000  0.5389330000000 1.0
C      1  0.4854000000000  0.4610670000000  0.5392000000000 1.0
C      1  0.4854000000000  0.5389330000000  0.4608000000000 1.0
C      1  0.5154770000000  0.4608000000000  0.4610670000000 1.0
C      1  0.6144870000000  0.5000000000000  0.5000000000000 1.0
C      1  0.3863910000000  0.5000000000000  0.5000000000000 1.0
END
