TITL C-862131-2149-996 -119349.208798398 125000 -1066.07597543065 0 0 181 (Ci) n - 1
REM
REM in /home/nfs/bkarasulu/CARBON/AIRSS/Generating-Clusters/TERSOFF/Higher-Symm/FIRE-HFTN
REM
REM
REM
REM
REM
REM ./C.cell (b20cbc046b6831c77cfcea5457e17084)
REM AIRSS Version 0.9.1 bugfix July 2018 build 013d7b7c2542+ Fri, 06 Jul 2018 19:26:36 +0100
REM compiler GCC version 9.2.1 20190827 (Red Hat 9.2.1-1)
REM options -cpp -mtune=generic -march=x86-64 -g -O0 -fpre-include=/usr/include/finclude/math-vector-fortran.h
REM seed -1570264673 -453767200 418279264 1524522121 2142575073 1563706129 1747733520 443482299 816994960 708791887 62679672 -1145515870 143820832 1795135479 -2073617574 -308442064 -99097615 925778443 2123634059 -1002451428 -1117658287 -259945176 -847386162 1350852373 -537619153 395236125 -498218365 -250486414 -97006618 -703232609 -925667533 -270907207 -194295709
REM
CELL 1.54180   50.00000   50.00000   50.00000   90.00000   90.00000   90.00000
LATT -1
SFAC C  
C      1  0.5163530000000  0.4084730000000  0.5512110000000 1.0
C      1  0.4832200000000  0.5912060000000  0.4491140000000 1.0
C      1  0.4468450000000  0.4367610000000  0.3965420000000 1.0
C      1  0.5526400000000  0.5630170000000  0.6037990000000 1.0
C      1  0.4035310000000  0.4863730000000  0.5195590000000 1.0
C      1  0.5960750000000  0.5134790000000  0.4808140000000 1.0
C      1  0.4205830000000  0.4145100000000  0.5335190000000 1.0
C      1  0.5790380000000  0.5853600000000  0.4667650000000 1.0
C      1  0.4217570000000  0.5663230000000  0.5780520000000 1.0
C      1  0.5780120000000  0.4334170000000  0.4223800000000 1.0
C      1  0.4475600000000  0.4464770000000  0.5205710000000 1.0
C      1  0.5519860000000  0.5534770000000  0.4795620000000 1.0
C      1  0.6268920000000  0.4821970000000  0.5090370000000 1.0
C      1  0.3727480000000  0.5176190000000  0.4912300000000 1.0
C      1  0.5233370000000  0.4732810000000  0.3892490000000 1.0
C      1  0.4765050000000  0.5264760000000  0.6110260000000 1.0
C      1  0.4511330000000  0.5268210000000  0.5365710000000 1.0
C      1  0.5485710000000  0.4729670000000  0.4637760000000 1.0
C      1  0.4675630000000  0.4211700000000  0.5751930000000 1.0
C      1  0.5319110000000  0.5783650000000  0.4250480000000 1.0
C      1  0.4658220000000  0.5401420000000  0.3825730000000 1.0
C      1  0.5338740000000  0.4595100000000  0.6177530000000 1.0
C      1  0.4390520000000  0.5018870000000  0.4010990000000 1.0
C      1  0.5606910000000  0.4977900000000  0.5992620000000 1.0
C      1  0.6188370000000  0.5097310000000  0.5025010000000 1.0
C      1  0.3807960000000  0.4900960000000  0.4978220000000 1.0
C      1  0.3770610000000  0.4700660000000  0.4764710000000 1.0
C      1  0.6226000000000  0.5297210000000  0.5238810000000 1.0
C      1  0.5323610000000  0.4311710000000  0.4210490000000 1.0
C      1  0.4674010000000  0.5685620000000  0.5792780000000 1.0
C      1  0.5121360000000  0.4999900000000  0.3826990000000 1.0
C      1  0.4876310000000  0.4997420000000  0.6175840000000 1.0
C      1  0.5573020000000  0.4693800000000  0.6011640000000 1.0
C      1  0.4424170000000  0.5302940000000  0.3991850000000 1.0
C      1  0.5660830000000  0.5638110000000  0.5784550000000 1.0
C      1  0.4334700000000  0.4360710000000  0.4219250000000 1.0
C      1  0.4856850000000  0.4024580000000  0.5585700000000 1.0
C      1  0.5138780000000  0.5971400000000  0.4416700000000 1.0
C      1  0.4434810000000  0.3958000000000  0.4641870000000 1.0
C      1  0.5561020000000  0.6040770000000  0.5361060000000 1.0
C      1  0.4788520000000  0.5063080000000  0.4732790000000 1.0
C      1  0.5212480000000  0.4930140000000  0.5271660000000 1.0
C      1  0.4944140000000  0.5826640000000  0.5848890000000 1.0
C      1  0.5053060000000  0.4170820000000  0.4154840000000 1.0
C      1  0.5858340000000  0.4464250000000  0.4840470000000 1.0
C      1  0.4138140000000  0.5534030000000  0.5163640000000 1.0
C      1  0.4633700000000  0.4858430000000  0.3993030000000 1.0
C      1  0.5363890000000  0.5138430000000  0.6010180000000 1.0
C      1  0.5084370000000  0.5428390000000  0.5750790000000 1.0
C      1  0.4913950000000  0.4568870000000  0.4252140000000 1.0
C      1  0.4848110000000  0.4134430000000  0.5053180000000 1.0
C      1  0.5147490000000  0.5863060000000  0.4950280000000 1.0
C      1  0.5394340000000  0.4761610000000  0.4924800000000 1.0
C      1  0.4601460000000  0.5236140000000  0.5078490000000 1.0
C      1  0.4301100000000  0.4538300000000  0.5934500000000 1.0
C      1  0.5696040000000  0.5460320000000  0.4067490000000 1.0
C      1  0.5726710000000  0.5885990000000  0.5163520000000 1.0
C      1  0.4268990000000  0.4112600000000  0.4839410000000 1.0
C      1  0.4839700000000  0.5972470000000  0.4988440000000 1.0
C      1  0.5156050000000  0.4024870000000  0.5014910000000 1.0
C      1  0.4807930000000  0.4646070000000  0.5693630000000 1.0
C      1  0.5189590000000  0.5351060000000  0.4308780000000 1.0
C      1  0.5937730000000  0.5379110000000  0.4580030000000 1.0
C      1  0.4058630000000  0.4619370000000  0.5423030000000 1.0
C      1  0.4672470000000  0.4118250000000  0.4534590000000 1.0
C      1  0.5323680000000  0.5880450000000  0.5468700000000 1.0
C      1  0.6012020000000  0.4971320000000  0.4319260000000 1.0
C      1  0.3985150000000  0.5026570000000  0.5684780000000 1.0
C      1  0.4826080000000  0.5364550000000  0.4904250000000 1.0
C      1  0.5172230000000  0.4627310000000  0.5099790000000 1.0
C      1  0.5778050000000  0.4670200000000  0.4646240000000 1.0
C      1  0.4218760000000  0.5327910000000  0.5357660000000 1.0
C      1  0.4714110000000  0.5837620000000  0.5236290000000 1.0
C      1  0.5282090000000  0.4159220000000  0.4767020000000 1.0
C      1  0.5215360000000  0.4588530000000  0.5606900000000 1.0
C      1  0.4780390000000  0.5407980000000  0.4397510000000 1.0
C      1  0.5071270000000  0.4335620000000  0.4674730000000 1.0
C      1  0.4925530000000  0.5662040000000  0.5328960000000 1.0
C      1  0.4729110000000  0.4743180000000  0.6136170000000 1.0
C      1  0.5268170000000  0.5254510000000  0.3866190000000 1.0
C      1  0.5400460000000  0.4657610000000  0.4141520000000 1.0
C      1  0.4597410000000  0.5339670000000  0.5861730000000 1.0
C      1  0.4850560000000  0.4925550000000  0.5607070000000 1.0
C      1  0.5147070000000  0.5071590000000  0.4395220000000 1.0
C      1  0.4090400000000  0.5180620000000  0.5909870000000 1.0
C      1  0.5907560000000  0.4816700000000  0.4094180000000 1.0
C      1  0.5169800000000  0.4979460000000  0.6187090000000 1.0
C      1  0.4827690000000  0.5017300000000  0.3815690000000 1.0
C      1  0.5711130000000  0.5584910000000  0.4572200000000 1.0
C      1  0.4285430000000  0.4413920000000  0.5429960000000 1.0
C      1  0.5124660000000  0.4993570000000  0.5546540000000 1.0
C      1  0.4873400000000  0.5003260000000  0.4456520000000 1.0
C      1  0.3921680000000  0.5237610000000  0.4428760000000 1.0
C      1  0.6074630000000  0.4759760000000  0.5573820000000 1.0
C      1  0.5570420000000  0.5603610000000  0.4298850000000 1.0
C      1  0.4426490000000  0.4394850000000  0.5703090000000 1.0
C      1  0.4041970000000  0.5463160000000  0.4277330000000 1.0
C      1  0.5954720000000  0.4534000000000  0.5725470000000 1.0
C      1  0.4875500000000  0.4714470000000  0.5018770000000 1.0
C      1  0.5123190000000  0.5282110000000  0.4985630000000 1.0
C      1  0.4213010000000  0.5663320000000  0.4409990000000 1.0
C      1  0.5783490000000  0.4333890000000  0.5593070000000 1.0
C      1  0.5709910000000  0.4600980000000  0.4116940000000 1.0
C      1  0.4288020000000  0.5396330000000  0.5886970000000 1.0
C      1  0.6191990000000  0.5242310000000  0.5526340000000 1.0
C      1  0.3804720000000  0.4755080000000  0.4477050000000 1.0
C      1  0.5074820000000  0.4365880000000  0.5474310000000 1.0
C      1  0.4920510000000  0.5630930000000  0.4529940000000 1.0
C      1  0.5126470000000  0.5446990000000  0.4035020000000 1.0
C      1  0.4870640000000  0.4550350000000  0.5967580000000 1.0
C      1  0.4625760000000  0.3955390000000  0.5135750000000 1.0
C      1  0.5369540000000  0.6041870000000  0.4866580000000 1.0
C      1  0.4188670000000  0.5442650000000  0.4886660000000 1.0
C      1  0.5807150000000  0.4555870000000  0.5117160000000 1.0
C      1  0.3968750000000  0.4734240000000  0.5682170000000 1.0
C      1  0.6028130000000  0.5263650000000  0.4321310000000 1.0
C      1  0.5955840000000  0.4893700000000  0.4598630000000 1.0
C      1  0.4040820000000  0.5104540000000  0.5405360000000 1.0
C      1  0.5363690000000  0.5300760000000  0.4825330000000 1.0
C      1  0.4633850000000  0.4697730000000  0.5177310000000 1.0
C      1  0.4441830000000  0.5821600000000  0.5664140000000 1.0
C      1  0.5555570000000  0.4175890000000  0.4339770000000 1.0
C      1  0.5133170000000  0.5989770000000  0.5676570000000 1.0
C      1  0.4862790000000  0.4008430000000  0.4326720000000 1.0
C      1  0.5741470000000  0.5280120000000  0.5257300000000 1.0
C      1  0.4254640000000  0.4718360000000  0.4746390000000 1.0
C      1  0.4209690000000  0.5807480000000  0.5227380000000 1.0
C      1  0.5786750000000  0.4190660000000  0.4777050000000 1.0
C      1  0.5635570000000  0.4820340000000  0.5077660000000 1.0
C      1  0.4360140000000  0.5178310000000  0.4925780000000 1.0
C      1  0.5653170000000  0.5968750000000  0.4892470000000 1.0
C      1  0.4342280000000  0.4029240000000  0.5110310000000 1.0
C      1  0.5255270000000  0.5196840000000  0.5727580000000 1.0
C      1  0.4742740000000  0.4800080000000  0.4275400000000 1.0
C      1  0.5545730000000  0.4123570000000  0.4630360000000 1.0
C      1  0.4451050000000  0.5874120000000  0.5373590000000 1.0
C      1  0.5747150000000  0.5100070000000  0.5024820000000 1.0
C      1  0.4248580000000  0.4898640000000  0.4978620000000 1.0
C      1  0.4679860000000  0.5985520000000  0.4747160000000 1.0
C      1  0.5315950000000  0.4011980000000  0.5256070000000 1.0
C      1  0.5850420000000  0.4581460000000  0.5995330000000 1.0
C      1  0.4146740000000  0.5415350000000  0.4007680000000 1.0
C      1  0.4864200000000  0.5568980000000  0.3953130000000 1.0
C      1  0.5132600000000  0.4427830000000  0.6049850000000 1.0
C      1  0.4582660000000  0.4602760000000  0.3847580000000 1.0
C      1  0.5414680000000  0.5393920000000  0.6156040000000 1.0
C      1  0.5528440000000  0.5656740000000  0.5527870000000 1.0
C      1  0.4467770000000  0.4342250000000  0.4475650000000 1.0
C      1  0.4251230000000  0.4864430000000  0.4501600000000 1.0
C      1  0.5745170000000  0.5133780000000  0.5502040000000 1.0
C      1  0.5093720000000  0.4536470000000  0.4480400000000 1.0
C      1  0.4903990000000  0.5460810000000  0.5522990000000 1.0
C      1  0.4637100000000  0.5150260000000  0.5614900000000 1.0
C      1  0.5360420000000  0.4847060000000  0.4388090000000 1.0
C      1  0.4390710000000  0.5921220000000  0.4786450000000 1.0
C      1  0.5604950000000  0.4077030000000  0.5216410000000 1.0
C      1  0.4257770000000  0.5672290000000  0.4695400000000 1.0
C      1  0.5737650000000  0.4325940000000  0.5307940000000 1.0
C      1  0.5459000000000  0.4537220000000  0.5764930000000 1.0
C      1  0.4537520000000  0.5459610000000  0.4238600000000 1.0
C      1  0.4458340000000  0.5764840000000  0.4237840000000 1.0
C      1  0.5538520000000  0.4231890000000  0.5765520000000 1.0
C      1  0.4440510000000  0.4727110000000  0.6111770000000 1.0
C      1  0.5556840000000  0.5271280000000  0.3890200000000 1.0
C      1  0.5992560000000  0.5045490000000  0.5638510000000 1.0
C      1  0.4004010000000  0.4951910000000  0.4364560000000 1.0
C      1  0.3720800000000  0.5289050000000  0.4639850000000 1.0
C      1  0.6275400000000  0.4708470000000  0.5362570000000 1.0
C      1  0.4127760000000  0.4910180000000  0.4089460000000 1.0
C      1  0.5869610000000  0.5086440000000  0.5913950000000 1.0
C      1  0.4820390000000  0.4244490000000  0.4764520000000 1.0
C      1  0.5176020000000  0.5753680000000  0.5238940000000 1.0
C      1  0.5253130000000  0.4199380000000  0.5905650000000 1.0
C      1  0.4743500000000  0.5797200000000  0.4097450000000 1.0
C      1  0.5113180000000  0.5629430000000  0.4750480000000 1.0
C      1  0.4881200000000  0.4367140000000  0.5254170000000 1.0
C      1  0.4980070000000  0.5448240000000  0.6025770000000 1.0
C      1  0.5018640000000  0.4549050000000  0.3977280000000 1.0
C      1  0.5676900000000  0.5580930000000  0.5272510000000 1.0
C      1  0.4319520000000  0.4417720000000  0.4731270000000 1.0
C      1  0.5002470000000  0.4997360000000  0.5001700000000 1.0
END
