TITL C-862500-986-545 -3.52553685956542e-05 125000 -187.84311439421 0 0 37 (C5) n - 1
REM
REM in /home/nfs/bkarasulu/CARBON/AIRSS/Generating-Clusters/TERSOFF/Higher-Symm/FIRE-HFTN
REM
REM
REM
REM
REM
REM ./C.cell (b20cbc046b6831c77cfcea5457e17084)
REM AIRSS Version 0.9.1 bugfix July 2018 build 013d7b7c2542+ Fri, 06 Jul 2018 19:26:36 +0100
REM compiler GCC version 9.2.1 20190827 (Red Hat 9.2.1-1)
REM options -cpp -mtune=generic -march=x86-64 -g -O0 -fpre-include=/usr/include/finclude/math-vector-fortran.h
REM seed -564009731 1490791448 -384259040 -264005246 -269561694 1329938388 2036517996 -1367679869 1019612048 1347055124 -2106666570 -375236844 -690529440 1661596544 -748230719 -186484414 938775504 -1455333891 1937453466 858134090 1963656703 -879633902 -512814837 1410731106 1359295046 -1227147922 -337179169 -870942777 488818969 -597729522 1191613799 2022298589 -1011676097
REM
CELL 1.54180   50.00000   50.00000   50.00000   90.00000   90.00000   90.00000
LATT -1
SFAC C  
C      1  0.5027700000000  0.5169260000000  0.5521630000000 1.0
C      1  0.5027700000000  0.5538230000000  0.5019650000000 1.0
C      1  0.5027710000000  0.5174840000000  0.4513610000000 1.0
C      1  0.5027700000000  0.4581270000000  0.4702850000000 1.0
C      1  0.5027700000000  0.4577830000000  0.5325840000000 1.0
C      1  0.4353620000000  0.5143630000000  0.5231170000000 1.0
C      1  0.4353620000000  0.5254070000000  0.4954270000000 1.0
C      1  0.4353620000000  0.5024860000000  0.4763660000000 1.0
C      1  0.4353620000000  0.4772740000000  0.4922760000000 1.0
C      1  0.4353620000000  0.4846150000000  0.5211700000000 1.0
C      1  0.4771890000000  0.4983390000000  0.5535250000000 1.0
C      1  0.4771900000000  0.5493760000000  0.5200630000000 1.0
C      1  0.4771900000000  0.5333220000000  0.4611840000000 1.0
C      1  0.4771900000000  0.4723640000000  0.4582570000000 1.0
C      1  0.4771890000000  0.4507430000000  0.5153270000000 1.0
C      1  0.4956710000000  0.4912780000000  0.4411790000000 1.0
C      1  0.4956710000000  0.4403450000000  0.4920620000000 1.0
C      1  0.4956700000000  0.4729990000000  0.5562250000000 1.0
C      1  0.4956710000000  0.5441130000000  0.5449970000000 1.0
C      1  0.4956710000000  0.5554090000000  0.4738950000000 1.0
C      1  0.5248560000000  0.5047080000000  0.5369730000000 1.0
C      1  0.5248570000000  0.5356000000000  0.5088910000000 1.0
C      1  0.5248570000000  0.5184400000000  0.4708330000000 1.0
C      1  0.5248570000000  0.4769410000000  0.4753930000000 1.0
C      1  0.5248560000000  0.4684540000000  0.5162700000000 1.0
C      1  0.5551690000000  0.5150790000000  0.4691910000000 1.0
C      1  0.5551690000000  0.4743410000000  0.4780820000000 1.0
C      1  0.5551690000000  0.4702080000000  0.5195730000000 1.0
C      1  0.5551690000000  0.5083910000000  0.5363260000000 1.0
C      1  0.5551690000000  0.5361230000000  0.5051880000000 1.0
C      1  0.4603300000000  0.4623290000000  0.4864660000000 1.0
C      1  0.4603300000000  0.4744700000000  0.5335880000000 1.0
C      1  0.4603300000000  0.5230380000000  0.5366020000000 1.0
C      1  0.4603300000000  0.5409130000000  0.4913430000000 1.0
C      1  0.4603300000000  0.5033930000000  0.4603570000000 1.0
C      1  0.5648850000000  0.5008280000000  0.5016720000000 1.0
C      1  0.5175840000000  0.5008290000000  0.5016720000000 1.0
END
