TITL C-862134-6730-659 -0.0047896012588269 125000 -823.189947643814 0 0 134 (C1) n - 1
REM
REM in /home/nfs/bkarasulu/CARBON/AIRSS/Generating-Clusters/TERSOFF/Higher-Symm/FIRE-HFTN
REM
REM
REM
REM
REM
REM ./C.cell (b20cbc046b6831c77cfcea5457e17084)
REM AIRSS Version 0.9.1 bugfix July 2018 build 013d7b7c2542+ Fri, 06 Jul 2018 19:26:36 +0100
REM compiler GCC version 9.2.1 20190827 (Red Hat 9.2.1-1)
REM options -cpp -mtune=generic -march=x86-64 -g -O0 -fpre-include=/usr/include/finclude/math-vector-fortran.h
REM seed 1224383676 -116821024 -2104340506 -419627973 1684964359 1672377764 -1940182917 867962773 -1396180122 148268137 -858327668 -1766470119 746118138 1835578614 -461114174 -662479594 917312392 -990595264 -1450597561 1159785021 428168580 -927138822 -524033080 2125007846 -1546000853 -1874545900 1353341417 593453648 -918773900 1325724416 -1533564698 983192432 1188312687
REM
CELL 1.54180   50.00000   50.00000   50.00000   90.00000   90.00000   90.00000
LATT -1
SFAC C  
C      1  0.4400720000000  0.5686530000000  0.4496890000000 1.0
C      1  0.4392630000000  0.5097000000000  0.5864120000000 1.0
C      1  0.4403350000000  0.4210290000000  0.4651870000000 1.0
C      1  0.5585400000000  0.4270990000000  0.4420010000000 1.0
C      1  0.5558930000000  0.4863230000000  0.5907640000000 1.0
C      1  0.5572260000000  0.5860450000000  0.4650650000000 1.0
C      1  0.5567710000000  0.4265860000000  0.5577210000000 1.0
C      1  0.5576040000000  0.4855110000000  0.4066380000000 1.0
C      1  0.5568010000000  0.5875630000000  0.5331570000000 1.0
C      1  0.4411020000000  0.5730470000000  0.5546590000000 1.0
C      1  0.4409700000000  0.5100500000000  0.4118160000000 1.0
C      1  0.4405130000000  0.4155570000000  0.5318950000000 1.0
C      1  0.5475380000000  0.5387380000000  0.5303350000000 1.0
C      1  0.5477190000000  0.4534770000000  0.5168670000000 1.0
C      1  0.5483540000000  0.5075540000000  0.4502610000000 1.0
C      1  0.4545240000000  0.4629200000000  0.5295570000000 1.0
C      1  0.4570210000000  0.5461360000000  0.5182960000000 1.0
C      1  0.4568320000000  0.4928720000000  0.4537240000000 1.0
C      1  0.4556290000000  0.4663530000000  0.4701880000000 1.0
C      1  0.4578820000000  0.5449440000000  0.4872430000000 1.0
C      1  0.4551880000000  0.4909920000000  0.5447790000000 1.0
C      1  0.5514980000000  0.5341820000000  0.4680920000000 1.0
C      1  0.5513500000000  0.4557110000000  0.4851170000000 1.0
C      1  0.5498210000000  0.5097420000000  0.5442470000000 1.0
C      1  0.4244540000000  0.5422150000000  0.4545990000000 1.0
C      1  0.4211610000000  0.5196610000000  0.5637780000000 1.0
C      1  0.4234100000000  0.4358200000000  0.4861320000000 1.0
C      1  0.5797510000000  0.4452880000000  0.4328580000000 1.0
C      1  0.5776340000000  0.4696270000000  0.5801800000000 1.0
C      1  0.5786360000000  0.5849750000000  0.4852340000000 1.0
C      1  0.5747920000000  0.4519980000000  0.5572120000000 1.0
C      1  0.5760280000000  0.4739100000000  0.4289440000000 1.0
C      1  0.5752050000000  0.5740980000000  0.5120450000000 1.0
C      1  0.4212560000000  0.5499870000000  0.5497090000000 1.0
C      1  0.4213290000000  0.5172660000000  0.4343400000000 1.0
C      1  0.4189050000000  0.4225270000000  0.5124590000000 1.0
C      1  0.4781020000000  0.5393140000000  0.5995810000000 1.0
C      1  0.4795920000000  0.3949360000000  0.4837910000000 1.0
C      1  0.4777520000000  0.5659400000000  0.4163350000000 1.0
C      1  0.5142530000000  0.4585330000000  0.6010380000000 1.0
C      1  0.5160510000000  0.6103120000000  0.4831850000000 1.0
C      1  0.5169030000000  0.4309950000000  0.4132280000000 1.0
C      1  0.5178510000000  0.4558290000000  0.3976500000000 1.0
C      1  0.5174810000000  0.6115340000000  0.5124240000000 1.0
C      1  0.5157990000000  0.4332290000000  0.5864030000000 1.0
C      1  0.4780360000000  0.5419680000000  0.3997030000000 1.0
C      1  0.4805100000000  0.3916070000000  0.5127770000000 1.0
C      1  0.4784670000000  0.5659250000000  0.5875060000000 1.0
C      1  0.5480590000000  0.4297000000000  0.4702760000000 1.0
C      1  0.5468130000000  0.5600570000000  0.4533120000000 1.0
C      1  0.5457810000000  0.5097130000000  0.5741730000000 1.0
C      1  0.4567890000000  0.5699030000000  0.4736320000000 1.0
C      1  0.4567290000000  0.4423680000000  0.4542700000000 1.0
C      1  0.4552020000000  0.4887290000000  0.5734860000000 1.0
C      1  0.4589350000000  0.5717890000000  0.5310820000000 1.0
C      1  0.4545810000000  0.4384370000000  0.5440860000000 1.0
C      1  0.4590370000000  0.4912030000000  0.4250870000000 1.0
C      1  0.5429260000000  0.4276260000000  0.5296100000000 1.0
C      1  0.5414740000000  0.5627820000000  0.5460290000000 1.0
C      1  0.5427450000000  0.5092910000000  0.4215400000000 1.0
C      1  0.4510590000000  0.5281400000000  0.6059780000000 1.0
C      1  0.4524110000000  0.3947830000000  0.4712620000000 1.0
C      1  0.4505950000000  0.5762970000000  0.4234660000000 1.0
C      1  0.5394230000000  0.4710240000000  0.6106970000000 1.0
C      1  0.5413840000000  0.6114270000000  0.4676460000000 1.0
C      1  0.5424110000000  0.4169700000000  0.4189280000000 1.0
C      1  0.5442080000000  0.4658110000000  0.3889640000000 1.0
C      1  0.5440410000000  0.6131370000000  0.5250730000000 1.0
C      1  0.5424140000000  0.4208220000000  0.5829730000000 1.0
C      1  0.4512750000000  0.5302750000000  0.3930960000000 1.0
C      1  0.4543350000000  0.3896990000000  0.5269390000000 1.0
C      1  0.4519230000000  0.5781260000000  0.5815370000000 1.0
C      1  0.4322530000000  0.5511010000000  0.3848140000000 1.0
C      1  0.4333250000000  0.5746530000000  0.6040480000000 1.0
C      1  0.4370240000000  0.3705760000000  0.5123520000000 1.0
C      1  0.5604800000000  0.4429110000000  0.3795060000000 1.0
C      1  0.5578180000000  0.4239910000000  0.6081190000000 1.0
C      1  0.5606710000000  0.6322200000000  0.5095950000000 1.0
C      1  0.5554560000000  0.4490400000000  0.6229450000000 1.0
C      1  0.5584640000000  0.4175380000000  0.3938130000000 1.0
C      1  0.5581460000000  0.6325650000000  0.4804840000000 1.0
C      1  0.4331220000000  0.5487310000000  0.6169400000000 1.0
C      1  0.4319290000000  0.5752050000000  0.4008000000000 1.0
C      1  0.4352060000000  0.3742090000000  0.4835650000000 1.0
C      1  0.4802900000000  0.4744520000000  0.5154160000000 1.0
C      1  0.4822270000000  0.5017690000000  0.4708770000000 1.0
C      1  0.4819440000000  0.5268790000000  0.5165380000000 1.0
C      1  0.5240760000000  0.5259570000000  0.5132140000000 1.0
C      1  0.5240130000000  0.4983650000000  0.4688690000000 1.0
C      1  0.5229340000000  0.4736140000000  0.5148470000000 1.0
C      1  0.5256530000000  0.5250750000000  0.4841900000000 1.0
C      1  0.5233720000000  0.4991420000000  0.5287970000000 1.0
C      1  0.5246480000000  0.4734790000000  0.4838010000000 1.0
C      1  0.4811690000000  0.4746230000000  0.4866640000000 1.0
C      1  0.4815040000000  0.5017180000000  0.5306690000000 1.0
C      1  0.4837520000000  0.5271150000000  0.4847970000000 1.0
C      1  0.4698520000000  0.5946290000000  0.5161970000000 1.0
C      1  0.4673440000000  0.4387580000000  0.5707950000000 1.0
C      1  0.4709250000000  0.4676020000000  0.4127830000000 1.0
C      1  0.5293390000000  0.4066700000000  0.5141480000000 1.0
C      1  0.5270230000000  0.5593220000000  0.5717320000000 1.0
C      1  0.5273350000000  0.5327840000000  0.4119230000000 1.0
C      1  0.5295020000000  0.4094270000000  0.4833100000000 1.0
C      1  0.5276980000000  0.5584110000000  0.4294620000000 1.0
C      1  0.5273920000000  0.5313220000000  0.5850350000000 1.0
C      1  0.4683330000000  0.5937370000000  0.4856310000000 1.0
C      1  0.4699020000000  0.4418870000000  0.4284410000000 1.0
C      1  0.4664630000000  0.4652410000000  0.5865850000000 1.0
C      1  0.5037120000000  0.5762910000000  0.5774380000000 1.0
C      1  0.5061280000000  0.3934060000000  0.5260910000000 1.0
C      1  0.5034290000000  0.5284080000000  0.3952510000000 1.0
C      1  0.4913370000000  0.4224130000000  0.5750830000000 1.0
C      1  0.4930010000000  0.6083390000000  0.5273110000000 1.0
C      1  0.4934700000000  0.4709510000000  0.3947310000000 1.0
C      1  0.4915670000000  0.4229870000000  0.4242260000000 1.0
C      1  0.4901210000000  0.6066660000000  0.4712760000000 1.0
C      1  0.4882710000000  0.4699170000000  0.6051580000000 1.0
C      1  0.5028430000000  0.5747300000000  0.4289840000000 1.0
C      1  0.5044730000000  0.4012960000000  0.4695930000000 1.0
C      1  0.5030170000000  0.5238250000000  0.6001830000000 1.0
C      1  0.4265140000000  0.5041190000000  0.5340070000000 1.0
C      1  0.4266230000000  0.4694700000000  0.4863040000000 1.0
C      1  0.4298740000000  0.5269680000000  0.4846650000000 1.0
C      1  0.5720150000000  0.4937390000000  0.5288040000000 1.0
C      1  0.5730230000000  0.5285790000000  0.4902740000000 1.0
C      1  0.5730500000000  0.4776880000000  0.4793240000000 1.0
C      1  0.5707810000000  0.4891620000000  0.4530580000000 1.0
C      1  0.5701840000000  0.5455700000000  0.5132720000000 1.0
C      1  0.5696670000000  0.4653410000000  0.5319350000000 1.0
C      1  0.4260710000000  0.4989660000000  0.4650710000000 1.0
C      1  0.4285320000000  0.4746340000000  0.5167590000000 1.0
C      1  0.4274860000000  0.5324600000000  0.5202480000000 1.0
C      1  0.4507490000000  0.5051090000000  0.4984780000000 1.0
C      1  0.5767490000000  0.5000050000000  0.4995590000000 1.0
END
