TITL C-862502-1143-585 -0.00202240015727462 125000 -528.203556500924 0 0 94 (C3) n - 1
REM
REM in /home/nfs/bkarasulu/CARBON/AIRSS/Generating-Clusters/TERSOFF/Higher-Symm/FIRE-HFTN
REM
REM
REM
REM
REM
REM ./C.cell (b20cbc046b6831c77cfcea5457e17084)
REM AIRSS Version 0.9.1 bugfix July 2018 build 013d7b7c2542+ Fri, 06 Jul 2018 19:26:36 +0100
REM compiler GCC version 9.2.1 20190827 (Red Hat 9.2.1-1)
REM options -cpp -mtune=generic -march=x86-64 -g -O0 -fpre-include=/usr/include/finclude/math-vector-fortran.h
REM seed -1744777604 1528727380 1155770761 -1496148895 -1549190605 1881589885 270844105 684978807 1450654754 -1689604772 -514535902 -1527844753 -1761623545 -1205359811 -16077977 -1241508206 2034858394 -1180577115 -1180540338 1226004144 -874379384 1091505562 -1071424503 -351842744 -982679710 195726985 -1999537000 -272062528 -2131620643 2099309947 553706469 2147171812 -726382656
REM
CELL 1.54180   50.00000   50.00000   50.00000   90.00000   90.00000   90.00000
LATT -1
SFAC C  
C      1  0.4631220000000  0.5184400000000  0.4782300000000 1.0
C      1  0.5367930000000  0.5184390000000  0.4796380000000 1.0
C      1  0.4987390000000  0.5184410000000  0.5427350000000 1.0
C      1  0.4341200000000  0.4494160000000  0.5078890000000 1.0
C      1  0.5256090000000  0.4494140000000  0.4396940000000 1.0
C      1  0.5389230000000  0.4494160000000  0.5530230000000 1.0
C      1  0.5299620000000  0.5412370000000  0.5716770000000 1.0
C      1  0.4224460000000  0.5412370000000  0.4907990000000 1.0
C      1  0.5462460000000  0.5412350000000  0.4381270000000 1.0
C      1  0.5213600000000  0.4300660000000  0.4834950000000 1.0
C      1  0.5031150000000  0.4300670000000  0.5274440000000 1.0
C      1  0.4741770000000  0.4300670000000  0.4896690000000 1.0
C      1  0.4947030000000  0.5709670000000  0.5481300000000 1.0
C      1  0.4604680000000  0.5709660000000  0.4720360000000 1.0
C      1  0.5434850000000  0.5709650000000  0.4804350000000 1.0
C      1  0.4478870000000  0.4484480000000  0.5367780000000 1.0
C      1  0.4937070000000  0.4484460000000  0.4371720000000 1.0
C      1  0.5570580000000  0.4484470000000  0.5266570000000 1.0
C      1  0.4671100000000  0.4837310000000  0.5674750000000 1.0
C      1  0.4575120000000  0.4837290000000  0.4384700000000 1.0
C      1  0.5740320000000  0.4837290000000  0.4946600000000 1.0
C      1  0.4765460000000  0.4245670000000  0.4481050000000 1.0
C      1  0.5561710000000  0.4245670000000  0.5063290000000 1.0
C      1  0.4659350000000  0.4245690000000  0.5461740000000 1.0
C      1  0.5109260000000  0.5056450000000  0.5167120000000 1.0
C      1  0.4795660000000  0.5056450000000  0.5017970000000 1.0
C      1  0.5081620000000  0.5056450000000  0.4820950000000 1.0
C      1  0.4272300000000  0.5258610000000  0.4406230000000 1.0
C      1  0.5873080000000  0.5258600000000  0.4673580000000 1.0
C      1  0.4841160000000  0.5258630000000  0.5926220000000 1.0
C      1  0.4816000000000  0.4713420000000  0.4527140000000 1.0
C      1  0.5496520000000  0.4713420000000  0.5084000000000 1.0
C      1  0.4674000000000  0.4713430000000  0.5394920000000 1.0
C      1  0.4910660000000  0.4360360000000  0.5693540000000 1.0
C      1  0.4439060000000  0.4360350000000  0.4582790000000 1.0
C      1  0.5636800000000  0.4360340000000  0.4729750000000 1.0
C      1  0.4916710000000  0.5730020000000  0.5771820000000 1.0
C      1  0.4368240000000  0.5730000000000  0.4548840000000 1.0
C      1  0.5701610000000  0.5730000000000  0.4685350000000 1.0
C      1  0.4211450000000  0.5483700000000  0.4594330000000 1.0
C      1  0.5740610000000  0.5483680000000  0.4526820000000 1.0
C      1  0.5034500000000  0.5483710000000  0.5884870000000 1.0
C      1  0.4356050000000  0.4661700000000  0.4506510000000 1.0
C      1  0.5744370000000  0.4661700000000  0.4695990000000 1.0
C      1  0.4886110000000  0.4661720000000  0.5803570000000 1.0
C      1  0.5150090000000  0.5046850000000  0.4315400000000 1.0
C      1  0.5512850000000  0.5046860000000  0.5479190000000 1.0
C      1  0.4323600000000  0.5046870000000  0.5211450000000 1.0
C      1  0.4369450000000  0.4937340000000  0.4739950000000 1.0
C      1  0.5535500000000  0.4937330000000  0.4590860000000 1.0
C      1  0.5081590000000  0.4937350000000  0.5675240000000 1.0
C      1  0.5045400000000  0.5789990000000  0.4354650000000 1.0
C      1  0.5531200000000  0.5790000000000  0.5368870000000 1.0
C      1  0.4409960000000  0.5790010000000  0.5282480000000 1.0
C      1  0.5303050000000  0.5496910000000  0.5173200000000 1.0
C      1  0.4693490000000  0.5496920000000  0.5182740000000 1.0
C      1  0.4990010000000  0.5496910000000  0.4650080000000 1.0
C      1  0.5065310000000  0.4155670000000  0.4599190000000 1.0
C      1  0.5309480000000  0.4155670000000  0.5263900000000 1.0
C      1  0.4611730000000  0.4155680000000  0.5143000000000 1.0
C      1  0.5442520000000  0.5105860000000  0.4341010000000 1.0
C      1  0.5344450000000  0.5105890000000  0.5719640000000 1.0
C      1  0.4199570000000  0.5105880000000  0.4945390000000 1.0
C      1  0.5051940000000  0.4891340000000  0.4561690000000 1.0
C      1  0.5348630000000  0.4891350000000  0.5271040000000 1.0
C      1  0.4585970000000  0.4891360000000  0.5173310000000 1.0
C      1  0.4680400000000  0.5132120000000  0.5708590000000 1.0
C      1  0.4541150000000  0.5132100000000  0.4375830000000 1.0
C      1  0.5764980000000  0.5132100000000  0.4921620000000 1.0
C      1  0.4723870000000  0.5780560000000  0.5285430000000 1.0
C      1  0.4885880000000  0.5780550000000  0.4625030000000 1.0
C      1  0.5376810000000  0.5780560000000  0.5095540000000 1.0
C      1  0.5291180000000  0.5462190000000  0.4666720000000 1.0
C      1  0.5138050000000  0.5462210000000  0.5425700000000 1.0
C      1  0.4557320000000  0.5462200000000  0.4913600000000 1.0
C      1  0.4261740000000  0.5536940000000  0.5222530000000 1.0
C      1  0.5171430000000  0.5536910000000  0.4256270000000 1.0
C      1  0.5553380000000  0.5536930000000  0.5527220000000 1.0
C      1  0.4968690000000  0.4591770000000  0.5348590000000 1.0
C      1  0.4708780000000  0.4591760000000  0.4805510000000 1.0
C      1  0.5309060000000  0.4591760000000  0.4851970000000 1.0
C      1  0.5626300000000  0.5288380000000  0.5366890000000 1.0
C      1  0.4364130000000  0.5288390000000  0.5365840000000 1.0
C      1  0.4996120000000  0.5288360000000  0.4273290000000 1.0
C      1  0.5197070000000  0.4728080000000  0.5468460000000 1.0
C      1  0.4490780000000  0.4728080000000  0.4943350000000 1.0
C      1  0.5298680000000  0.4728070000000  0.4594240000000 1.0
C      1  0.4324390000000  0.4288360000000  0.4856140000000 1.0
C      1  0.5457410000000  0.4288340000000  0.4493760000000 1.0
C      1  0.5204730000000  0.4288370000000  0.5656180000000 1.0
C      1  0.4787460000000  0.5283440000000  0.4506770000000 1.0
C      1  0.5528440000000  0.5283450000000  0.5069450000000 1.0
C      1  0.4670650000000  0.5283460000000  0.5429810000000 1.0
C      1  0.4995510000000  0.4251700000000  0.5002030000000 1.0
END
