TITL C-862129-6180-538 1.93386149639968e-05 125000 -511.191608430955 0 0 88 (C2) n - 1
REM
REM in /home/nfs/bkarasulu/CARBON/AIRSS/Generating-Clusters/TERSOFF/Higher-Symm/FIRE-HFTN
REM
REM
REM
REM
REM
REM ./C.cell (b20cbc046b6831c77cfcea5457e17084)
REM AIRSS Version 0.9.1 bugfix July 2018 build 013d7b7c2542+ Fri, 06 Jul 2018 19:26:36 +0100
REM compiler GCC version 9.2.1 20190827 (Red Hat 9.2.1-1)
REM options -cpp -mtune=generic -march=x86-64 -g -O0 -fpre-include=/usr/include/finclude/math-vector-fortran.h
REM seed 69932827 -259395110 -1887859594 1031875174 -99705007 -432673033 -1778082213 -2052190149 384551633 -1689998574 2121807088 -926204973 1729592147 1183140572 -1683701010 -671764063 666986571 -9402020 -2028544929 214079964 2079079116 170016433 2035750466 295827747 -1335116125 648046180 -1993533011 1332907341 -1301714740 -1079258221 -1593085374 551694874 -1916348703
REM
CELL 1.54180   50.00000   50.00000   50.00000   90.00000   90.00000   90.00000
LATT -1
SFAC C  
C      1  0.5142530000000  0.4398990000000  0.4402790000000 1.0
C      1  0.4850090000000  0.5590280000000  0.4406700000000 1.0
C      1  0.5171610000000  0.4391780000000  0.5590800000000 1.0
C      1  0.4822980000000  0.5613000000000  0.5593990000000 1.0
C      1  0.4822980000000  0.4387000000000  0.4406010000000 1.0
C      1  0.5171610000000  0.5608220000000  0.4409200000000 1.0
C      1  0.4850090000000  0.4409720000000  0.5593300000000 1.0
C      1  0.5142530000000  0.5601010000000  0.5597210000000 1.0
C      1  0.5149800000000  0.4125120000000  0.5152880000000 1.0
C      1  0.4836370000000  0.5875120000000  0.5152910000000 1.0
C      1  0.5152000000000  0.4121280000000  0.4835090000000 1.0
C      1  0.4834200000000  0.5872560000000  0.4835650000000 1.0
C      1  0.4834200000000  0.4127440000000  0.5164350000000 1.0
C      1  0.5152000000000  0.5878720000000  0.5164910000000 1.0
C      1  0.4836360000000  0.4124880000000  0.4847090000000 1.0
C      1  0.5149800000000  0.5874880000000  0.4847120000000 1.0
C      1  0.4927340000000  0.4804990000000  0.5476560000000 1.0
C      1  0.5080270000000  0.5197010000000  0.5503410000000 1.0
C      1  0.4796730000000  0.4798990000000  0.4479330000000 1.0
C      1  0.5209090000000  0.5201910000000  0.4505150000000 1.0
C      1  0.5209090000000  0.4798090000000  0.5494850000000 1.0
C      1  0.4796730000000  0.5201010000000  0.5520670000000 1.0
C      1  0.5080270000000  0.4802990000000  0.4496590000000 1.0
C      1  0.4927340000000  0.5195010000000  0.4523440000000 1.0
C      1  0.5597080000000  0.5145290000000  0.4354690000000 1.0
C      1  0.4401090000000  0.4841920000000  0.4345110000000 1.0
C      1  0.5544320000000  0.5194770000000  0.5631200000000 1.0
C      1  0.4464480000000  0.4821810000000  0.5617260000000 1.0
C      1  0.4464480000000  0.5178190000000  0.4382740000000 1.0
C      1  0.5544320000000  0.4805230000000  0.4368800000000 1.0
C      1  0.4401090000000  0.5158090000000  0.5654880000000 1.0
C      1  0.5597080000000  0.4854710000000  0.5645310000000 1.0
C      1  0.5259330000000  0.4351030000000  0.4685880000000 1.0
C      1  0.4731700000000  0.5638010000000  0.4690360000000 1.0
C      1  0.5270590000000  0.4350380000000  0.5299430000000 1.0
C      1  0.4718730000000  0.5651620000000  0.5303860000000 1.0
C      1  0.4718730000000  0.4348380000000  0.4696140000000 1.0
C      1  0.5270590000000  0.5649620000000  0.4700570000000 1.0
C      1  0.4731700000000  0.4361990000000  0.5309640000000 1.0
C      1  0.5259330000000  0.5648970000000  0.5314120000000 1.0
C      1  0.5766530000000  0.5370220000000  0.4851390000000 1.0
C      1  0.4223550000000  0.4628750000000  0.4843200000000 1.0
C      1  0.5817180000000  0.5333990000000  0.5143770000000 1.0
C      1  0.4191760000000  0.4663960000000  0.5138070000000 1.0
C      1  0.4191760000000  0.5336040000000  0.4861930000000 1.0
C      1  0.5817180000000  0.4666010000000  0.4856230000000 1.0
C      1  0.4223550000000  0.5371250000000  0.5156800000000 1.0
C      1  0.5766530000000  0.4629780000000  0.5148610000000 1.0
C      1  0.4661410000000  0.4665680000000  0.4244470000000 1.0
C      1  0.5337990000000  0.5324820000000  0.4260060000000 1.0
C      1  0.4744560000000  0.4707370000000  0.5700110000000 1.0
C      1  0.5261850000000  0.5309460000000  0.5718940000000 1.0
C      1  0.5261850000000  0.4690540000000  0.4281060000000 1.0
C      1  0.4744560000000  0.5292630000000  0.4299890000000 1.0
C      1  0.5337980000000  0.4675180000000  0.5739940000000 1.0
C      1  0.4661410000000  0.5334320000000  0.5755530000000 1.0
C      1  0.5221200000000  0.5146300000000  0.5260380000000 1.0
C      1  0.4785030000000  0.4867420000000  0.5236010000000 1.0
C      1  0.5365930000000  0.5131080000000  0.4739330000000 1.0
C      1  0.4648300000000  0.4859840000000  0.4717720000000 1.0
C      1  0.4648300000000  0.5140160000000  0.5282280000000 1.0
C      1  0.5365930000000  0.4868920000000  0.5260670000000 1.0
C      1  0.4785030000000  0.5132580000000  0.4763980000000 1.0
C      1  0.5221200000000  0.4853700000000  0.4739620000000 1.0
C      1  0.4235960000000  0.4845790000000  0.4641740000000 1.0
C      1  0.5773390000000  0.5158670000000  0.4643010000000 1.0
C      1  0.4335970000000  0.4861150000000  0.5304250000000 1.0
C      1  0.5680340000000  0.5139760000000  0.5320180000000 1.0
C      1  0.5680330000000  0.4860240000000  0.4679820000000 1.0
C      1  0.4335970000000  0.5138850000000  0.4695750000000 1.0
C      1  0.5773390000000  0.4841320000000  0.5356990000000 1.0
C      1  0.4235960000000  0.5154210000000  0.5358260000000 1.0
C      1  0.4863290000000  0.5155600000000  0.4057140000000 1.0
C      1  0.5140570000000  0.4840550000000  0.4045200000000 1.0
C      1  0.4819440000000  0.5173290000000  0.5971770000000 1.0
C      1  0.5182560000000  0.4826870000000  0.5962630000000 1.0
C      1  0.5182560000000  0.5173120000000  0.4037370000000 1.0
C      1  0.4819440000000  0.4826710000000  0.4028230000000 1.0
C      1  0.5140570000000  0.5159450000000  0.5954800000000 1.0
C      1  0.4863290000000  0.4844400000000  0.5942860000000 1.0
C      1  0.4641880000000  0.5403690000000  0.5144540000000 1.0
C      1  0.5348740000000  0.4594120000000  0.5133440000000 1.0
C      1  0.4672070000000  0.5389880000000  0.4858880000000 1.0
C      1  0.5320150000000  0.4600080000000  0.4848060000000 1.0
C      1  0.5320150000000  0.5399920000000  0.5151940000000 1.0
C      1  0.4672070000000  0.4610120000000  0.5141120000000 1.0
C      1  0.5348740000000  0.5405880000000  0.4866570000000 1.0
C      1  0.4641880000000  0.4596320000000  0.4855460000000 1.0
END
