TITL C-862503-991-208 0.508411132287316 125000 -350.879029273704 0 0 64 (C1) n - 1
REM
REM in /home/nfs/bkarasulu/CARBON/AIRSS/Generating-Clusters/TERSOFF/Higher-Symm/FIRE-HFTN
REM
REM
REM
REM
REM
REM ./C.cell (b20cbc046b6831c77cfcea5457e17084)
REM AIRSS Version 0.9.1 bugfix July 2018 build 013d7b7c2542+ Fri, 06 Jul 2018 19:26:36 +0100
REM compiler GCC version 9.2.1 20190827 (Red Hat 9.2.1-1)
REM options -cpp -mtune=generic -march=x86-64 -g -O0 -fpre-include=/usr/include/finclude/math-vector-fortran.h
REM seed 1742257972 84398736 -1938621292 491863556 878032191 -453701609 -1596589456 2100350117 -1431732738 396508781 1259616968 2009857013 -1068869368 1096281531 1915585278 2076600591 -209513410 -575558285 1723433357 -2030700688 -340272105 -1835917348 -64006423 150017900 1793789596 745762030 -941134132 -1957626861 -1940298317 -1618911318 890057552 -1237764799 -287514598
REM
CELL 1.54180   50.00000   50.00000   50.00000   90.00000   90.00000   90.00000
LATT -1
SFAC C  
C      1  0.4485770000000  0.5192230000000  0.4354200000000 1.0
C      1  0.4367280000000  0.4418760000000  0.4997460000000 1.0
C      1  0.4250960000000  0.5000430000000  0.5812850000000 1.0
C      1  0.4356990000000  0.4522910000000  0.5273160000000 1.0
C      1  0.4143300000000  0.5265290000000  0.5857930000000 1.0
C      1  0.4399860000000  0.4919990000000  0.4409560000000 1.0
C      1  0.4876470000000  0.4422920000000  0.5142100000000 1.0
C      1  0.4777410000000  0.5392700000000  0.5332710000000 1.0
C      1  0.4934310000000  0.5155950000000  0.4384350000000 1.0
C      1  0.5255930000000  0.4895750000000  0.5252860000000 1.0
C      1  0.5275740000000  0.5315460000000  0.4976410000000 1.0
C      1  0.5271040000000  0.4872040000000  0.4771950000000 1.0
C      1  0.4919540000000  0.4701100000000  0.4530930000000 1.0
C      1  0.4889230000000  0.4752760000000  0.5507240000000 1.0
C      1  0.4900400000000  0.5565020000000  0.4879520000000 1.0
C      1  0.4710900000000  0.4972340000000  0.5595910000000 1.0
C      1  0.4794170000000  0.5521240000000  0.4599470000000 1.0
C      1  0.4770140000000  0.4497920000000  0.4689710000000 1.0
C      1  0.4930870000000  0.4303570000000  0.4871970000000 1.0
C      1  0.4820530000000  0.5257520000000  0.5599730000000 1.0
C      1  0.4998360000000  0.5452110000000  0.4366810000000 1.0
C      1  0.4487070000000  0.4560480000000  0.4768080000000 1.0
C      1  0.4417590000000  0.4925350000000  0.5586710000000 1.0
C      1  0.4525890000000  0.5386460000000  0.4570360000000 1.0
C      1  0.4946940000000  0.5309970000000  0.5075530000000 1.0
C      1  0.4985570000000  0.4999310000000  0.4653140000000 1.0
C      1  0.4967430000000  0.4714700000000  0.5201710000000 1.0
C      1  0.5716070000000  0.4704010000000  0.4973570000000 1.0
C      1  0.5653930000000  0.5152200000000  0.5340350000000 1.0
C      1  0.5734080000000  0.5202640000000  0.4753960000000 1.0
C      1  0.5400960000000  0.5525960000000  0.5147000000000 1.0
C      1  0.5444890000000  0.4890980000000  0.4526480000000 1.0
C      1  0.5415310000000  0.4653510000000  0.5346910000000 1.0
C      1  0.5330270000000  0.5408060000000  0.4456160000000 1.0
C      1  0.5284830000000  0.4362430000000  0.4902590000000 1.0
C      1  0.5178820000000  0.5294880000000  0.5593200000000 1.0
C      1  0.5520910000000  0.4513080000000  0.5102000000000 1.0
C      1  0.5459070000000  0.5377070000000  0.5402990000000 1.0
C      1  0.5553880000000  0.5170040000000  0.4516400000000 1.0
C      1  0.4364160000000  0.5314320000000  0.4807090000000 1.0
C      1  0.4363620000000  0.4818230000000  0.4682360000000 1.0
C      1  0.4294340000000  0.4801150000000  0.5345380000000 1.0
C      1  0.5279020000000  0.5789180000000  0.5122280000000 1.0
C      1  0.5357280000000  0.4739110000000  0.4295190000000 1.0
C      1  0.5322900000000  0.4525020000000  0.5591460000000 1.0
C      1  0.5163510000000  0.4647830000000  0.4927500000000 1.0
C      1  0.5117210000000  0.5146040000000  0.5325470000000 1.0
C      1  0.5187530000000  0.5276060000000  0.4697130000000 1.0
C      1  0.5092450000000  0.4624930000000  0.4307380000000 1.0
C      1  0.5061510000000  0.4602670000000  0.5690100000000 1.0
C      1  0.5039440000000  0.5809910000000  0.4960160000000 1.0
C      1  0.6515310000000  0.5011350000000  0.5073610000000 1.0
C      1  0.4608660000000  0.4948990000000  0.4997390000000 1.0
C      1  0.6008920000000  0.5069210000000  0.5131810000000 1.0
C      1  0.6249570000000  0.5062840000000  0.4971100000000 1.0
C      1  0.3542620000000  0.5433120000000  0.5093150000000 1.0
C      1  0.4170050000000  0.4970740000000  0.5140650000000 1.0
C      1  0.5391770000000  0.5031150000000  0.5008820000000 1.0
C      1  0.4339340000000  0.5031010000000  0.4906130000000 1.0
C      1  0.6759760000000  0.5042320000000  0.4921770000000 1.0
C      1  0.5715950000000  0.5023660000000  0.5020400000000 1.0
C      1  0.3817030000000  0.5341260000000  0.5099180000000 1.0
C      1  0.3899680000000  0.5072210000000  0.5166710000000 1.0
C      1  0.4842840000000  0.5078050000000  0.4914720000000 1.0
END
