TITL C-862501-1041-158 4.54885977020764 125000 -621.802118471125 0 0 110 (C1) n - 1
REM
REM in /home/nfs/bkarasulu/CARBON/AIRSS/Generating-Clusters/TERSOFF/Higher-Symm/FIRE-HFTN
REM
REM
REM
REM
REM
REM ./C.cell (b20cbc046b6831c77cfcea5457e17084)
REM AIRSS Version 0.9.1 bugfix July 2018 build 013d7b7c2542+ Fri, 06 Jul 2018 19:26:36 +0100
REM compiler GCC version 9.2.1 20190827 (Red Hat 9.2.1-1)
REM options -cpp -mtune=generic -march=x86-64 -g -O0 -fpre-include=/usr/include/finclude/math-vector-fortran.h
REM seed 215641452 -1247613063 -777119609 1421171833 1166646945 -878130386 1823205669 -969799027 -189076524 1371362262 955272640 1976023127 -1877956106 1618877678 -2007187967 578106742 947012001 886261728 1344180476 711404351 98894765 758017462 -1225313158 727397144 -153806970 117723188 -1424702879 1168547395 764578462 762615862 -847155786 -1325325086 -1395830319
REM
CELL 1.54180   50.00000   50.00000   50.00000   90.00000   90.00000   90.00000
LATT -1
SFAC C  
C      1  0.4352140000000  0.4689970000000  0.4488430000000 1.0
C      1  0.4349780000000  0.5304140000000  0.5510060000000 1.0
C      1  0.4349670000000  0.5277180000000  0.4508820000000 1.0
C      1  0.4351710000000  0.4716970000000  0.5491130000000 1.0
C      1  0.5435610000000  0.5694040000000  0.5752380000000 1.0
C      1  0.5439350000000  0.4306140000000  0.4247620000000 1.0
C      1  0.5423130000000  0.4301030000000  0.5758790000000 1.0
C      1  0.5419800000000  0.5699140000000  0.4241310000000 1.0
C      1  0.4833680000000  0.5297510000000  0.5534200000000 1.0
C      1  0.4835500000000  0.4699410000000  0.4464880000000 1.0
C      1  0.4835920000000  0.4725590000000  0.5520590000000 1.0
C      1  0.4834540000000  0.5271230000000  0.4479660000000 1.0
C      1  0.5078900000000  0.5589220000000  0.5222140000000 1.0
C      1  0.5081410000000  0.4409100000000  0.4777830000000 1.0
C      1  0.5089120000000  0.4407900000000  0.5197730000000 1.0
C      1  0.5086840000000  0.5590260000000  0.4802240000000 1.0
C      1  0.4419340000000  0.4398920000000  0.4448590000000 1.0
C      1  0.4417070000000  0.5595250000000  0.5550580000000 1.0
C      1  0.4419890000000  0.5567700000000  0.4473000000000 1.0
C      1  0.4421610000000  0.4426570000000  0.5527160000000 1.0
C      1  0.3958780000000  0.5183350000000  0.4146040000000 1.0
C      1  0.3966770000000  0.4871460000000  0.5842560000000 1.0
C      1  0.3964750000000  0.4866150000000  0.4150260000000 1.0
C      1  0.3960120000000  0.5187680000000  0.5867290000000 1.0
C      1  0.5608550000000  0.5603170000000  0.4441390000000 1.0
C      1  0.5611390000000  0.4398010000000  0.5558720000000 1.0
C      1  0.5614470000000  0.4413640000000  0.4454240000000 1.0
C      1  0.5611470000000  0.5587520000000  0.5545880000000 1.0
C      1  0.4622580000000  0.4175520000000  0.4846790000000 1.0
C      1  0.4619010000000  0.5820700000000  0.5152950000000 1.0
C      1  0.4617990000000  0.5808790000000  0.4862110000000 1.0
C      1  0.4621400000000  0.4187280000000  0.5137680000000 1.0
C      1  0.4756700000000  0.5160870000000  0.6111990000000 1.0
C      1  0.4758010000000  0.4835630000000  0.3887530000000 1.0
C      1  0.4752790000000  0.4848750000000  0.6106220000000 1.0
C      1  0.4752430000000  0.5147740000000  0.3893630000000 1.0
C      1  0.5615140000000  0.4272640000000  0.4714490000000 1.0
C      1  0.5611610000000  0.5728560000000  0.5285640000000 1.0
C      1  0.5614990000000  0.5752390000000  0.4697400000000 1.0
C      1  0.5618550000000  0.4248890000000  0.5302670000000 1.0
C      1  0.4744170000000  0.4406740000000  0.4425540000000 1.0
C      1  0.4741310000000  0.5589380000000  0.5573900000000 1.0
C      1  0.4742210000000  0.5561780000000  0.4449470000000 1.0
C      1  0.4744460000000  0.4434360000000  0.5550690000000 1.0
C      1  0.5675690000000  0.5150760000000  0.5315470000000 1.0
C      1  0.5676000000000  0.4850770000000  0.4684660000000 1.0
C      1  0.5680110000000  0.4829220000000  0.5318510000000 1.0
C      1  0.5679640000000  0.5172330000000  0.4681620000000 1.0
C      1  0.5337160000000  0.5211480000000  0.5915910000000 1.0
C      1  0.5338760000000  0.4788230000000  0.4083740000000 1.0
C      1  0.5331850000000  0.4791520000000  0.5914170000000 1.0
C      1  0.5331020000000  0.5208140000000  0.4086000000000 1.0
C      1  0.4901440000000  0.5631190000000  0.4204240000000 1.0
C      1  0.4904440000000  0.4366030000000  0.5795800000000 1.0
C      1  0.4918660000000  0.4349510000000  0.4186850000000 1.0
C      1  0.4914990000000  0.5647820000000  0.5812810000000 1.0
C      1  0.5377140000000  0.5892400000000  0.4819620000000 1.0
C      1  0.5381410000000  0.4107680000000  0.5180470000000 1.0
C      1  0.5381020000000  0.4119280000000  0.4826720000000 1.0
C      1  0.5376830000000  0.5880780000000  0.5173300000000 1.0
C      1  0.5153130000000  0.5793570000000  0.4312090000000 1.0
C      1  0.5156990000000  0.4205110000000  0.5687990000000 1.0
C      1  0.5174780000000  0.4198500000000  0.4307410000000 1.0
C      1  0.5170510000000  0.5800290000000  0.5692410000000 1.0
C      1  0.5123190000000  0.5296470000000  0.5197140000000 1.0
C      1  0.5124000000000  0.4702050000000  0.4803030000000 1.0
C      1  0.5134280000000  0.4677780000000  0.5111840000000 1.0
C      1  0.5133290000000  0.5320680000000  0.4888340000000 1.0
C      1  0.4839000000000  0.5710690000000  0.5323320000000 1.0
C      1  0.4842260000000  0.4286300000000  0.4676480000000 1.0
C      1  0.4841110000000  0.4307660000000  0.5302560000000 1.0
C      1  0.4838320000000  0.5689250000000  0.4697350000000 1.0
C      1  0.5604220000000  0.5151060000000  0.5791980000000 1.0
C      1  0.5605360000000  0.4850050000000  0.4208030000000 1.0
C      1  0.5602840000000  0.4841510000000  0.5794160000000 1.0
C      1  0.5602250000000  0.5159610000000  0.4205990000000 1.0
C      1  0.5175610000000  0.4046990000000  0.4587240000000 1.0
C      1  0.5170910000000  0.5951970000000  0.5412590000000 1.0
C      1  0.5155850000000  0.5945900000000  0.4589970000000 1.0
C      1  0.5160550000000  0.4052820000000  0.5410140000000 1.0
C      1  0.5072470000000  0.4848990000000  0.5708980000000 1.0
C      1  0.5071890000000  0.5148880000000  0.4291100000000 1.0
C      1  0.5074360000000  0.5166890000000  0.5713460000000 1.0
C      1  0.5075660000000  0.4830960000000  0.4286030000000 1.0
C      1  0.4940290000000  0.4658740000000  0.4060300000000 1.0
C      1  0.4937870000000  0.5338490000000  0.5938910000000 1.0
C      1  0.4927850000000  0.5323730000000  0.4073600000000 1.0
C      1  0.4929390000000  0.4673490000000  0.5926660000000 1.0
C      1  0.4099010000000  0.5146720000000  0.4432350000000 1.0
C      1  0.4096370000000  0.4845800000000  0.5553490000000 1.0
C      1  0.4096050000000  0.4821570000000  0.4436330000000 1.0
C      1  0.4098890000000  0.5169990000000  0.5578440000000 1.0
C      1  0.5405720000000  0.4849480000000  0.4841450000000 1.0
C      1  0.5405400000000  0.5149940000000  0.5158660000000 1.0
C      1  0.5407020000000  0.5171980000000  0.4838540000000 1.0
C      1  0.5407540000000  0.4827430000000  0.5161560000000 1.0
C      1  0.4375770000000  0.4239080000000  0.5297630000000 1.0
C      1  0.4372700000000  0.5755350000000  0.4702090000000 1.0
C      1  0.4374130000000  0.5779170000000  0.5317020000000 1.0
C      1  0.4377510000000  0.4215500000000  0.4682720000000 1.0
C      1  0.5687310000000  0.4683440000000  0.5565800000000 1.0
C      1  0.5685920000000  0.5318140000000  0.4434340000000 1.0
C      1  0.5685860000000  0.5302470000000  0.5558800000000 1.0
C      1  0.5687390000000  0.4699090000000  0.4441360000000 1.0
C      1  0.4594280000000  0.4844090000000  0.4527180000000 1.0
C      1  0.4593350000000  0.5151580000000  0.5470690000000 1.0
C      1  0.4593880000000  0.5122310000000  0.4538830000000 1.0
C      1  0.4594570000000  0.4873260000000  0.5461600000000 1.0
C      1  0.5291210000000  0.5001160000000  0.6145150000000 1.0
C      1  0.5291720000000  0.4998560000000  0.3854740000000 1.0
END
