TITL C-862502-1143-69 367.676742781216 125000 -917.407128066064 0 0 165 (C1) n - 1
REM
REM in /home/nfs/bkarasulu/CARBON/AIRSS/Generating-Clusters/TERSOFF/Higher-Symm/FIRE-HFTN
REM
REM
REM
REM
REM
REM ./C.cell (b20cbc046b6831c77cfcea5457e17084)
REM AIRSS Version 0.9.1 bugfix July 2018 build 013d7b7c2542+ Fri, 06 Jul 2018 19:26:36 +0100
REM compiler GCC version 9.2.1 20190827 (Red Hat 9.2.1-1)
REM options -cpp -mtune=generic -march=x86-64 -g -O0 -fpre-include=/usr/include/finclude/math-vector-fortran.h
REM seed -145897753 614731953 -290209387 -38221153 1829700674 -1259715632 -1435348614 -806154377 1818414834 1345117638 -1682016198 -1558146660 1951156400 -1392475458 1704651857 -1503757525 103503975 -1393652682 -1213296326 -811968028 -585364510 1821060333 -244738309 -132927454 -729682170 605014888 -1295941608 1959618024 -166809019 2018390956 523692505 307547495 -1653658559
REM
CELL 1.54180   50.00000   50.00000   50.00000   90.00000   90.00000   90.00000
LATT -1
SFAC C  
C      1  0.5486420000000  0.4286030000000  0.5499760000000 1.0
C      1  0.4267370000000  0.4241170000000  0.5174490000000 1.0
C      1  0.5200180000000  0.4130530000000  0.4347030000000 1.0
C      1  0.5485900000000  0.5784540000000  0.5527920000000 1.0
C      1  0.4353310000000  0.5836970000000  0.5142740000000 1.0
C      1  0.5254940000000  0.5794740000000  0.4205690000000 1.0
C      1  0.5492920000000  0.4165110000000  0.4505980000000 1.0
C      1  0.4339150000000  0.4226760000000  0.4853120000000 1.0
C      1  0.5198720000000  0.4236010000000  0.5661860000000 1.0
C      1  0.5532950000000  0.5790100000000  0.4411390000000 1.0
C      1  0.4349240000000  0.5802400000000  0.4796950000000 1.0
C      1  0.5173690000000  0.5734980000000  0.5655780000000 1.0
C      1  0.4399340000000  0.4637520000000  0.5313660000000 1.0
C      1  0.4896960000000  0.4601890000000  0.4289590000000 1.0
C      1  0.5688350000000  0.4710120000000  0.5350620000000 1.0
C      1  0.4433470000000  0.5361550000000  0.5448560000000 1.0
C      1  0.4987050000000  0.5344830000000  0.4260300000000 1.0
C      1  0.5557760000000  0.5363920000000  0.5401100000000 1.0
C      1  0.4356930000000  0.4695570000000  0.4580100000000 1.0
C      1  0.5022050000000  0.4703360000000  0.5649840000000 1.0
C      1  0.5615260000000  0.4733640000000  0.4717470000000 1.0
C      1  0.4425140000000  0.5291930000000  0.4683750000000 1.0
C      1  0.4948790000000  0.5258300000000  0.5777730000000 1.0
C      1  0.5642590000000  0.5344240000000  0.4619350000000 1.0
C      1  0.4156730000000  0.4599590000000  0.4302420000000 1.0
C      1  0.6249890000000  0.4655080000000  0.4623560000000 1.0
C      1  0.4732870000000  0.4499540000000  0.6181230000000 1.0
C      1  0.4085940000000  0.5432650000000  0.4162000000000 1.0
C      1  0.5964540000000  0.5475090000000  0.4577940000000 1.0
C      1  0.4787820000000  0.5378970000000  0.6081070000000 1.0
C      1  0.4232310000000  0.4523040000000  0.5592400000000 1.0
C      1  0.6001250000000  0.4592750000000  0.5351430000000 1.0
C      1  0.4737110000000  0.4522360000000  0.3976750000000 1.0
C      1  0.4229270000000  0.5447930000000  0.5732740000000 1.0
C      1  0.5871780000000  0.5542680000000  0.5424510000000 1.0
C      1  0.4835770000000  0.5430820000000  0.3991420000000 1.0
C      1  0.5090980000000  0.4618190000000  0.5369720000000 1.0
C      1  0.4580440000000  0.4542490000000  0.4718400000000 1.0
C      1  0.5374600000000  0.4624640000000  0.4866590000000 1.0
C      1  0.4960480000000  0.5362040000000  0.5486100000000 1.0
C      1  0.4635410000000  0.5368390000000  0.4887510000000 1.0
C      1  0.5390260000000  0.5505790000000  0.4683820000000 1.0
C      1  0.4826540000000  0.4456520000000  0.4555120000000 1.0
C      1  0.4585250000000  0.4492370000000  0.5064740000000 1.0
C      1  0.5421860000000  0.4600060000000  0.5223500000000 1.0
C      1  0.5087750000000  0.5535750000000  0.4489950000000 1.0
C      1  0.4704700000000  0.5493460000000  0.5391590000000 1.0
C      1  0.5271520000000  0.5476430000000  0.5340200000000 1.0
C      1  0.4550450000000  0.4775020000000  0.3965380000000 1.0
C      1  0.6141410000000  0.4542310000000  0.5103260000000 1.0
C      1  0.4384890000000  0.4411600000000  0.5816940000000 1.0
C      1  0.4562300000000  0.5524410000000  0.4013600000000 1.0
C      1  0.5988170000000  0.5498440000000  0.5133090000000 1.0
C      1  0.4303830000000  0.5198110000000  0.5910430000000 1.0
C      1  0.4632890000000  0.4530800000000  0.5911000000000 1.0
C      1  0.6094400000000  0.4694890000000  0.4863000000000 1.0
C      1  0.4269990000000  0.4794260000000  0.4083080000000 1.0
C      1  0.4547310000000  0.5174530000000  0.6088280000000 1.0
C      1  0.6077970000000  0.5381430000000  0.4853900000000 1.0
C      1  0.4373850000000  0.5409360000000  0.4200640000000 1.0
C      1  0.4962720000000  0.4762500000000  0.5137760000000 1.0
C      1  0.4542220000000  0.4963580000000  0.4948990000000 1.0
C      1  0.4939770000000  0.4848020000000  0.4653010000000 1.0
C      1  0.5423380000000  0.5003570000000  0.5040000000000 1.0
C      1  0.5004850000000  0.5163020000000  0.5256620000000 1.0
C      1  0.5090420000000  0.5223440000000  0.4764190000000 1.0
C      1  0.5102240000000  0.4771920000000  0.4882710000000 1.0
C      1  0.4670700000000  0.4951530000000  0.4691380000000 1.0
C      1  0.4705520000000  0.4883260000000  0.5164660000000 1.0
C      1  0.5344640000000  0.5101870000000  0.4789160000000 1.0
C      1  0.4884140000000  0.5206770000000  0.4965100000000 1.0
C      1  0.5260720000000  0.5027420000000  0.5269040000000 1.0
C      1  0.5559230000000  0.5560410000000  0.5771780000000 1.0
C      1  0.4154390000000  0.5583030000000  0.5110990000000 1.0
C      1  0.5312150000000  0.5503900000000  0.4047480000000 1.0
C      1  0.5621590000000  0.4480970000000  0.5724350000000 1.0
C      1  0.4040380000000  0.4473620000000  0.5171900000000 1.0
C      1  0.5331550000000  0.4401680000000  0.4199060000000 1.0
C      1  0.5549590000000  0.5497010000000  0.4234380000000 1.0
C      1  0.4102360000000  0.5574280000000  0.4813610000000 1.0
C      1  0.5283100000000  0.5529760000000  0.5895090000000 1.0
C      1  0.5603200000000  0.4425440000000  0.4338260000000 1.0
C      1  0.4098290000000  0.4478040000000  0.4871720000000 1.0
C      1  0.5345720000000  0.4457800000000  0.5856200000000 1.0
C      1  0.5194180000000  0.4665870000000  0.4178490000000 1.0
C      1  0.5671150000000  0.4777490000000  0.5659970000000 1.0
C      1  0.4124000000000  0.4790490000000  0.5208750000000 1.0
C      1  0.5228490000000  0.5187380000000  0.4108930000000 1.0
C      1  0.5624950000000  0.5253380000000  0.5701610000000 1.0
C      1  0.4206610000000  0.5306740000000  0.5226430000000 1.0
C      1  0.5229090000000  0.4734370000000  0.5863120000000 1.0
C      1  0.5637180000000  0.4716060000000  0.4420090000000 1.0
C      1  0.4129020000000  0.4771130000000  0.4773120000000 1.0
C      1  0.5228000000000  0.5220320000000  0.5910910000000 1.0
C      1  0.5613890000000  0.5212310000000  0.4338570000000 1.0
C      1  0.4132930000000  0.5275690000000  0.4756810000000 1.0
C      1  0.4437410000000  0.5099550000000  0.5625590000000 1.0
C      1  0.4778900000000  0.5151850000000  0.4339120000000 1.0
C      1  0.5749810000000  0.5231470000000  0.5172060000000 1.0
C      1  0.4527160000000  0.4816830000000  0.5537370000000 1.0
C      1  0.4742320000000  0.4866270000000  0.4217510000000 1.0
C      1  0.5812800000000  0.4920900000000  0.5169280000000 1.0
C      1  0.4486490000000  0.5227640000000  0.4408340000000 1.0
C      1  0.4712180000000  0.5048960000000  0.5833610000000 1.0
C      1  0.5816310000000  0.5188490000000  0.4846200000000 1.0
C      1  0.4435810000000  0.4909950000000  0.4346140000000 1.0
C      1  0.4746310000000  0.4736990000000  0.5736320000000 1.0
C      1  0.5842000000000  0.4859110000000  0.4861720000000 1.0
C      1  0.4941400000000  0.5928170000000  0.5660380000000 1.0
C      1  0.4524780000000  0.5919860000000  0.4568590000000 1.0
C      1  0.5558040000000  0.5889660000000  0.4712270000000 1.0
C      1  0.4912610000000  0.4124790000000  0.5637490000000 1.0
C      1  0.4487150000000  0.4021330000000  0.4676800000000 1.0
C      1  0.5577390000000  0.4048570000000  0.4769200000000 1.0
C      1  0.4980940000000  0.5915090000000  0.4276120000000 1.0
C      1  0.4487940000000  0.5988040000000  0.5378550000000 1.0
C      1  0.5612330000000  0.5882270000000  0.5255910000000 1.0
C      1  0.4937970000000  0.3969660000000  0.4395550000000 1.0
C      1  0.4432650000000  0.4140710000000  0.5407980000000 1.0
C      1  0.5622250000000  0.4118210000000  0.5291270000000 1.0
C      1  0.6134920000000  0.4741290000000  0.5572870000000 1.0
C      1  0.4011240000000  0.4723040000000  0.5642920000000 1.0
C      1  0.4943330000000  0.4578570000000  0.3769950000000 1.0
C      1  0.6043510000000  0.5410150000000  0.5628390000000 1.0
C      1  0.3954140000000  0.5384310000000  0.5637910000000 1.0
C      1  0.4911190000000  0.5232570000000  0.3778930000000 1.0
C      1  0.6151700000000  0.4708380000000  0.4360780000000 1.0
C      1  0.3882350000000  0.4684020000000  0.4379220000000 1.0
C      1  0.4948670000000  0.4657880000000  0.6294250000000 1.0
C      1  0.6072120000000  0.5322400000000  0.4345580000000 1.0
C      1  0.3886810000000  0.5286600000000  0.4313670000000 1.0
C      1  0.4974340000000  0.5295320000000  0.6297310000000 1.0
C      1  0.5912450000000  0.5186800000000  0.5767290000000 1.0
C      1  0.3972560000000  0.5211380000000  0.5404530000000 1.0
C      1  0.5137740000000  0.5053330000000  0.3854000000000 1.0
C      1  0.5942850000000  0.4888880000000  0.5739550000000 1.0
C      1  0.3951350000000  0.4913590000000  0.5419730000000 1.0
C      1  0.5143940000000  0.4755100000000  0.3886080000000 1.0
C      1  0.5882180000000  0.5121120000000  0.4248270000000 1.0
C      1  0.3936910000000  0.5157590000000  0.4568100000000 1.0
C      1  0.5178250000000  0.5114030000000  0.6191230000000 1.0
C      1  0.5898670000000  0.4835300000000  0.4309650000000 1.0
C      1  0.3896900000000  0.4868010000000  0.4606770000000 1.0
C      1  0.5132580000000  0.4821670000000  0.6138160000000 1.0
C      1  0.4994850000000  0.5863420000000  0.5248910000000 1.0
C      1  0.4718430000000  0.5643240000000  0.4915860000000 1.0
C      1  0.5223650000000  0.5694010000000  0.4874270000000 1.0
C      1  0.5016760000000  0.4321900000000  0.5281620000000 1.0
C      1  0.4839940000000  0.4108340000000  0.4887410000000 1.0
C      1  0.5266540000000  0.4326320000000  0.4820410000000 1.0
C      1  0.4948630000000  0.5716740000000  0.4742720000000 1.0
C      1  0.4750250000000  0.5713910000000  0.5198570000000 1.0
C      1  0.5235680000000  0.5717980000000  0.5169380000000 1.0
C      1  0.5002920000000  0.4256820000000  0.4694940000000 1.0
C      1  0.4774520000000  0.4265260000000  0.5123710000000 1.0
C      1  0.5284420000000  0.4310700000000  0.5132530000000 1.0
C      1  0.4730740000000  0.5781610000000  0.4389680000000 1.0
C      1  0.4673960000000  0.4271500000000  0.5531390000000 1.0
C      1  0.4657100000000  0.5859270000000  0.5591870000000 1.0
C      1  0.5669600000000  0.4200230000000  0.5006850000000 1.0
C      1  0.4664870000000  0.4085400000000  0.4444330000000 1.0
C      1  0.5626320000000  0.5749540000000  0.4979690000000 1.0
C      1  0.5427580000000  0.4991600000000  0.5755620000000 1.0
C      1  0.5385330000000  0.4945680000000  0.4302940000000 1.0
C      1  0.4240930000000  0.5031820000000  0.4992450000000 1.0
END
