TITL C-862131-2149-1270 0.000773414036380456 125000 -228.612226335707 0 0 39 (C1) n - 1
REM
REM in /home/nfs/bkarasulu/CARBON/AIRSS/Generating-Clusters/TERSOFF/Higher-Symm/FIRE-HFTN
REM
REM
REM
REM
REM
REM ./C.cell (b20cbc046b6831c77cfcea5457e17084)
REM AIRSS Version 0.9.1 bugfix July 2018 build 013d7b7c2542+ Fri, 06 Jul 2018 19:26:36 +0100
REM compiler GCC version 9.2.1 20190827 (Red Hat 9.2.1-1)
REM options -cpp -mtune=generic -march=x86-64 -g -O0 -fpre-include=/usr/include/finclude/math-vector-fortran.h
REM seed -1763563122 -1802448029 2109441605 -836257603 -1732057872 2081857131 930942427 -677104539 1119300746 521444730 -116347598 -1380755182 759324503 1241825941 1942580429 1019575710 1056330732 1341388285 1171217956 1204277349 -1119275096 2124734867 827007785 833115885 -2025390278 85766327 607906961 -923293657 -1511477656 -1906987639 -685384040 -1563054714 601794451
REM
CELL 1.54180   50.00000   50.00000   50.00000   90.00000   90.00000   90.00000
LATT -1
SFAC C  
C      1  0.5303420000000  0.5466560000000  0.4952010000000 1.0
C      1  0.5280710000000  0.5082900000000  0.4494210000000 1.0
C      1  0.5279200000000  0.4535970000000  0.4727770000000 1.0
C      1  0.5299240000000  0.4606790000000  0.5317400000000 1.0
C      1  0.5276450000000  0.5235260000000  0.5589640000000 1.0
C      1  0.5185640000000  0.5480600000000  0.5456350000000 1.0
C      1  0.5204940000000  0.5525180000000  0.4686120000000 1.0
C      1  0.5181750000000  0.4844930000000  0.4364640000000 1.0
C      1  0.5191260000000  0.4343280000000  0.4924240000000 1.0
C      1  0.5228560000000  0.4730940000000  0.5573530000000 1.0
C      1  0.4693210000000  0.5378480000000  0.4866900000000 1.0
C      1  0.4679740000000  0.4969350000000  0.4578840000000 1.0
C      1  0.4684470000000  0.4573560000000  0.4886830000000 1.0
C      1  0.4696150000000  0.4739590000000  0.5363650000000 1.0
C      1  0.4695120000000  0.5238010000000  0.5349120000000 1.0
C      1  0.5093120000000  0.4991550000000  0.5593270000000 1.0
C      1  0.5102130000000  0.5488170000000  0.5175200000000 1.0
C      1  0.5088340000000  0.5302070000000  0.4542570000000 1.0
C      1  0.5076620000000  0.4640940000000  0.4540650000000 1.0
C      1  0.5093940000000  0.4451650000000  0.5174570000000 1.0
C      1  0.4817800000000  0.5229710000000  0.4640250000000 1.0
C      1  0.4811090000000  0.4711020000000  0.4651070000000 1.0
C      1  0.4824460000000  0.4568810000000  0.5151250000000 1.0
C      1  0.4827600000000  0.4993360000000  0.5457460000000 1.0
C      1  0.4830180000000  0.5388260000000  0.5132920000000 1.0
C      1  0.5467080000000  0.5026420000000  0.4721280000000 1.0
C      1  0.5467680000000  0.4740940000000  0.4837760000000 1.0
C      1  0.5488140000000  0.4761290000000  0.5141620000000 1.0
C      1  0.5535890000000  0.5155350000000  0.5473240000000 1.0
C      1  0.5486490000000  0.5227560000000  0.4953420000000 1.0
C      1  0.4393000000000  0.4973250000000  0.4658390000000 1.0
C      1  0.4396910000000  0.4641610000000  0.4913230000000 1.0
C      1  0.4406790000000  0.4780980000000  0.5307430000000 1.0
C      1  0.4405590000000  0.5199090000000  0.5297200000000 1.0
C      1  0.4404340000000  0.5317190000000  0.4896050000000 1.0
C      1  0.5157700000000  0.5072020000000  0.5186200000000 1.0
C      1  0.5466520000000  0.5055510000000  0.5204500000000 1.0
C      1  0.4320780000000  0.4982990000000  0.5015940000000 1.0
C      1  0.4998230000000  0.4954290000000  0.4975290000000 1.0
END
