TITL C-862127-1500-77 0.0274243782537276 125000 -944.671208307386 0 0 169 (C1) n - 1
REM
REM in /home/nfs/bkarasulu/CARBON/AIRSS/Generating-Clusters/TERSOFF/Higher-Symm/FIRE-HFTN
REM
REM
REM
REM
REM
REM ./C.cell (b20cbc046b6831c77cfcea5457e17084)
REM AIRSS Version 0.9.1 bugfix July 2018 build 013d7b7c2542+ Fri, 06 Jul 2018 19:26:36 +0100
REM compiler GCC version 9.2.1 20190827 (Red Hat 9.2.1-1)
REM options -cpp -mtune=generic -march=x86-64 -g -O0 -fpre-include=/usr/include/finclude/math-vector-fortran.h
REM seed 1163821128 1028228913 151698713 1239067084 192696186 -835608366 1856586595 213554341 -616835477 177347476 1451601357 -604189632 -1343343796 1169267582 -2069003064 2015895076 1265069480 -1097445599 985662417 1375350166 1707170603 -801462805 1306117417 1301755064 1048161946 -268364262 -1013978434 1532272228 381544254 535226829 -500651410 -1456579963 933814450
REM
CELL 1.54180   50.00000   50.00000   50.00000   90.00000   90.00000   90.00000
LATT -1
SFAC C  
C      1  0.4272730000000  0.5711670000000  0.5399260000000 1.0
C      1  0.4292430000000  0.5414280000000  0.4325410000000 1.0
C      1  0.4321010000000  0.4341770000000  0.4617230000000 1.0
C      1  0.4298830000000  0.4605890000000  0.5701370000000 1.0
C      1  0.5714220000000  0.5676250000000  0.4589630000000 1.0
C      1  0.5685940000000  0.5387180000000  0.5657480000000 1.0
C      1  0.5709020000000  0.4294490000000  0.5390840000000 1.0
C      1  0.5730480000000  0.4601710000000  0.4284820000000 1.0
C      1  0.4694880000000  0.5039550000000  0.4736770000000 1.0
C      1  0.4685000000000  0.4832050000000  0.5033000000000 1.0
C      1  0.4570270000000  0.5061850000000  0.5197820000000 1.0
C      1  0.4652360000000  0.5285230000000  0.4997240000000 1.0
C      1  0.5324910000000  0.4979840000000  0.5171130000000 1.0
C      1  0.5421850000000  0.4790990000000  0.4938970000000 1.0
C      1  0.5360630000000  0.5011350000000  0.4719190000000 1.0
C      1  0.5314290000000  0.5263000000000  0.4968070000000 1.0
C      1  0.6113120000000  0.5072380000000  0.4575340000000 1.0
C      1  0.6098700000000  0.4563850000000  0.4914240000000 1.0
C      1  0.6073750000000  0.4903980000000  0.5420900000000 1.0
C      1  0.6092930000000  0.5403510000000  0.5082720000000 1.0
C      1  0.3897470000000  0.5079020000000  0.5431790000000 1.0
C      1  0.3929380000000  0.4569510000000  0.5091460000000 1.0
C      1  0.3914590000000  0.4914350000000  0.4594470000000 1.0
C      1  0.3889400000000  0.5423030000000  0.4924710000000 1.0
C      1  0.6102290000000  0.4678750000000  0.5201880000000 1.0
C      1  0.6096880000000  0.5188690000000  0.5309340000000 1.0
C      1  0.6125980000000  0.5292460000000  0.4798000000000 1.0
C      1  0.6124590000000  0.4783570000000  0.4688930000000 1.0
C      1  0.3911670000000  0.4685320000000  0.4807390000000 1.0
C      1  0.3876260000000  0.5199190000000  0.4704890000000 1.0
C      1  0.3870330000000  0.5306970000000  0.5213400000000 1.0
C      1  0.3894590000000  0.4789410000000  0.5317830000000 1.0
C      1  0.4753570000000  0.5846120000000  0.5273540000000 1.0
C      1  0.4765650000000  0.5296520000000  0.4163570000000 1.0
C      1  0.4789950000000  0.4156630000000  0.4694390000000 1.0
C      1  0.4767530000000  0.4698270000000  0.5850080000000 1.0
C      1  0.5240970000000  0.5834490000000  0.4709920000000 1.0
C      1  0.5215360000000  0.5296940000000  0.5823090000000 1.0
C      1  0.5240580000000  0.4132200000000  0.5312460000000 1.0
C      1  0.5250950000000  0.4725300000000  0.4161900000000 1.0
C      1  0.4211140000000  0.4932740000000  0.5828220000000 1.0
C      1  0.4191280000000  0.5839080000000  0.5071080000000 1.0
C      1  0.4207750000000  0.5087750000000  0.4196210000000 1.0
C      1  0.4241930000000  0.4196500000000  0.4938180000000 1.0
C      1  0.5815350000000  0.4929830000000  0.4159760000000 1.0
C      1  0.5799320000000  0.5805020000000  0.4916150000000 1.0
C      1  0.5767720000000  0.5066050000000  0.5800600000000 1.0
C      1  0.5792360000000  0.4164550000000  0.5063900000000 1.0
C      1  0.5810210000000  0.4529730000000  0.5621280000000 1.0
C      1  0.5818510000000  0.5603830000000  0.5449530000000 1.0
C      1  0.5853110000000  0.5462180000000  0.4371110000000 1.0
C      1  0.5838000000000  0.4361350000000  0.4523820000000 1.0
C      1  0.4193280000000  0.4550740000000  0.4396450000000 1.0
C      1  0.4151910000000  0.5630210000000  0.4538530000000 1.0
C      1  0.4159420000000  0.5472730000000  0.5632200000000 1.0
C      1  0.4192860000000  0.4377900000000  0.5470750000000 1.0
C      1  0.5368660000000  0.5481720000000  0.5399750000000 1.0
C      1  0.5399500000000  0.5416820000000  0.4490420000000 1.0
C      1  0.5431560000000  0.4466620000000  0.4546480000000 1.0
C      1  0.5397590000000  0.4547930000000  0.5512830000000 1.0
C      1  0.4607830000000  0.5505580000000  0.4586930000000 1.0
C      1  0.4579300000000  0.5444960000000  0.5504070000000 1.0
C      1  0.4609860000000  0.4477280000000  0.5450720000000 1.0
C      1  0.4644880000000  0.4595980000000  0.4537300000000 1.0
C      1  0.5816230000000  0.4847870000000  0.4791130000000 1.0
C      1  0.5797640000000  0.4792310000000  0.5126240000000 1.0
C      1  0.5796100000000  0.5123780000000  0.5179480000000 1.0
C      1  0.5816300000000  0.5179920000000  0.4850990000000 1.0
C      1  0.4197990000000  0.4868970000000  0.5208130000000 1.0
C      1  0.4208450000000  0.4819390000000  0.4877950000000 1.0
C      1  0.4185400000000  0.5145700000000  0.4819390000000 1.0
C      1  0.4179420000000  0.5207830000000  0.5149830000000 1.0
C      1  0.4138680000000  0.5592440000000  0.4848440000000 1.0
C      1  0.4169400000000  0.4857440000000  0.4434950000000 1.0
C      1  0.4196710000000  0.4424290000000  0.5162900000000 1.0
C      1  0.4148960000000  0.5158950000000  0.5591550000000 1.0
C      1  0.5839830000000  0.5565070000000  0.5143160000000 1.0
C      1  0.5811580000000  0.4837450000000  0.5571860000000 1.0
C      1  0.5848060000000  0.4401530000000  0.4836870000000 1.0
C      1  0.5865780000000  0.5151560000000  0.4407020000000 1.0
C      1  0.4840940000000  0.5576210000000  0.4760500000000 1.0
C      1  0.4871190000000  0.4766680000000  0.4470820000000 1.0
C      1  0.4835540000000  0.4390410000000  0.5284570000000 1.0
C      1  0.4800620000000  0.5264710000000  0.5578410000000 1.0
C      1  0.5140200000000  0.5556290000000  0.5229470000000 1.0
C      1  0.5171790000000  0.4716430000000  0.5586730000000 1.0
C      1  0.5213220000000  0.4382350000000  0.4723370000000 1.0
C      1  0.5167650000000  0.5244940000000  0.4415330000000 1.0
C      1  0.5163540000000  0.5730460000000  0.4205140000000 1.0
C      1  0.5166120000000  0.4210600000000  0.4248850000000 1.0
C      1  0.5164500000000  0.4256090000000  0.5813230000000 1.0
C      1  0.5155050000000  0.5795570000000  0.5709220000000 1.0
C      1  0.4833820000000  0.5742510000000  0.5782770000000 1.0
C      1  0.4843370000000  0.4189410000000  0.5750210000000 1.0
C      1  0.4844990000000  0.4291450000000  0.4205140000000 1.0
C      1  0.4842890000000  0.5797240000000  0.4273830000000 1.0
C      1  0.5479360000000  0.4639830000000  0.6062870000000 1.0
C      1  0.5474500000000  0.6048060000000  0.5355730000000 1.0
C      1  0.5481010000000  0.5378510000000  0.3930090000000 1.0
C      1  0.5496610000000  0.3927380000000  0.4615660000000 1.0
C      1  0.4533040000000  0.4651600000000  0.3958680000000 1.0
C      1  0.4527470000000  0.6069550000000  0.4622770000000 1.0
C      1  0.4513380000000  0.5376420000000  0.6058180000000 1.0
C      1  0.4522740000000  0.3932920000000  0.5368880000000 1.0
C      1  0.5560300000000  0.5993920000000  0.5069810000000 1.0
C      1  0.5563710000000  0.5087740000000  0.3977550000000 1.0
C      1  0.5549070000000  0.3977460000000  0.4913990000000 1.0
C      1  0.5531910000000  0.4929730000000  0.5992100000000 1.0
C      1  0.4438730000000  0.6022690000000  0.4911380000000 1.0
C      1  0.4452330000000  0.5082240000000  0.6009930000000 1.0
C      1  0.4475110000000  0.4001080000000  0.5075650000000 1.0
C      1  0.4445490000000  0.4936850000000  0.4007110000000 1.0
C      1  0.5053700000000  0.5288900000000  0.4156930000000 1.0
C      1  0.5079540000000  0.4135920000000  0.4681480000000 1.0
C      1  0.5056830000000  0.4692670000000  0.5846270000000 1.0
C      1  0.5040130000000  0.5824840000000  0.5265080000000 1.0
C      1  0.4928480000000  0.5303330000000  0.5829760000000 1.0
C      1  0.4950380000000  0.4133530000000  0.5320000000000 1.0
C      1  0.4967210000000  0.4736030000000  0.4197380000000 1.0
C      1  0.4953660000000  0.5836430000000  0.4718230000000 1.0
C      1  0.5349620000000  0.5045540000000  0.5775330000000 1.0
C      1  0.5382680000000  0.5776330000000  0.4954440000000 1.0
C      1  0.5400000000000  0.4966920000000  0.4203920000000 1.0
C      1  0.5373860000000  0.4188150000000  0.5057350000000 1.0
C      1  0.4624700000000  0.5051570000000  0.4222980000000 1.0
C      1  0.4606650000000  0.5798470000000  0.5028920000000 1.0
C      1  0.4628760000000  0.4950340000000  0.5795290000000 1.0
C      1  0.4660900000000  0.4210150000000  0.4949690000000 1.0
C      1  0.5393020000000  0.4463180000000  0.4229830000000 1.0
C      1  0.5384000000000  0.4234450000000  0.5557530000000 1.0
C      1  0.5356870000000  0.5536570000000  0.5714990000000 1.0
C      1  0.5376850000000  0.5735450000000  0.4459040000000 1.0
C      1  0.4623830000000  0.4446370000000  0.5765130000000 1.0
C      1  0.4649690000000  0.4283760000000  0.4465470000000 1.0
C      1  0.4630430000000  0.5544260000000  0.4268420000000 1.0
C      1  0.4613580000000  0.5761260000000  0.5530110000000 1.0
C      1  0.4469440000000  0.5017110000000  0.5508180000000 1.0
C      1  0.4465770000000  0.5531960000000  0.4990440000000 1.0
C      1  0.4488880000000  0.5014270000000  0.4499320000000 1.0
C      1  0.4525150000000  0.4508880000000  0.5028320000000 1.0
C      1  0.5540960000000  0.5006530000000  0.4468150000000 1.0
C      1  0.5518560000000  0.5501520000000  0.4989530000000 1.0
C      1  0.5485740000000  0.4978010000000  0.5490900000000 1.0
C      1  0.5527800000000  0.4480350000000  0.4983160000000 1.0
C      1  0.4363270000000  0.5419780000000  0.5268870000000 1.0
C      1  0.4376190000000  0.5285160000000  0.4622350000000 1.0
C      1  0.4427860000000  0.4638180000000  0.4763850000000 1.0
C      1  0.4411190000000  0.4728770000000  0.5396370000000 1.0
C      1  0.5626460000000  0.5379450000000  0.4714880000000 1.0
C      1  0.5583310000000  0.5247930000000  0.5363150000000 1.0
C      1  0.5595180000000  0.4595560000000  0.5266610000000 1.0
C      1  0.5630850000000  0.4722020000000  0.4581730000000 1.0
C      1  0.5228290000000  0.3990150000000  0.4472130000000 1.0
C      1  0.5215500000000  0.4500780000000  0.6003990000000 1.0
C      1  0.5204940000000  0.5969950000000  0.5460800000000 1.0
C      1  0.5211890000000  0.5490500000000  0.4012860000000 1.0
C      1  0.4787840000000  0.3984150000000  0.5515430000000 1.0
C      1  0.4798860000000  0.4548300000000  0.4045850000000 1.0
C      1  0.4796180000000  0.5982320000000  0.4517310000000 1.0
C      1  0.4779090000000  0.5505590000000  0.5983310000000 1.0
C      1  0.4944430000000  0.5128610000000  0.5374300000000 1.0
C      1  0.5035090000000  0.5356940000000  0.4843120000000 1.0
C      1  0.5068710000000  0.4853910000000  0.4696270000000 1.0
C      1  0.4996360000000  0.4584130000000  0.5162670000000 1.0
C      1  0.4978850000000  0.5157160000000  0.4625370000000 1.0
C      1  0.4942390000000  0.5343660000000  0.5145270000000 1.0
C      1  0.5005530000000  0.4814690000000  0.5383720000000 1.0
C      1  0.5070510000000  0.4577020000000  0.4855490000000 1.0
C      1  0.5017430000000  0.4967240000000  0.4994710000000 1.0
END
