TITL C-862506-1665-1062 -3.88037252397611e-05 125000 -477.991111658915 0 0 89 (C2) n - 1
REM
REM in /home/nfs/bkarasulu/CARBON/AIRSS/Generating-Clusters/TERSOFF/Higher-Symm/FIRE-HFTN
REM
REM
REM
REM
REM
REM ./C.cell (b20cbc046b6831c77cfcea5457e17084)
REM AIRSS Version 0.9.1 bugfix July 2018 build 013d7b7c2542+ Fri, 06 Jul 2018 19:26:36 +0100
REM compiler GCC version 9.2.1 20190827 (Red Hat 9.2.1-1)
REM options -cpp -mtune=generic -march=x86-64 -g -O0 -fpre-include=/usr/include/finclude/math-vector-fortran.h
REM seed 1746099900 516634423 -733667609 -1461699588 -843052386 1058633804 1275580763 -1411979057 -1946166263 522606067 973034627 517444638 1526115360 1311451164 -1124949418 205477496 -1822322718 -1901969830 -1444904034 2120540569 1766617758 -1462446891 -2105620820 -64777466 2012264572 -1265431833 808193429 889618429 1968599623 -1672901765 2069046858 -1106582674 1035701811
REM
CELL 1.54180   50.00000   50.00000   50.00000   90.00000   90.00000   90.00000
LATT -1
SFAC C  
C      1  0.4594640000000  0.4719780000000  0.5356480000000 1.0
C      1  0.4594640000000  0.5286000000000  0.4654770000000 1.0
C      1  0.4781290000000  0.4161280000000  0.4788260000000 1.0
C      1  0.4781290000000  0.5844490000000  0.5222990000000 1.0
C      1  0.5645240000000  0.5063380000000  0.5687480000000 1.0
C      1  0.5645240000000  0.4942390000000  0.4323770000000 1.0
C      1  0.5389430000000  0.4860160000000  0.5367030000000 1.0
C      1  0.5389430000000  0.5145610000000  0.4644220000000 1.0
C      1  0.4698040000000  0.5489110000000  0.5589650000000 1.0
C      1  0.4698040000000  0.4516670000000  0.4421590000000 1.0
C      1  0.5263180000000  0.5711750000000  0.5268790000000 1.0
C      1  0.5263180000000  0.4294030000000  0.4742460000000 1.0
C      1  0.5523890000000  0.4274630000000  0.5346790000000 1.0
C      1  0.5523890000000  0.5731140000000  0.4664460000000 1.0
C      1  0.4759830000000  0.5309000000000  0.4179200000000 1.0
C      1  0.4759830000000  0.4696770000000  0.5832050000000 1.0
C      1  0.4457790000000  0.5065450000000  0.5584880000000 1.0
C      1  0.4457790000000  0.4940320000000  0.4426370000000 1.0
C      1  0.4563240000000  0.4931480000000  0.5840350000000 1.0
C      1  0.4563240000000  0.5074290000000  0.4170900000000 1.0
C      1  0.5091070000000  0.4450630000000  0.5595640000000 1.0
C      1  0.5091070000000  0.5555140000000  0.4415610000000 1.0
C      1  0.4728690000000  0.4819460000000  0.4564250000000 1.0
C      1  0.4728690000000  0.5186320000000  0.5447000000000 1.0
C      1  0.4917560000000  0.5676950000000  0.4639220000000 1.0
C      1  0.4917560000000  0.4328820000000  0.5372020000000 1.0
C      1  0.5347880000000  0.4661080000000  0.4426000000000 1.0
C      1  0.5347880000000  0.5344690000000  0.5585250000000 1.0
C      1  0.4523280000000  0.4302460000000  0.4867240000000 1.0
C      1  0.4523280000000  0.5703320000000  0.5144000000000 1.0
C      1  0.5628690000000  0.4745040000000  0.4558190000000 1.0
C      1  0.5628690000000  0.5260730000000  0.5453050000000 1.0
C      1  0.5024480000000  0.4254330000000  0.4916990000000 1.0
C      1  0.5024480000000  0.5751450000000  0.5094260000000 1.0
C      1  0.5170450000000  0.4965370000000  0.4753300000000 1.0
C      1  0.5170450000000  0.5040410000000  0.5257950000000 1.0
C      1  0.5394930000000  0.4383840000000  0.5581810000000 1.0
C      1  0.5394930000000  0.5621940000000  0.4429440000000 1.0
C      1  0.5407050000000  0.5149800000000  0.4283110000000 1.0
C      1  0.5407050000000  0.4855970000000  0.5728140000000 1.0
C      1  0.5197420000000  0.4375880000000  0.4448980000000 1.0
C      1  0.5197420000000  0.5629890000000  0.5562260000000 1.0
C      1  0.5622730000000  0.4756750000000  0.5148730000000 1.0
C      1  0.5622730000000  0.5249020000000  0.4862520000000 1.0
C      1  0.4210020000000  0.5153610000000  0.5031490000000 1.0
C      1  0.4210020000000  0.4852170000000  0.4979760000000 1.0
C      1  0.4878830000000  0.4742550000000  0.5526770000000 1.0
C      1  0.4878830000000  0.5263220000000  0.4484470000000 1.0
C      1  0.4978080000000  0.5450310000000  0.5758780000000 1.0
C      1  0.4978080000000  0.4555460000000  0.4252470000000 1.0
C      1  0.4457740000000  0.5514330000000  0.5367920000000 1.0
C      1  0.4457740000000  0.4491440000000  0.4643330000000 1.0
C      1  0.4336910000000  0.4769340000000  0.4706320000000 1.0
C      1  0.4336910000000  0.5236430000000  0.5304930000000 1.0
C      1  0.5291030000000  0.5291720000000  0.5172710000000 1.0
C      1  0.5291030000000  0.4714050000000  0.4838540000000 1.0
C      1  0.4311450000000  0.5338270000000  0.4812440000000 1.0
C      1  0.4311450000000  0.4667500000000  0.5198800000000 1.0
C      1  0.5670550000000  0.5112920000000  0.5184120000000 1.0
C      1  0.5670540000000  0.4892850000000  0.4827120000000 1.0
C      1  0.4980880000000  0.4454000000000  0.5121610000000 1.0
C      1  0.4980880000000  0.5551770000000  0.4889640000000 1.0
C      1  0.5540900000000  0.4321890000000  0.4849200000000 1.0
C      1  0.5540900000000  0.5683890000000  0.5162050000000 1.0
C      1  0.4554720000000  0.4501820000000  0.5640570000000 1.0
C      1  0.4554720000000  0.5503950000000  0.4370680000000 1.0
C      1  0.5201070000000  0.4901330000000  0.4334190000000 1.0
C      1  0.5201070000000  0.5104440000000  0.5677050000000 1.0
C      1  0.4976100000000  0.4980600000000  0.4518020000000 1.0
C      1  0.4976100000000  0.5025170000000  0.5493230000000 1.0
C      1  0.4617970000000  0.4867670000000  0.4883490000000 1.0
C      1  0.4617970000000  0.5138110000000  0.5127760000000 1.0
C      1  0.5536440000000  0.4578100000000  0.5737290000000 1.0
C      1  0.5536440000000  0.5427670000000  0.4273960000000 1.0
C      1  0.5610450000000  0.5572820000000  0.4895750000000 1.0
C      1  0.5610450000000  0.4432950000000  0.5115500000000 1.0
C      1  0.4862970000000  0.5755840000000  0.5496890000000 1.0
C      1  0.4862970000000  0.4249930000000  0.4514360000000 1.0
C      1  0.5119560000000  0.5325690000000  0.4148640000000 1.0
C      1  0.5119560000000  0.4680090000000  0.5862610000000 1.0
C      1  0.4798880000000  0.5291130000000  0.4915390000000 1.0
C      1  0.4798880000000  0.4714650000000  0.5095860000000 1.0
C      1  0.4450490000000  0.5626370000000  0.4859610000000 1.0
C      1  0.4450490000000  0.4379400000000  0.5151640000000 1.0
C      1  0.5225760000000  0.5409290000000  0.4926430000000 1.0
C      1  0.5225760000000  0.4596480000000  0.5084820000000 1.0
C      1  0.4624220000000  0.4303970000000  0.5404780000000 1.0
C      1  0.4624220000000  0.5701800000000  0.4606470000000 1.0
C      1  0.4995780000000  0.5002890000000  0.5005620000000 1.0
END
