TITL C-862507-1800-740 -0.000377393876785035 125000 -258.514268453068 0 0 48 (C3i) n - 1
REM
REM in /home/nfs/bkarasulu/CARBON/AIRSS/Generating-Clusters/TERSOFF/Higher-Symm/FIRE-HFTN
REM
REM
REM
REM
REM
REM ./C.cell (b20cbc046b6831c77cfcea5457e17084)
REM AIRSS Version 0.9.1 bugfix July 2018 build 013d7b7c2542+ Fri, 06 Jul 2018 19:26:36 +0100
REM compiler GCC version 9.2.1 20190827 (Red Hat 9.2.1-1)
REM options -cpp -mtune=generic -march=x86-64 -g -O0 -fpre-include=/usr/include/finclude/math-vector-fortran.h
REM seed 374407478 -1172765307 -1734768058 1910737765 -1489675903 649408392 1997796562 -1274609888 1402896730 -88740117 1682495933 -1738896558 1089703487 -1685487199 81096413 -540745372 -1202537015 523566495 1177929431 -832535799 1697144661 -1571161607 76888139 -1699290024 -1329276122 971010544 -970237100 -1202697788 1529865791 1658980376 -1037332620 2036232416 -779189866
REM
CELL 1.54180   50.00000   50.00000   50.00000   90.00000   90.00000   90.00000
LATT -1
SFAC C  
C      1  0.4608840000000  0.5689820000000  0.5091310000000 1.0
C      1  0.5391160000000  0.5423990000000  0.4448260000000 1.0
C      1  0.4608840000000  0.4734170000000  0.4356940000000 1.0
C      1  0.5391160000000  0.4310180000000  0.4908690000000 1.0
C      1  0.4608840000000  0.4576010000000  0.5551740000000 1.0
C      1  0.5391160000000  0.5265830000000  0.5643060000000 1.0
C      1  0.5715460000000  0.5279270000000  0.5095150000000 1.0
C      1  0.4284540000000  0.5222040000000  0.4805720000000 1.0
C      1  0.5715460000000  0.4942770000000  0.4710570000000 1.0
C      1  0.4284540000000  0.4720730000000  0.4904850000000 1.0
C      1  0.5715460000000  0.4777960000000  0.5194280000000 1.0
C      1  0.4284540000000  0.5057230000000  0.5289430000000 1.0
C      1  0.5482960000000  0.4907820000000  0.4534020000000 1.0
C      1  0.4517040000000  0.4550350000000  0.4846840000000 1.0
C      1  0.5482960000000  0.4642540000000  0.5312820000000 1.0
C      1  0.4517040000000  0.5092180000000  0.5465980000000 1.0
C      1  0.5482960000000  0.5449650000000  0.5153160000000 1.0
C      1  0.4517040000000  0.5357460000000  0.4687180000000 1.0
C      1  0.5235480000000  0.4500060000000  0.4714270000000 1.0
C      1  0.4764520000000  0.4502590000000  0.5290090000000 1.0
C      1  0.5235480000000  0.5002520000000  0.5575820000000 1.0
C      1  0.4764520000000  0.5499940000000  0.5285730000000 1.0
C      1  0.5235480000000  0.5497410000000  0.4709910000000 1.0
C      1  0.4764520000000  0.4997480000000  0.4424180000000 1.0
C      1  0.4938370000000  0.5308910000000  0.5053510000000 1.0
C      1  0.5061630000000  0.5200790000000  0.4759230000000 1.0
C      1  0.4938370000000  0.4891880000000  0.4705730000000 1.0
C      1  0.5061630000000  0.4691090000000  0.4946490000000 1.0
C      1  0.4938370000000  0.4799210000000  0.5240770000000 1.0
C      1  0.5061630000000  0.5108120000000  0.5294270000000 1.0
C      1  0.5299000000000  0.5355890000000  0.5358860000000 1.0
C      1  0.4701000000000  0.5488730000000  0.4871220000000 1.0
C      1  0.5299000000000  0.5132840000000  0.4512360000000 1.0
C      1  0.4701000000000  0.4644110000000  0.4641140000000 1.0
C      1  0.5299000000000  0.4511270000000  0.5128780000000 1.0
C      1  0.4701000000000  0.4867160000000  0.5487640000000 1.0
C      1  0.5374520000000  0.4748930000000  0.5560430000000 1.0
C      1  0.4625480000000  0.5359810000000  0.5497650000000 1.0
C      1  0.5374520000000  0.5610880000000  0.4937220000000 1.0
C      1  0.4625480000000  0.5251070000000  0.4439570000000 1.0
C      1  0.5374520000000  0.4640190000000  0.4502350000000 1.0
C      1  0.4625480000000  0.4389120000000  0.5062780000000 1.0
C      1  0.5769610000000  0.5212240000000  0.4814290000000 1.0
C      1  0.4230390000000  0.4945290000000  0.4723340000000 1.0
C      1  0.5769610000000  0.4733050000000  0.4909050000000 1.0
C      1  0.4230390000000  0.4787760000000  0.5185710000000 1.0
C      1  0.5769610000000  0.5054710000000  0.5276660000000 1.0
C      1  0.4230390000000  0.5266950000000  0.5090950000000 1.0
END
