TITL C-862506-1665-1488 -0.0278938587340797 125000 -733.630327483821 0 0 135 (C1) n - 1
REM
REM in /home/nfs/bkarasulu/CARBON/AIRSS/Generating-Clusters/TERSOFF/Higher-Symm/FIRE-HFTN
REM
REM
REM
REM
REM
REM ./C.cell (b20cbc046b6831c77cfcea5457e17084)
REM AIRSS Version 0.9.1 bugfix July 2018 build 013d7b7c2542+ Fri, 06 Jul 2018 19:26:36 +0100
REM compiler GCC version 9.2.1 20190827 (Red Hat 9.2.1-1)
REM options -cpp -mtune=generic -march=x86-64 -g -O0 -fpre-include=/usr/include/finclude/math-vector-fortran.h
REM seed 2017885655 -639871659 589898469 1661989005 1099377550 1247197107 1197093326 2004846404 -561751899 2095283549 2032678483 -224093607 -2134431244 1082799720 -1354768641 -1543234411 1534468804 1737514414 749728019 963087783 1128002005 995245566 1425038840 1307224120 583564653 -793840059 229245432 -1587685891 -1951658104 -2104404819 416688613 68618063 -1208960846
REM
CELL 1.54180   50.00000   50.00000   50.00000   90.00000   90.00000   90.00000
LATT -1
SFAC C  
C      1  0.5325470000000  0.4101430000000  0.5314000000000 1.0
C      1  0.4669620000000  0.4130180000000  0.4677200000000 1.0
C      1  0.5326830000000  0.5909490000000  0.5278670000000 1.0
C      1  0.4673580000000  0.5871950000000  0.4688990000000 1.0
C      1  0.4676960000000  0.4093790000000  0.5294230000000 1.0
C      1  0.5326240000000  0.4126360000000  0.4689720000000 1.0
C      1  0.4680430000000  0.5896080000000  0.5316330000000 1.0
C      1  0.5332080000000  0.5873990000000  0.4672070000000 1.0
C      1  0.5162920000000  0.3927930000000  0.5152630000000 1.0
C      1  0.4835690000000  0.3941650000000  0.4818590000000 1.0
C      1  0.5151210000000  0.6070220000000  0.5122160000000 1.0
C      1  0.4844780000000  0.6051010000000  0.4835760000000 1.0
C      1  0.4851530000000  0.3935310000000  0.5130420000000 1.0
C      1  0.5153580000000  0.3949390000000  0.4839020000000 1.0
C      1  0.4840310000000  0.6071300000000  0.5150320000000 1.0
C      1  0.5163530000000  0.6063380000000  0.4810840000000 1.0
C      1  0.4108930000000  0.4701600000000  0.5170980000000 1.0
C      1  0.5901580000000  0.4703670000000  0.4852000000000 1.0
C      1  0.4109660000000  0.5292490000000  0.5181790000000 1.0
C      1  0.5901110000000  0.5292720000000  0.4848600000000 1.0
C      1  0.5896790000000  0.4707770000000  0.5177560000000 1.0
C      1  0.4105390000000  0.4707460000000  0.4845440000000 1.0
C      1  0.5894420000000  0.5297900000000  0.5175320000000 1.0
C      1  0.4105330000000  0.5295010000000  0.4855600000000 1.0
C      1  0.3878680000000  0.4861490000000  0.4741140000000 1.0
C      1  0.6121560000000  0.4863840000000  0.5284630000000 1.0
C      1  0.3877980000000  0.5143970000000  0.4747400000000 1.0
C      1  0.6120180000000  0.5145460000000  0.5284600000000 1.0
C      1  0.6129760000000  0.4856150000000  0.4747720000000 1.0
C      1  0.3882910000000  0.4854610000000  0.5279350000000 1.0
C      1  0.6130150000000  0.5138710000000  0.4747700000000 1.0
C      1  0.3885070000000  0.5135760000000  0.5287720000000 1.0
C      1  0.4484780000000  0.4570440000000  0.5782930000000 1.0
C      1  0.5503780000000  0.4580650000000  0.4234510000000 1.0
C      1  0.4524040000000  0.5415620000000  0.5786630000000 1.0
C      1  0.5498050000000  0.5405960000000  0.4229470000000 1.0
C      1  0.5483400000000  0.4583830000000  0.5783390000000 1.0
C      1  0.4506240000000  0.4592170000000  0.4231350000000 1.0
C      1  0.5415030000000  0.5421010000000  0.5763510000000 1.0
C      1  0.4499870000000  0.5417770000000  0.4238910000000 1.0
C      1  0.5675840000000  0.4641390000000  0.5565240000000 1.0
C      1  0.4319460000000  0.4643550000000  0.4454650000000 1.0
C      1  0.5637120000000  0.5367960000000  0.5569660000000 1.0
C      1  0.4317470000000  0.5367200000000  0.4466110000000 1.0
C      1  0.4305930000000  0.4640860000000  0.5557090000000 1.0
C      1  0.5688610000000  0.4631710000000  0.4459610000000 1.0
C      1  0.4333400000000  0.5363100000000  0.5566350000000 1.0
C      1  0.5687620000000  0.5354050000000  0.4450410000000 1.0
C      1  0.4039810000000  0.4390370000000  0.5206800000000 1.0
C      1  0.5975280000000  0.4390140000000  0.4864460000000 1.0
C      1  0.4035130000000  0.5600940000000  0.5216050000000 1.0
C      1  0.5976000000000  0.5604650000000  0.4853570000000 1.0
C      1  0.5969630000000  0.4398990000000  0.5207160000000 1.0
C      1  0.4028670000000  0.4397130000000  0.4865780000000 1.0
C      1  0.5963660000000  0.5610170000000  0.5197460000000 1.0
C      1  0.4029090000000  0.5606660000000  0.4875680000000 1.0
C      1  0.4775240000000  0.4387670000000  0.4595530000000 1.0
C      1  0.5225670000000  0.4362510000000  0.5399590000000 1.0
C      1  0.4772380000000  0.5613020000000  0.4602080000000 1.0
C      1  0.5236740000000  0.5654520000000  0.5383880000000 1.0
C      1  0.5230280000000  0.4386360000000  0.4601490000000 1.0
C      1  0.4761540000000  0.4356480000000  0.5390750000000 1.0
C      1  0.5229150000000  0.5614020000000  0.4595260000000 1.0
C      1  0.4779790000000  0.5632490000000  0.5401780000000 1.0
C      1  0.5186010000000  0.4460280000000  0.4309450000000 1.0
C      1  0.4802550000000  0.4422670000000  0.5687220000000 1.0
C      1  0.5180340000000  0.5534390000000  0.4306890000000 1.0
C      1  0.4847450000000  0.5556930000000  0.5696970000000 1.0
C      1  0.4823490000000  0.4463490000000  0.4305470000000 1.0
C      1  0.5168270000000  0.4435750000000  0.5691650000000 1.0
C      1  0.4817780000000  0.5538790000000  0.4310090000000 1.0
C      1  0.5190830000000  0.5608930000000  0.5670560000000 1.0
C      1  0.4610300000000  0.4845010000000  0.4061080000000 1.0
C      1  0.5362940000000  0.4845150000000  0.5943560000000 1.0
C      1  0.4590410000000  0.5162800000000  0.4061930000000 1.0
C      1  0.5325860000000  0.5177380000000  0.5925400000000 1.0
C      1  0.5412720000000  0.4835840000000  0.4058020000000 1.0
C      1  0.4652050000000  0.4839000000000  0.5904200000000 1.0
C      1  0.5390570000000  0.5153550000000  0.4060730000000 1.0
C      1  0.4676630000000  0.5145720000000  0.5903460000000 1.0
C      1  0.4397400000000  0.5181580000000  0.5305500000000 1.0
C      1  0.5620600000000  0.5178860000000  0.4715000000000 1.0
C      1  0.4393350000000  0.4819020000000  0.5300070000000 1.0
C      1  0.5620100000000  0.4815790000000  0.4717440000000 1.0
C      1  0.5611210000000  0.5182340000000  0.5300390000000 1.0
C      1  0.4388870000000  0.5183390000000  0.4724190000000 1.0
C      1  0.5610210000000  0.4819870000000  0.5301530000000 1.0
C      1  0.4389130000000  0.4820260000000  0.4718360000000 1.0
C      1  0.5603480000000  0.5984570000000  0.5293610000000 1.0
C      1  0.4395320000000  0.5941280000000  0.4654620000000 1.0
C      1  0.5605420000000  0.4039060000000  0.5334190000000 1.0
C      1  0.4391080000000  0.4066870000000  0.4634020000000 1.0
C      1  0.4401030000000  0.5959990000000  0.5340130000000 1.0
C      1  0.5610630000000  0.5938740000000  0.4627670000000 1.0
C      1  0.4400170000000  0.4016540000000  0.5306820000000 1.0
C      1  0.5603470000000  0.4053270000000  0.4652850000000 1.0
C      1  0.4849160000000  0.5405340000000  0.5210370000000 1.0
C      1  0.5159260000000  0.5393000000000  0.4793320000000 1.0
C      1  0.4841360000000  0.4588740000000  0.5207150000000 1.0
C      1  0.5159070000000  0.4612650000000  0.4789450000000 1.0
C      1  0.5162670000000  0.5413920000000  0.5212550000000 1.0
C      1  0.4847220000000  0.5389270000000  0.4791620000000 1.0
C      1  0.5155580000000  0.4588360000000  0.5207850000000 1.0
C      1  0.4846710000000  0.4611100000000  0.4788660000000 1.0
C      1  0.5817100000000  0.4110590000000  0.4841820000000 1.0
C      1  0.4192240000000  0.4126160000000  0.5141650000000 1.0
C      1  0.5825400000000  0.5886370000000  0.4816230000000 1.0
C      1  0.4195120000000  0.5861980000000  0.5164740000000 1.0
C      1  0.4178220000000  0.4116400000000  0.4825020000000 1.0
C      1  0.5808640000000  0.4138890000000  0.5156740000000 1.0
C      1  0.4185010000000  0.5885730000000  0.4847860000000 1.0
C      1  0.5811290000000  0.5873810000000  0.5130550000000 1.0
C      1  0.4730940000000  0.4836030000000  0.5390960000000 1.0
C      1  0.5293480000000  0.4840460000000  0.4606410000000 1.0
C      1  0.4742680000000  0.5157820000000  0.5394030000000 1.0
C      1  0.5291360000000  0.5164450000000  0.4608480000000 1.0
C      1  0.5272150000000  0.4831820000000  0.5387780000000 1.0
C      1  0.4716110000000  0.4838550000000  0.4605600000000 1.0
C      1  0.5282060000000  0.5164610000000  0.5387400000000 1.0
C      1  0.4713300000000  0.5161070000000  0.4609720000000 1.0
C      1  0.4844520000000  0.4748070000000  0.5665470000000 1.0
C      1  0.5168640000000  0.4822120000000  0.4300270000000 1.0
C      1  0.4877970000000  0.5226080000000  0.5668810000000 1.0
C      1  0.5155340000000  0.5177390000000  0.4302780000000 1.0
C      1  0.5137810000000  0.4796530000000  0.5684430000000 1.0
C      1  0.4849160000000  0.4821900000000  0.4299860000000 1.0
C      1  0.5145150000000  0.5112240000000  0.5674500000000 1.0
C      1  0.4836290000000  0.5177520000000  0.4302660000000 1.0
C      1  0.5415930000000  0.4730910000000  0.5006930000000 1.0
C      1  0.4592190000000  0.4732740000000  0.5008300000000 1.0
C      1  0.5417100000000  0.5267490000000  0.5004000000000 1.0
C      1  0.4595210000000  0.5267060000000  0.5013310000000 1.0
C      1  0.4750250000000  0.4999070000000  0.4995410000000 1.0
C      1  0.5259000000000  0.4999700000000  0.4993450000000 1.0
C      1  0.5003880000000  0.4998980000000  0.4865820000000 1.0
END
