TITL C-862134-6730-1439 0.00990336547948453 125000 -1170.02945457362 0 0 198 (C1) n - 1
REM
REM in /home/nfs/bkarasulu/CARBON/AIRSS/Generating-Clusters/TERSOFF/Higher-Symm/FIRE-HFTN
REM
REM
REM
REM
REM
REM ./C.cell (b20cbc046b6831c77cfcea5457e17084)
REM AIRSS Version 0.9.1 bugfix July 2018 build 013d7b7c2542+ Fri, 06 Jul 2018 19:26:36 +0100
REM compiler GCC version 9.2.1 20190827 (Red Hat 9.2.1-1)
REM options -cpp -mtune=generic -march=x86-64 -g -O0 -fpre-include=/usr/include/finclude/math-vector-fortran.h
REM seed -379302178 1379000552 -1100881319 2131675078 1292344067 -625799548 -1442258648 -650808022 201167874 458358868 -420738316 -11559722 968212892 -1088924758 -417554937 -1405637181 1751546903 -56759990 -90203088 -747261390 -973839934 -96461251 -1577744266 703357390 1089801898 467452105 880711891 1373897048 1397802934 -1154281304 -335399336 811301524 -221201553
REM
CELL 1.54180   50.00000   50.00000   50.00000   90.00000   90.00000   90.00000
LATT -1
SFAC C  
C      1  0.5523850000000  0.4592910000000  0.6221730000000 1.0
C      1  0.5509440000000  0.4155750000000  0.4039840000000 1.0
C      1  0.5517580000000  0.6259900000000  0.4756850000000 1.0
C      1  0.4416480000000  0.5335630000000  0.4172130000000 1.0
C      1  0.4447920000000  0.5530440000000  0.5661790000000 1.0
C      1  0.4431030000000  0.4137030000000  0.5105650000000 1.0
C      1  0.4410960000000  0.5209980000000  0.4449190000000 1.0
C      1  0.4444800000000  0.5347050000000  0.5411780000000 1.0
C      1  0.4428520000000  0.4431000000000  0.5049700000000 1.0
C      1  0.5305600000000  0.6207600000000  0.4557580000000 1.0
C      1  0.5309630000000  0.4789640000000  0.6272890000000 1.0
C      1  0.5299830000000  0.4014920000000  0.4191330000000 1.0
C      1  0.5148470000000  0.5422560000000  0.4738870000000 1.0
C      1  0.5150430000000  0.5014620000000  0.5500570000000 1.0
C      1  0.5139370000000  0.4568280000000  0.4779540000000 1.0
C      1  0.5615110000000  0.4964520000000  0.4245190000000 1.0
C      1  0.5620030000000  0.5672560000000  0.5349660000000 1.0
C      1  0.5622700000000  0.4359180000000  0.5415370000000 1.0
C      1  0.5186970000000  0.4898450000000  0.6033540000000 1.0
C      1  0.5183070000000  0.4168010000000  0.4407990000000 1.0
C      1  0.5185080000000  0.5945040000000  0.4578710000000 1.0
C      1  0.3875260000000  0.5011170000000  0.4458060000000 1.0
C      1  0.3918700000000  0.5475480000000  0.5288620000000 1.0
C      1  0.3918990000000  0.4494890000000  0.5264880000000 1.0
C      1  0.4846470000000  0.4841820000000  0.6272770000000 1.0
C      1  0.4847510000000  0.3989430000000  0.4229500000000 1.0
C      1  0.4843810000000  0.6180960000000  0.4513550000000 1.0
C      1  0.5500320000000  0.4506880000000  0.5164280000000 1.0
C      1  0.5499420000000  0.5114050000000  0.4496510000000 1.0
C      1  0.5502920000000  0.5379890000000  0.5351980000000 1.0
C      1  0.6110280000000  0.4848570000000  0.4277970000000 1.0
C      1  0.6115690000000  0.5700240000000  0.5234520000000 1.0
C      1  0.6118230000000  0.4446630000000  0.5496310000000 1.0
C      1  0.4863850000000  0.4181710000000  0.5779670000000 1.0
C      1  0.4853580000000  0.4750700000000  0.3922930000000 1.0
C      1  0.4853190000000  0.6055220000000  0.5317070000000 1.0
C      1  0.4210250000000  0.5170950000000  0.5364400000000 1.0
C      1  0.4198750000000  0.4560520000000  0.4948400000000 1.0
C      1  0.4182700000000  0.5251930000000  0.4629750000000 1.0
C      1  0.4476490000000  0.4023870000000  0.5366200000000 1.0
C      1  0.4456940000000  0.5184380000000  0.3928770000000 1.0
C      1  0.4490580000000  0.5816430000000  0.5652660000000 1.0
C      1  0.5677840000000  0.5116530000000  0.4730850000000 1.0
C      1  0.5681460000000  0.5175380000000  0.5237250000000 1.0
C      1  0.5677700000000  0.4708650000000  0.5043080000000 1.0
C      1  0.4822780000000  0.3786770000000  0.4750220000000 1.0
C      1  0.4825710000000  0.5830520000000  0.4081670000000 1.0
C      1  0.4827290000000  0.5389530000000  0.6178730000000 1.0
C      1  0.4261790000000  0.4589980000000  0.5882760000000 1.0
C      1  0.4254940000000  0.4445380000000  0.4208340000000 1.0
C      1  0.4246790000000  0.5973620000000  0.4909450000000 1.0
C      1  0.5024680000000  0.4414490000000  0.5913740000000 1.0
C      1  0.5011350000000  0.4514030000000  0.4051810000000 1.0
C      1  0.5020860000000  0.6067000000000  0.5057140000000 1.0
C      1  0.4362450000000  0.4336620000000  0.5788060000000 1.0
C      1  0.4348050000000  0.4664030000000  0.4043000000000 1.0
C      1  0.4349530000000  0.6001980000000  0.5178200000000 1.0
C      1  0.4697960000000  0.5093570000000  0.6206470000000 1.0
C      1  0.4695670000000  0.3911340000000  0.4476060000000 1.0
C      1  0.4697620000000  0.5996830000000  0.4327670000000 1.0
C      1  0.4041070000000  0.4296490000000  0.4662390000000 1.0
C      1  0.4041510000000  0.5643270000000  0.4557550000000 1.0
C      1  0.4063310000000  0.5055160000000  0.5752580000000 1.0
C      1  0.5966930000000  0.5177160000000  0.4703710000000 1.0
C      1  0.5970340000000  0.5167630000000  0.5304290000000 1.0
C      1  0.5965830000000  0.4653350000000  0.4999260000000 1.0
C      1  0.5782890000000  0.4013630000000  0.4673250000000 1.0
C      1  0.5788420000000  0.5780180000000  0.4312810000000 1.0
C      1  0.5792270000000  0.5206920000000  0.6021900000000 1.0
C      1  0.4415070000000  0.5008790000000  0.6121870000000 1.0
C      1  0.4410480000000  0.4020310000000  0.4437750000000 1.0
C      1  0.4410820000000  0.5976660000000  0.4431850000000 1.0
C      1  0.4879470000000  0.3922640000000  0.5285200000000 1.0
C      1  0.4878740000000  0.5301920000000  0.3936700000000 1.0
C      1  0.4884970000000  0.5776920000000  0.5791540000000 1.0
C      1  0.5997370000000  0.4365950000000  0.4961490000000 1.0
C      1  0.6000210000000  0.5353300000000  0.4473790000000 1.0
C      1  0.6003860000000  0.5279770000000  0.5571310000000 1.0
C      1  0.5873980000000  0.5844480000000  0.5306140000000 1.0
C      1  0.5875790000000  0.4315300000000  0.5588660000000 1.0
C      1  0.5867560000000  0.4838000000000  0.4118360000000 1.0
C      1  0.4972040000000  0.5033590000000  0.4018790000000 1.0
C      1  0.4969980000000  0.5832640000000  0.5514770000000 1.0
C      1  0.4976730000000  0.4124770000000  0.5479510000000 1.0
C      1  0.4964580000000  0.5538540000000  0.4089710000000 1.0
C      1  0.4970880000000  0.5527880000000  0.5922320000000 1.0
C      1  0.4962020000000  0.3940680000000  0.5001980000000 1.0
C      1  0.6108140000000  0.4688670000000  0.4518150000000 1.0
C      1  0.6111800000000  0.5574040000000  0.4975310000000 1.0
C      1  0.6116910000000  0.4734700000000  0.5514100000000 1.0
C      1  0.4398330000000  0.4192060000000  0.4198480000000 1.0
C      1  0.4387600000000  0.6108940000000  0.4693870000000 1.0
C      1  0.4397520000000  0.4715080000000  0.6107700000000 1.0
C      1  0.5124990000000  0.6018190000000  0.4084020000000 1.0
C      1  0.5129510000000  0.5294120000000  0.6339240000000 1.0
C      1  0.5123060000000  0.3700660000000  0.4587790000000 1.0
C      1  0.6122580000000  0.5283220000000  0.4931280000000 1.0
C      1  0.6125870000000  0.4917130000000  0.5282970000000 1.0
C      1  0.6119890000000  0.4797010000000  0.4791870000000 1.0
C      1  0.4911820000000  0.5603700000000  0.4778200000000 1.0
C      1  0.4911560000000  0.4891690000000  0.5636340000000 1.0
C      1  0.4899370000000  0.4511400000000  0.4602490000000 1.0
C      1  0.5359860000000  0.4703200000000  0.4613320000000 1.0
C      1  0.5367070000000  0.5487810000000  0.4940510000000 1.0
C      1  0.5369150000000  0.4805020000000  0.5462130000000 1.0
C      1  0.4615710000000  0.5894220000000  0.5259400000000 1.0
C      1  0.4629400000000  0.4312790000000  0.5661770000000 1.0
C      1  0.4612530000000  0.4796130000000  0.4085660000000 1.0
C      1  0.5269870000000  0.5028640000000  0.6461050000000 1.0
C      1  0.5258570000000  0.3730850000000  0.4296120000000 1.0
C      1  0.5264750000000  0.6254770000000  0.4256800000000 1.0
C      1  0.5637370000000  0.4676320000000  0.5595840000000 1.0
C      1  0.5627970000000  0.4651280000000  0.4431690000000 1.0
C      1  0.5631810000000  0.5673510000000  0.4985410000000 1.0
C      1  0.5243920000000  0.4793750000000  0.4341230000000 1.0
C      1  0.5248130000000  0.5674270000000  0.5155170000000 1.0
C      1  0.5252750000000  0.4525290000000  0.5523320000000 1.0
C      1  0.5213420000000  0.5313100000000  0.5511710000000 1.0
C      1  0.5207630000000  0.4401890000000  0.5029070000000 1.0
C      1  0.5211080000000  0.5285910000000  0.4473910000000 1.0
C      1  0.4090610000000  0.5514240000000  0.5041740000000 1.0
C      1  0.4106150000000  0.4686910000000  0.5407930000000 1.0
C      1  0.4070580000000  0.4788010000000  0.4535840000000 1.0
C      1  0.5293130000000  0.5973250000000  0.5123090000000 1.0
C      1  0.5296930000000  0.4410540000000  0.5798090000000 1.0
C      1  0.5285970000000  0.4614620000000  0.4101680000000 1.0
C      1  0.4244700000000  0.4785490000000  0.4774490000000 1.0
C      1  0.4247100000000  0.5304190000000  0.4911650000000 1.0
C      1  0.4266460000000  0.4896130000000  0.5275060000000 1.0
C      1  0.4279330000000  0.6014040000000  0.5646650000000 1.0
C      1  0.4267650000000  0.3936880000000  0.5546250000000 1.0
C      1  0.4247270000000  0.5053350000000  0.3780150000000 1.0
C      1  0.4553650000000  0.5285780000000  0.4936730000000 1.0
C      1  0.4574690000000  0.4875370000000  0.5245290000000 1.0
C      1  0.4530640000000  0.4853630000000  0.4743210000000 1.0
C      1  0.3937160000000  0.4417710000000  0.4953180000000 1.0
C      1  0.3920250000000  0.5330790000000  0.4514040000000 1.0
C      1  0.3954640000000  0.5238050000000  0.5501370000000 1.0
C      1  0.5897990000000  0.4276010000000  0.4705070000000 1.0
C      1  0.5902750000000  0.5621080000000  0.4524240000000 1.0
C      1  0.5907280000000  0.5102870000000  0.5778920000000 1.0
C      1  0.4741610000000  0.4881590000000  0.4339610000000 1.0
C      1  0.4731130000000  0.5622870000000  0.5221320000000 1.0
C      1  0.4751070000000  0.4483180000000  0.5456340000000 1.0
C      1  0.4660250000000  0.4614050000000  0.6215790000000 1.0
C      1  0.4665440000000  0.4159310000000  0.4062790000000 1.0
C      1  0.4652110000000  0.6248900000000  0.4734280000000 1.0
C      1  0.4540830000000  0.3730060000000  0.4858060000000 1.0
C      1  0.4546650000000  0.5764170000000  0.3971930000000 1.0
C      1  0.4549240000000  0.5516720000000  0.6143930000000 1.0
C      1  0.5533440000000  0.4070760000000  0.5340370000000 1.0
C      1  0.5530090000000  0.5175400000000  0.4031330000000 1.0
C      1  0.5535510000000  0.5752580000000  0.5638090000000 1.0
C      1  0.5663680000000  0.5465490000000  0.6039880000000 1.0
C      1  0.5655540000000  0.3867870000000  0.4888310000000 1.0
C      1  0.5660140000000  0.5666990000000  0.4079470000000 1.0
C      1  0.5800530000000  0.4329990000000  0.5872850000000 1.0
C      1  0.5788830000000  0.4586810000000  0.3987080000000 1.0
C      1  0.5796360000000  0.6084590000000  0.5155150000000 1.0
C      1  0.5543730000000  0.4439570000000  0.5967140000000 1.0
C      1  0.5531420000000  0.4452310000000  0.4036590000000 1.0
C      1  0.5539110000000  0.6110170000000  0.5014040000000 1.0
C      1  0.5188730000000  0.5191340000000  0.6047380000000 1.0
C      1  0.5183910000000  0.4004030000000  0.4651090000000 1.0
C      1  0.5186980000000  0.5813260000000  0.4316500000000 1.0
C      1  0.4092000000000  0.4754060000000  0.5699520000000 1.0
C      1  0.4067030000000  0.4503990000000  0.4434120000000 1.0
C      1  0.4069180000000  0.5741040000000  0.4849880000000 1.0
C      1  0.5458890000000  0.3983740000000  0.5068080000000 1.0
C      1  0.5460290000000  0.5456490000000  0.4091010000000 1.0
C      1  0.5464820000000  0.5560920000000  0.5850830000000 1.0
C      1  0.4987120000000  0.4746740000000  0.5888670000000 1.0
C      1  0.4981310000000  0.4368120000000  0.4352020000000 1.0
C      1  0.4986590000000  0.5891500000000  0.4782110000000 1.0
C      1  0.5222990000000  0.5394020000000  0.5813860000000 1.0
C      1  0.5216210000000  0.4100940000000  0.4943890000000 1.0
C      1  0.5219410000000  0.5509290000000  0.4255490000000 1.0
C      1  0.5041980000000  0.5573290000000  0.5352160000000 1.0
C      1  0.5050360000000  0.4398800000000  0.5341840000000 1.0
C      1  0.5045830000000  0.5017890000000  0.4324430000000 1.0
C      1  0.4596310000000  0.5131430000000  0.4688050000000 1.0
C      1  0.4618160000000  0.5173570000000  0.5208630000000 1.0
C      1  0.4641300000000  0.4626540000000  0.5077870000000 1.0
C      1  0.4187280000000  0.6104580000000  0.5392860000000 1.0
C      1  0.4191500000000  0.4107190000000  0.5760860000000 1.0
C      1  0.4177420000000  0.4786480000000  0.3846960000000 1.0
C      1  0.4231490000000  0.4061430000000  0.4660040000000 1.0
C      1  0.4235010000000  0.5761100000000  0.4356290000000 1.0
C      1  0.4250970000000  0.5175170000000  0.5953250000000 1.0
C      1  0.4710660000000  0.4760770000000  0.5477570000000 1.0
C      1  0.4695230000000  0.4711820000000  0.4559310000000 1.0
C      1  0.4703440000000  0.5526860000000  0.4958520000000 1.0
C      1  0.5891500000000  0.4817820000000  0.5688080000000 1.0
C      1  0.5881500000000  0.4497870000000  0.4504490000000 1.0
C      1  0.5886160000000  0.5683740000000  0.4816980000000 1.0
C      1  0.4375080000000  0.5433760000000  0.5923500000000 1.0
C      1  0.4354080000000  0.3952060000000  0.4899690000000 1.0
C      1  0.4355290000000  0.5613760000000  0.4136530000000 1.0
END
