TITL C-862133-5440-394 0.0105481058532769 125000 -1042.80298113874 0 0 175 (C1) n - 1
REM
REM in /home/nfs/bkarasulu/CARBON/AIRSS/Generating-Clusters/TERSOFF/Higher-Symm/FIRE-HFTN
REM
REM
REM
REM
REM
REM ./C.cell (b20cbc046b6831c77cfcea5457e17084)
REM AIRSS Version 0.9.1 bugfix July 2018 build 013d7b7c2542+ Fri, 06 Jul 2018 19:26:36 +0100
REM compiler GCC version 9.2.1 20190827 (Red Hat 9.2.1-1)
REM options -cpp -mtune=generic -march=x86-64 -g -O0 -fpre-include=/usr/include/finclude/math-vector-fortran.h
REM seed -1362666253 1831696001 -1623268186 122935649 56708680 1932782657 -2130296895 -1653666163 1533860137 -1248506966 66849500 -176507651 1633247395 526197137 1062277561 964893950 1747187068 -1414125049 2069230114 546825707 -1897978685 176222359 -870212487 -1370308298 1210234948 600768660 -1641870359 752095088 655671970 1706978170 -1653932624 -1331959107 -1648007610
REM
CELL 1.54180   50.00000   50.00000   50.00000   90.00000   90.00000   90.00000
LATT -1
SFAC C  
C      1  0.4504010000000  0.5589900000000  0.5144650000000 1.0
C      1  0.4496450000000  0.4404690000000  0.5142010000000 1.0
C      1  0.4878390000000  0.3826180000000  0.4897810000000 1.0
C      1  0.4877900000000  0.6167630000000  0.4895650000000 1.0
C      1  0.5186700000000  0.4459870000000  0.3881330000000 1.0
C      1  0.5184960000000  0.5534900000000  0.3890740000000 1.0
C      1  0.4036440000000  0.5147800000000  0.5723300000000 1.0
C      1  0.4007770000000  0.4835510000000  0.5713460000000 1.0
C      1  0.5434160000000  0.4032560000000  0.4299700000000 1.0
C      1  0.5430210000000  0.5968020000000  0.4296650000000 1.0
C      1  0.5711350000000  0.5171540000000  0.5755160000000 1.0
C      1  0.5709890000000  0.4844260000000  0.5753720000000 1.0
C      1  0.5078910000000  0.4352920000000  0.5957600000000 1.0
C      1  0.5089150000000  0.5655930000000  0.5956790000000 1.0
C      1  0.6022520000000  0.4853830000000  0.4645400000000 1.0
C      1  0.6030420000000  0.5158880000000  0.4647350000000 1.0
C      1  0.4797850000000  0.5959180000000  0.4641850000000 1.0
C      1  0.4794420000000  0.4028940000000  0.4639600000000 1.0
C      1  0.4907900000000  0.4463800000000  0.3977020000000 1.0
C      1  0.4907810000000  0.5525310000000  0.3985210000000 1.0
C      1  0.3921340000000  0.4823100000000  0.4945380000000 1.0
C      1  0.3933310000000  0.5176760000000  0.4963500000000 1.0
C      1  0.5314880000000  0.4492100000000  0.4764920000000 1.0
C      1  0.5363320000000  0.5577560000000  0.4823380000000 1.0
C      1  0.5401740000000  0.5619320000000  0.5874960000000 1.0
C      1  0.5394330000000  0.4388820000000  0.5875550000000 1.0
C      1  0.4777010000000  0.4755050000000  0.6050990000000 1.0
C      1  0.4782410000000  0.5256060000000  0.6053270000000 1.0
C      1  0.4905300000000  0.5696250000000  0.5702290000000 1.0
C      1  0.4892240000000  0.4309050000000  0.5705000000000 1.0
C      1  0.4881610000000  0.5268220000000  0.5367070000000 1.0
C      1  0.4870760000000  0.4735040000000  0.5360000000000 1.0
C      1  0.4291180000000  0.4212570000000  0.5060890000000 1.0
C      1  0.4295970000000  0.5779910000000  0.5061680000000 1.0
C      1  0.4037340000000  0.5674900000000  0.4992260000000 1.0
C      1  0.4033800000000  0.4318280000000  0.4988190000000 1.0
C      1  0.4974650000000  0.4246330000000  0.4753430000000 1.0
C      1  0.4984230000000  0.5744800000000  0.4755380000000 1.0
C      1  0.5443540000000  0.4844780000000  0.4127340000000 1.0
C      1  0.5443390000000  0.5153880000000  0.4137560000000 1.0
C      1  0.4124760000000  0.5277680000000  0.4332670000000 1.0
C      1  0.4122760000000  0.4706890000000  0.4323200000000 1.0
C      1  0.4243700000000  0.4488780000000  0.5604450000000 1.0
C      1  0.4246950000000  0.5526570000000  0.5600910000000 1.0
C      1  0.5054070000000  0.4912400000000  0.4718640000000 1.0
C      1  0.5074920000000  0.5183850000000  0.4793490000000 1.0
C      1  0.5701930000000  0.4752710000000  0.4245450000000 1.0
C      1  0.5700880000000  0.5253560000000  0.4257970000000 1.0
C      1  0.5600920000000  0.4060550000000  0.5192180000000 1.0
C      1  0.5602550000000  0.5952650000000  0.5187820000000 1.0
C      1  0.5817200000000  0.4689190000000  0.5528250000000 1.0
C      1  0.5815980000000  0.5329410000000  0.5528430000000 1.0
C      1  0.5819830000000  0.5633180000000  0.4392590000000 1.0
C      1  0.5818970000000  0.4376930000000  0.4391740000000 1.0
C      1  0.5361220000000  0.4205630000000  0.5614370000000 1.0
C      1  0.5373900000000  0.5788420000000  0.5606560000000 1.0
C      1  0.4954330000000  0.4349500000000  0.5033030000000 1.0
C      1  0.4966460000000  0.5643860000000  0.5033490000000 1.0
C      1  0.5548770000000  0.4856290000000  0.4706180000000 1.0
C      1  0.5565350000000  0.5155290000000  0.4742020000000 1.0
C      1  0.3871490000000  0.5136870000000  0.4307790000000 1.0
C      1  0.3870520000000  0.4850250000000  0.4301540000000 1.0
C      1  0.6109960000000  0.4860320000000  0.5151310000000 1.0
C      1  0.6109960000000  0.5157380000000  0.5151670000000 1.0
C      1  0.4585780000000  0.5305880000000  0.4972220000000 1.0
C      1  0.4576920000000  0.4682120000000  0.4965140000000 1.0
C      1  0.4333180000000  0.4209150000000  0.5656800000000 1.0
C      1  0.4347850000000  0.5805240000000  0.5655400000000 1.0
C      1  0.4596920000000  0.3801830000000  0.5015590000000 1.0
C      1  0.4597350000000  0.6193230000000  0.5013230000000 1.0
C      1  0.4644730000000  0.4822970000000  0.4695320000000 1.0
C      1  0.4655180000000  0.5165060000000  0.4701280000000 1.0
C      1  0.4359490000000  0.4849580000000  0.4200180000000 1.0
C      1  0.4360980000000  0.5136890000000  0.4206680000000 1.0
C      1  0.4913970000000  0.4839460000000  0.4247070000000 1.0
C      1  0.4914540000000  0.5149820000000  0.4249870000000 1.0
C      1  0.4492260000000  0.4080170000000  0.4654350000000 1.0
C      1  0.4495680000000  0.5907230000000  0.4657240000000 1.0
C      1  0.5766160000000  0.5245210000000  0.4543940000000 1.0
C      1  0.5761410000000  0.4769650000000  0.4528640000000 1.0
C      1  0.4387000000000  0.3986050000000  0.4909200000000 1.0
C      1  0.4389130000000  0.6006520000000  0.4909050000000 1.0
C      1  0.4050340000000  0.5332250000000  0.5476860000000 1.0
C      1  0.4035150000000  0.4654530000000  0.5460120000000 1.0
C      1  0.5579380000000  0.5088300000000  0.5054890000000 1.0
C      1  0.5563370000000  0.4786980000000  0.5015070000000 1.0
C      1  0.5106310000000  0.3908760000000  0.5089160000000 1.0
C      1  0.5106580000000  0.6091680000000  0.5086840000000 1.0
C      1  0.5324900000000  0.4673350000000  0.5143490000000 1.0
C      1  0.5336790000000  0.5176250000000  0.5199920000000 1.0
C      1  0.4944070000000  0.4523760000000  0.6153050000000 1.0
C      1  0.4953480000000  0.5486290000000  0.6153420000000 1.0
C      1  0.4003700000000  0.4537130000000  0.4800820000000 1.0
C      1  0.4003760000000  0.5453360000000  0.4808310000000 1.0
C      1  0.4619520000000  0.4141090000000  0.5734390000000 1.0
C      1  0.4635550000000  0.5866890000000  0.5731570000000 1.0
C      1  0.5031980000000  0.4616430000000  0.5578130000000 1.0
C      1  0.5049230000000  0.5388460000000  0.5580390000000 1.0
C      1  0.5266740000000  0.4858540000000  0.5981640000000 1.0
C      1  0.5274970000000  0.5156350000000  0.5995750000000 1.0
C      1  0.5390000000000  0.6070590000000  0.4996490000000 1.0
C      1  0.5388040000000  0.3949250000000  0.4997350000000 1.0
C      1  0.4812460000000  0.4660430000000  0.4485620000000 1.0
C      1  0.4820950000000  0.5326560000000  0.4491170000000 1.0
C      1  0.5318850000000  0.4577260000000  0.5423900000000 1.0
C      1  0.5330620000000  0.5387780000000  0.5397990000000 1.0
C      1  0.5567370000000  0.5963430000000  0.5481510000000 1.0
C      1  0.5560170000000  0.4041360000000  0.5484000000000 1.0
C      1  0.4914530000000  0.4119080000000  0.4357890000000 1.0
C      1  0.4916110000000  0.5869030000000  0.4360230000000 1.0
C      1  0.5709690000000  0.5668450000000  0.5153660000000 1.0
C      1  0.5720250000000  0.4341250000000  0.5160110000000 1.0
C      1  0.4383800000000  0.4849030000000  0.5125510000000 1.0
C      1  0.4394040000000  0.5137210000000  0.5137040000000 1.0
C      1  0.4256450000000  0.4847690000000  0.5964430000000 1.0
C      1  0.4262970000000  0.5166360000000  0.5971610000000 1.0
C      1  0.5203280000000  0.5294170000000  0.4273870000000 1.0
C      1  0.5198590000000  0.4697650000000  0.4259880000000 1.0
C      1  0.5490360000000  0.4695260000000  0.5907250000000 1.0
C      1  0.5497450000000  0.5318120000000  0.5913550000000 1.0
C      1  0.4863030000000  0.5377380000000  0.5099910000000 1.0
C      1  0.4853940000000  0.4619110000000  0.5094590000000 1.0
C      1  0.5886760000000  0.5578040000000  0.4913040000000 1.0
C      1  0.5889740000000  0.4434720000000  0.4914750000000 1.0
C      1  0.5241590000000  0.4262060000000  0.4615560000000 1.0
C      1  0.5252780000000  0.5749240000000  0.4620190000000 1.0
C      1  0.5022530000000  0.4146930000000  0.5235020000000 1.0
C      1  0.5034240000000  0.5849070000000  0.5230970000000 1.0
C      1  0.5630460000000  0.4521210000000  0.5388160000000 1.0
C      1  0.5621270000000  0.5487110000000  0.5382090000000 1.0
C      1  0.5709560000000  0.4027520000000  0.4658620000000 1.0
C      1  0.5717310000000  0.5992050000000  0.4661890000000 1.0
C      1  0.5009620000000  0.5184510000000  0.5830520000000 1.0
C      1  0.5001150000000  0.4821380000000  0.5825850000000 1.0
C      1  0.5144620000000  0.5999840000000  0.4224030000000 1.0
C      1  0.5148780000000  0.3991470000000  0.4226120000000 1.0
C      1  0.6044480000000  0.5308820000000  0.4906450000000 1.0
C      1  0.6041390000000  0.4706580000000  0.4905320000000 1.0
C      1  0.5610460000000  0.5744400000000  0.4218830000000 1.0
C      1  0.5609880000000  0.4260270000000  0.4219750000000 1.0
C      1  0.4353750000000  0.4282660000000  0.4474670000000 1.0
C      1  0.4356740000000  0.5702480000000  0.4480700000000 1.0
C      1  0.5432700000000  0.5998980000000  0.4715340000000 1.0
C      1  0.5427690000000  0.4028110000000  0.4719470000000 1.0
C      1  0.5867570000000  0.5744100000000  0.4659270000000 1.0
C      1  0.5868960000000  0.4269320000000  0.4660390000000 1.0
C      1  0.4804540000000  0.4382570000000  0.4255710000000 1.0
C      1  0.4807690000000  0.5605680000000  0.4262690000000 1.0
C      1  0.6073800000000  0.5281620000000  0.5410430000000 1.0
C      1  0.6074610000000  0.4738720000000  0.5411180000000 1.0
C      1  0.5227340000000  0.4397140000000  0.4325840000000 1.0
C      1  0.5236210000000  0.5598150000000  0.4340770000000 1.0
C      1  0.4632790000000  0.4859750000000  0.5462910000000 1.0
C      1  0.4643800000000  0.5152800000000  0.5473820000000 1.0
C      1  0.4514620000000  0.5646670000000  0.4247030000000 1.0
C      1  0.4511820000000  0.4336410000000  0.4239980000000 1.0
C      1  0.5284870000000  0.4752270000000  0.4667140000000 1.0
C      1  0.5330690000000  0.5308160000000  0.4797580000000 1.0
C      1  0.4509870000000  0.4635030000000  0.5626630000000 1.0
C      1  0.4513850000000  0.5377760000000  0.5632480000000 1.0
C      1  0.5367720000000  0.5307460000000  0.3887630000000 1.0
C      1  0.5364710000000  0.4693150000000  0.3874230000000 1.0
C      1  0.5089800000000  0.4199990000000  0.5511510000000 1.0
C      1  0.5102590000000  0.5798360000000  0.5506210000000 1.0
C      1  0.4617700000000  0.5591130000000  0.5415290000000 1.0
C      1  0.4608890000000  0.4411190000000  0.5412950000000 1.0
C      1  0.4113900000000  0.4753820000000  0.5183420000000 1.0
C      1  0.4125220000000  0.5233640000000  0.5200070000000 1.0
C      1  0.4159460000000  0.5475810000000  0.4546560000000 1.0
C      1  0.4157130000000  0.4510160000000  0.4538420000000 1.0
C      1  0.4620270000000  0.4734340000000  0.4119870000000 1.0
C      1  0.4621000000000  0.5254400000000  0.4129130000000 1.0
C      1  0.4519060000000  0.5317320000000  0.5921540000000 1.0
C      1  0.4513550000000  0.4696240000000  0.5916420000000 1.0
C      1  0.4768870000000  0.5004910000000  0.6207220000000 1.0
END
