TITL C-862503-991-64 -9.29319252504885 125000 -1098.04845390892 0 0 186 (C1) n - 1
REM
REM in /home/nfs/bkarasulu/CARBON/AIRSS/Generating-Clusters/TERSOFF/Higher-Symm/FIRE-HFTN
REM
REM
REM
REM
REM
REM ./C.cell (b20cbc046b6831c77cfcea5457e17084)
REM AIRSS Version 0.9.1 bugfix July 2018 build 013d7b7c2542+ Fri, 06 Jul 2018 19:26:36 +0100
REM compiler GCC version 9.2.1 20190827 (Red Hat 9.2.1-1)
REM options -cpp -mtune=generic -march=x86-64 -g -O0 -fpre-include=/usr/include/finclude/math-vector-fortran.h
REM seed -1249888875 -881909485 706082691 233602089 -493929171 -881258499 -1610122525 800145110 -1921783237 -1606199433 -453600824 -1930368940 -627690717 -1145129754 1908999000 1987040403 -60383894 -1004718063 -1211229499 1090346448 1229545838 1640569859 -948123029 919747311 -222257497 1394185653 1685767352 -155704659 -1040606158 63910667 2097419316 739511056 -1103290150
REM
CELL 1.54180   50.00000   50.00000   50.00000   90.00000   90.00000   90.00000
LATT -1
SFAC C  
C      1  0.4481670000000  0.5416410000000  0.4461240000000 1.0
C      1  0.5894300000000  0.5407170000000  0.4145860000000 1.0
C      1  0.5484140000000  0.5045010000000  0.6026300000000 1.0
C      1  0.5161450000000  0.4758070000000  0.5204060000000 1.0
C      1  0.5155470000000  0.4124760000000  0.4476000000000 1.0
C      1  0.5085790000000  0.5939330000000  0.4261560000000 1.0
C      1  0.5059850000000  0.4545410000000  0.4070770000000 1.0
C      1  0.4076640000000  0.5163850000000  0.5648900000000 1.0
C      1  0.4464250000000  0.5929600000000  0.4645080000000 1.0
C      1  0.4457420000000  0.4964400000000  0.4376120000000 1.0
C      1  0.4468680000000  0.4460620000000  0.4319090000000 1.0
C      1  0.5277190000000  0.5803730000000  0.5693890000000 1.0
C      1  0.5520490000000  0.4427120000000  0.4826470000000 1.0
C      1  0.4844810000000  0.4153480000000  0.3793100000000 1.0
C      1  0.5148270000000  0.4786530000000  0.6274190000000 1.0
C      1  0.4967760000000  0.5491410000000  0.4254950000000 1.0
C      1  0.5405940000000  0.4251690000000  0.4389700000000 1.0
C      1  0.5644790000000  0.4428450000000  0.5116240000000 1.0
C      1  0.4851610000000  0.5641040000000  0.5112920000000 1.0
C      1  0.5437080000000  0.6060290000000  0.4630160000000 1.0
C      1  0.5441250000000  0.3731960000000  0.5197950000000 1.0
C      1  0.4863550000000  0.4307590000000  0.4037910000000 1.0
C      1  0.4827290000000  0.5756350000000  0.4260130000000 1.0
C      1  0.6201200000000  0.5387560000000  0.4701210000000 1.0
C      1  0.4104460000000  0.5015350000000  0.5390380000000 1.0
C      1  0.4449140000000  0.4228570000000  0.5759160000000 1.0
C      1  0.4987730000000  0.5008500000000  0.4318680000000 1.0
C      1  0.4910400000000  0.4818340000000  0.5833150000000 1.0
C      1  0.5102410000000  0.5294060000000  0.5359510000000 1.0
C      1  0.4313770000000  0.6105680000000  0.5109950000000 1.0
C      1  0.3982330000000  0.5602780000000  0.5086320000000 1.0
C      1  0.5866210000000  0.5897120000000  0.5002380000000 1.0
C      1  0.4638760000000  0.4406670000000  0.5318670000000 1.0
C      1  0.4757670000000  0.4541630000000  0.4872000000000 1.0
C      1  0.5470180000000  0.4694990000000  0.4707260000000 1.0
C      1  0.5655180000000  0.4233230000000  0.4611620000000 1.0
C      1  0.3802020000000  0.5060270000000  0.4985490000000 1.0
C      1  0.5725140000000  0.5267920000000  0.4784910000000 1.0
C      1  0.4488180000000  0.4554630000000  0.4792850000000 1.0
C      1  0.5351870000000  0.5557460000000  0.5041430000000 1.0
C      1  0.4501190000000  0.5888110000000  0.5695790000000 1.0
C      1  0.4335380000000  0.4681860000000  0.4995550000000 1.0
C      1  0.4236080000000  0.4423170000000  0.5720990000000 1.0
C      1  0.4103490000000  0.4379400000000  0.4693610000000 1.0
C      1  0.5434650000000  0.5352610000000  0.4826790000000 1.0
C      1  0.5395140000000  0.4880170000000  0.3899050000000 1.0
C      1  0.4912400000000  0.4282700000000  0.4499510000000 1.0
C      1  0.3806850000000  0.5365900000000  0.4925660000000 1.0
C      1  0.5160570000000  0.4521970000000  0.5461050000000 1.0
C      1  0.5286630000000  0.4280080000000  0.4954790000000 1.0
C      1  0.4188160000000  0.5138210000000  0.5130950000000 1.0
C      1  0.4670170000000  0.4024640000000  0.4725620000000 1.0
C      1  0.5017240000000  0.3873810000000  0.5438090000000 1.0
C      1  0.4687800000000  0.4246800000000  0.4288330000000 1.0
C      1  0.5058690000000  0.4642380000000  0.6038170000000 1.0
C      1  0.5500840000000  0.5386940000000  0.5759460000000 1.0
C      1  0.5271930000000  0.5950340000000  0.4033460000000 1.0
C      1  0.5391190000000  0.5715700000000  0.3902790000000 1.0
C      1  0.4980740000000  0.6383580000000  0.4949040000000 1.0
C      1  0.5951210000000  0.4937930000000  0.5800530000000 1.0
C      1  0.5439520000000  0.4937550000000  0.5564280000000 1.0
C      1  0.4390720000000  0.4574810000000  0.5275630000000 1.0
C      1  0.5404610000000  0.5178970000000  0.3814830000000 1.0
C      1  0.5915690000000  0.4790870000000  0.5295940000000 1.0
C      1  0.5943550000000  0.4391690000000  0.4686170000000 1.0
C      1  0.5538680000000  0.5070630000000  0.4279560000000 1.0
C      1  0.3845280000000  0.4661650000000  0.4079770000000 1.0
C      1  0.4476490000000  0.5052900000000  0.5971480000000 1.0
C      1  0.5957290000000  0.5751220000000  0.5243490000000 1.0
C      1  0.5754080000000  0.5389060000000  0.5906370000000 1.0
C      1  0.4168790000000  0.4487450000000  0.5445360000000 1.0
C      1  0.4798090000000  0.5433490000000  0.3711910000000 1.0
C      1  0.5522030000000  0.5665490000000  0.4346180000000 1.0
C      1  0.5121520000000  0.4763170000000  0.3864400000000 1.0
C      1  0.4245910000000  0.4971400000000  0.4595200000000 1.0
C      1  0.5005160000000  0.5874420000000  0.5627630000000 1.0
C      1  0.5104600000000  0.5296590000000  0.6285110000000 1.0
C      1  0.4098690000000  0.4545990000000  0.5945010000000 1.0
C      1  0.6076330000000  0.5270310000000  0.5419490000000 1.0
C      1  0.3978870000000  0.4884770000000  0.4525710000000 1.0
C      1  0.4972370000000  0.6038100000000  0.5401350000000 1.0
C      1  0.5707020000000  0.4326660000000  0.5760550000000 1.0
C      1  0.5533100000000  0.3955300000000  0.4718250000000 1.0
C      1  0.4319110000000  0.4968800000000  0.4919060000000 1.0
C      1  0.4806540000000  0.6158190000000  0.4867090000000 1.0
C      1  0.5834450000000  0.5750950000000  0.4752080000000 1.0
C      1  0.3925320000000  0.5411720000000  0.5660250000000 1.0
C      1  0.5085920000000  0.3791450000000  0.4966200000000 1.0
C      1  0.4901690000000  0.4725420000000  0.4275830000000 1.0
C      1  0.5498230000000  0.4511940000000  0.5828140000000 1.0
C      1  0.5390300000000  0.5441700000000  0.4016090000000 1.0
C      1  0.4398530000000  0.5569810000000  0.4909180000000 1.0
C      1  0.5360460000000  0.4468150000000  0.4180700000000 1.0
C      1  0.4974700000000  0.4573210000000  0.4513810000000 1.0
C      1  0.4191990000000  0.5852410000000  0.5241900000000 1.0
C      1  0.4599830000000  0.5741270000000  0.5029200000000 1.0
C      1  0.5296940000000  0.3990600000000  0.4900260000000 1.0
C      1  0.4620460000000  0.5366530000000  0.5451850000000 1.0
C      1  0.5727780000000  0.4925400000000  0.4407120000000 1.0
C      1  0.5793050000000  0.5104860000000  0.5996040000000 1.0
C      1  0.6278700000000  0.5103350000000  0.4683060000000 1.0
C      1  0.5239550000000  0.6262270000000  0.5046660000000 1.0
C      1  0.5052320000000  0.5091660000000  0.5821160000000 1.0
C      1  0.5219490000000  0.4411210000000  0.5934410000000 1.0
C      1  0.4633520000000  0.4178860000000  0.5532100000000 1.0
C      1  0.4047900000000  0.4021210000000  0.5316210000000 1.0
C      1  0.5104620000000  0.5763760000000  0.4998700000000 1.0
C      1  0.6116660000000  0.4638420000000  0.5134530000000 1.0
C      1  0.4450260000000  0.5263270000000  0.6431400000000 1.0
C      1  0.4631230000000  0.5663490000000  0.3784090000000 1.0
C      1  0.5614350000000  0.5837090000000  0.4564750000000 1.0
C      1  0.4499100000000  0.6122130000000  0.4867540000000 1.0
C      1  0.4628310000000  0.5797400000000  0.4046110000000 1.0
C      1  0.5275830000000  0.5046690000000  0.6246220000000 1.0
C      1  0.5622340000000  0.5308170000000  0.4149680000000 1.0
C      1  0.5137940000000  0.6016420000000  0.5171060000000 1.0
C      1  0.4388000000000  0.4009830000000  0.4662870000000 1.0
C      1  0.5297310000000  0.3784210000000  0.5447020000000 1.0
C      1  0.4559610000000  0.5216150000000  0.4282750000000 1.0
C      1  0.4570670000000  0.3946240000000  0.5330790000000 1.0
C      1  0.5923160000000  0.5473300000000  0.4749150000000 1.0
C      1  0.4043640000000  0.5672760000000  0.5676900000000 1.0
C      1  0.5284560000000  0.5064810000000  0.4405190000000 1.0
C      1  0.6357920000000  0.5338360000000  0.5447180000000 1.0
C      1  0.4966960000000  0.4730360000000  0.4762090000000 1.0
C      1  0.5888250000000  0.5470140000000  0.5307310000000 1.0
C      1  0.4771980000000  0.5777420000000  0.5777810000000 1.0
C      1  0.5660560000000  0.4122300000000  0.5564840000000 1.0
C      1  0.5348840000000  0.5122820000000  0.5769950000000 1.0
C      1  0.4778700000000  0.4076830000000  0.4990110000000 1.0
C      1  0.5427850000000  0.5585270000000  0.5570340000000 1.0
C      1  0.5109900000000  0.4310910000000  0.5668730000000 1.0
C      1  0.4846360000000  0.5381130000000  0.6133790000000 1.0
C      1  0.6022720000000  0.4628140000000  0.4525980000000 1.0
C      1  0.4549390000000  0.5378060000000  0.4741480000000 1.0
C      1  0.6052780000000  0.4389840000000  0.4969280000000 1.0
C      1  0.5653250000000  0.3913880000000  0.5118150000000 1.0
C      1  0.4920970000000  0.4096690000000  0.5609890000000 1.0
C      1  0.5731840000000  0.6155310000000  0.5020720000000 1.0
C      1  0.6077630000000  0.4886400000000  0.4704820000000 1.0
C      1  0.5647380000000  0.4694480000000  0.5245060000000 1.0
C      1  0.5981570000000  0.4999500000000  0.5504850000000 1.0
C      1  0.4300460000000  0.3901740000000  0.5216060000000 1.0
C      1  0.4177860000000  0.4445590000000  0.4412300000000 1.0
C      1  0.5477200000000  0.3906720000000  0.5638890000000 1.0
C      1  0.4834300000000  0.5231100000000  0.4172230000000 1.0
C      1  0.4908730000000  0.4937720000000  0.3763800000000 1.0
C      1  0.4236970000000  0.5431430000000  0.5132630000000 1.0
C      1  0.4595690000000  0.4720540000000  0.4294560000000 1.0
C      1  0.4855610000000  0.5416790000000  0.5299220000000 1.0
C      1  0.3811130000000  0.4421840000000  0.5108560000000 1.0
C      1  0.4913860000000  0.4921680000000  0.5314590000000 1.0
C      1  0.3993910000000  0.4664260000000  0.4328340000000 1.0
C      1  0.5480910000000  0.6213780000000  0.4880670000000 1.0
C      1  0.4624620000000  0.4820900000000  0.5896770000000 1.0
C      1  0.5253190000000  0.5478920000000  0.4347740000000 1.0
C      1  0.4930320000000  0.4724850000000  0.5552630000000 1.0
C      1  0.4851840000000  0.3837380000000  0.5181070000000 1.0
C      1  0.5406400000000  0.4655310000000  0.5586590000000 1.0
C      1  0.4838850000000  0.5198410000000  0.3879240000000 1.0
C      1  0.4248080000000  0.5731310000000  0.4679390000000 1.0
C      1  0.5336320000000  0.5451970000000  0.5321050000000 1.0
C      1  0.4290290000000  0.5748480000000  0.5531010000000 1.0
C      1  0.4818840000000  0.4355820000000  0.5084840000000 1.0
C      1  0.4572840000000  0.5112030000000  0.4846250000000 1.0
C      1  0.4371980000000  0.5494290000000  0.5391140000000 1.0
C      1  0.5100060000000  0.4411980000000  0.5136130000000 1.0
C      1  0.5701070000000  0.4166280000000  0.5263580000000 1.0
C      1  0.4816950000000  0.5668780000000  0.6052470000000 1.0
C      1  0.4967220000000  0.5047090000000  0.4678100000000 1.0
C      1  0.4590380000000  0.5231630000000  0.6178150000000 1.0
C      1  0.5849140000000  0.4696590000000  0.4266010000000 1.0
C      1  0.4480410000000  0.4087610000000  0.6011060000000 1.0
C      1  0.5439940000000  0.4928990000000  0.4867910000000 1.0
C      1  0.5238840000000  0.5281350000000  0.4621480000000 1.0
C      1  0.4965490000000  0.5927000000000  0.4740930000000 1.0
C      1  0.5805250000000  0.5000560000000  0.4674290000000 1.0
C      1  0.5162300000000  0.6021050000000  0.4539920000000 1.0
C      1  0.4738120000000  0.5822070000000  0.4558230000000 1.0
C      1  0.4189870000000  0.5060880000000  0.5901780000000 1.0
C      1  0.5576040000000  0.4658580000000  0.4087970000000 1.0
C      1  0.3907730000000  0.4538800000000  0.4861650000000 1.0
C      1  0.3843340000000  0.4829690000000  0.4782060000000 1.0
C      1  0.5423630000000  0.4874660000000  0.5149380000000 1.0
C      1  0.4235570000000  0.5573350000000  0.4427180000000 1.0
C      1  0.3984210000000  0.4309390000000  0.5312130000000 1.0
END
