TITL C-862130-1496-1259 6.70208282423022e-05 125000 -833.20064004992 0 0 160 (C5) n - 1
REM
REM in /home/nfs/bkarasulu/CARBON/AIRSS/Generating-Clusters/TERSOFF/Higher-Symm/FIRE-HFTN
REM
REM
REM
REM
REM
REM ./C.cell (b20cbc046b6831c77cfcea5457e17084)
REM AIRSS Version 0.9.1 bugfix July 2018 build 013d7b7c2542+ Fri, 06 Jul 2018 19:26:36 +0100
REM compiler GCC version 9.2.1 20190827 (Red Hat 9.2.1-1)
REM options -cpp -mtune=generic -march=x86-64 -g -O0 -fpre-include=/usr/include/finclude/math-vector-fortran.h
REM seed 776594876 926852953 -1928377311 1092197278 -1126853876 -1154701819 -544047402 -896266133 -686029132 -849395870 -695231130 -866149297 -1875557840 1388243651 -1515736276 -2092407719 -939168033 -204353549 -1732912073 -1603375123 1180657486 -1179827241 1278136851 855471851 -1201249935 542816574 797887273 -1140174768 20668743 1857379773 -2104271694 1732379390 -644689584
REM
CELL 1.54180   50.00000   50.00000   50.00000   90.00000   90.00000   90.00000
LATT -1
SFAC C  
C      1  0.5169810000000  0.5567380000000  0.5081350000000 1.0
C      1  0.5592090000000  0.5013830000000  0.5081350000000 1.0
C      1  0.5196120000000  0.4441170000000  0.5081350000000 1.0
C      1  0.4529120000000  0.4640790000000  0.5081350000000 1.0
C      1  0.4512870000000  0.5336830000000  0.5081350000000 1.0
C      1  0.4804390000000  0.4449410000000  0.5324710000000 1.0
C      1  0.4415910000000  0.5015890000000  0.5324710000000 1.0
C      1  0.4834620000000  0.5560410000000  0.5324710000000 1.0
C      1  0.5481880000000  0.5330460000000  0.5324710000000 1.0
C      1  0.5463190000000  0.4643830000000  0.5324710000000 1.0
C      1  0.4779630000000  0.4852930000000  0.4935440000000 1.0
C      1  0.4792030000000  0.5164130000000  0.4935440000000 1.0
C      1  0.5091830000000  0.5248510000000  0.4935440000000 1.0
C      1  0.5264730000000  0.4989460000000  0.4935440000000 1.0
C      1  0.5071780000000  0.4744970000000  0.4935440000000 1.0
C      1  0.4186840000000  0.4634020000000  0.4684070000000 1.0
C      1  0.4400660000000  0.5660270000000  0.4684070000000 1.0
C      1  0.5442750000000  0.5774050000000  0.4684070000000 1.0
C      1  0.5872980000000  0.4818120000000  0.4684070000000 1.0
C      1  0.5096780000000  0.4113540000000  0.4684070000000 1.0
C      1  0.5675200000000  0.4788260000000  0.4917300000000 1.0
C      1  0.5007270000000  0.4292410000000  0.4917300000000 1.0
C      1  0.4329290000000  0.4774430000000  0.4917300000000 1.0
C      1  0.4578210000000  0.5568180000000  0.4917300000000 1.0
C      1  0.5410030000000  0.5576730000000  0.4917300000000 1.0
C      1  0.5019710000000  0.5871080000000  0.4348050000000 1.0
C      1  0.5834540000000  0.5250430000000  0.4348050000000 1.0
C      1  0.5496060000000  0.4283690000000  0.4348050000000 1.0
C      1  0.4472040000000  0.4306870000000  0.4348050000000 1.0
C      1  0.4177650000000  0.5287930000000  0.4348050000000 1.0
C      1  0.4345830000000  0.5238990000000  0.5577560000000 1.0
C      1  0.5025140000000  0.5696010000000  0.5577560000000 1.0
C      1  0.5669710000000  0.5191170000000  0.5577560000000 1.0
C      1  0.5388760000000  0.4422140000000  0.5577560000000 1.0
C      1  0.4570560000000  0.4451700000000  0.5577560000000 1.0
C      1  0.4566040000000  0.5715150000000  0.4433860000000 1.0
C      1  0.5546050000000  0.5633720000000  0.4433860000000 1.0
C      1  0.5771440000000  0.4676500000000  0.4433860000000 1.0
C      1  0.4930720000000  0.4166350000000  0.4433860000000 1.0
C      1  0.4185750000000  0.4808270000000  0.4433860000000 1.0
C      1  0.4852230000000  0.4141010000000  0.5408290000000 1.0
C      1  0.4137390000000  0.4875090000000  0.5408290000000 1.0
C      1  0.4614640000000  0.5781790000000  0.5408290000000 1.0
C      1  0.5624450000000  0.5608080000000  0.5408290000000 1.0
C      1  0.5771280000000  0.4594020000000  0.5408290000000 1.0
C      1  0.5920150000000  0.5110080000000  0.4642630000000 1.0
C      1  0.5389030000000  0.4158910000000  0.4642630000000 1.0
C      1  0.4320290000000  0.4370100000000  0.4642630000000 1.0
C      1  0.4190880000000  0.5451790000000  0.4642630000000 1.0
C      1  0.5179650000000  0.5909130000000  0.4642630000000 1.0
C      1  0.5154180000000  0.5379400000000  0.4649760000000 1.0
C      1  0.5408480000000  0.4970600000000  0.4649760000000 1.0
C      1  0.5098270000000  0.4602430000000  0.4649760000000 1.0
C      1  0.4652260000000  0.4783680000000  0.4649760000000 1.0
C      1  0.4686810000000  0.5263880000000  0.4649760000000 1.0
C      1  0.4809560000000  0.5815430000000  0.5778520000000 1.0
C      1  0.5716670000000  0.5433100000000  0.5778520000000 1.0
C      1  0.5633360000000  0.4452240000000  0.5778520000000 1.0
C      1  0.4674770000000  0.4228370000000  0.5778520000000 1.0
C      1  0.4165630000000  0.5070860000000  0.5778520000000 1.0
C      1  0.4708490000000  0.6103280000000  0.4724720000000 1.0
C      1  0.5959200000000  0.5618180000000  0.4724720000000 1.0
C      1  0.5884330000000  0.4278770000000  0.4724720000000 1.0
C      1  0.4587350000000  0.3936080000000  0.4724720000000 1.0
C      1  0.3860630000000  0.5063690000000  0.4724720000000 1.0
C      1  0.4997070000000  0.3964470000000  0.5177010000000 1.0
C      1  0.4014250000000  0.4682790000000  0.5177010000000 1.0
C      1  0.4393700000000  0.5839480000000  0.5177010000000 1.0
C      1  0.5611040000000  0.5836040000000  0.5177010000000 1.0
C      1  0.5983940000000  0.4677220000000  0.5177010000000 1.0
C      1  0.5513560000000  0.4535400000000  0.4984800000000 1.0
C      1  0.4716840000000  0.4368000000000  0.4984800000000 1.0
C      1  0.4311430000000  0.5074000000000  0.4984800000000 1.0
C      1  0.4857600000000  0.5677730000000  0.4984800000000 1.0
C      1  0.5600560000000  0.5344860000000  0.4984800000000 1.0
C      1  0.4810180000000  0.4803320000000  0.3965950000000 1.0
C      1  0.4754290000000  0.5119750000000  0.3965950000000 1.0
C      1  0.5037960000000  0.5270690000000  0.3965950000000 1.0
C      1  0.5269170000000  0.5047540000000  0.3965950000000 1.0
C      1  0.5128400000000  0.4758690000000  0.3965950000000 1.0
C      1  0.4735670000000  0.4998640000000  0.5433960000000 1.0
C      1  0.4917020000000  0.5250970000000  0.5433960000000 1.0
C      1  0.5213050000000  0.5156470000000  0.5433960000000 1.0
C      1  0.5214650000000  0.4845730000000  0.5433960000000 1.0
C      1  0.4919610000000  0.4748190000000  0.5433960000000 1.0
C      1  0.4737720000000  0.5954220000000  0.4454050000000 1.0
C      1  0.5826470000000  0.5544320000000  0.4454050000000 1.0
C      1  0.5773070000000  0.4382180000000  0.4454050000000 1.0
C      1  0.4651310000000  0.4073850000000  0.4454050000000 1.0
C      1  0.4011430000000  0.5045430000000  0.4454050000000 1.0
C      1  0.4806470000000  0.4803800000000  0.5976580000000 1.0
C      1  0.4753590000000  0.5123430000000  0.5976580000000 1.0
C      1  0.5041240000000  0.5272490000000  0.5976580000000 1.0
C      1  0.5271900000000  0.5044980000000  0.5976580000000 1.0
C      1  0.5126800000000  0.4755310000000  0.5976580000000 1.0
C      1  0.5113790000000  0.4758780000000  0.4384930000000 1.0
C      1  0.4805750000000  0.4817240000000  0.4384930000000 1.0
C      1  0.4766160000000  0.5128270000000  0.4384930000000 1.0
C      1  0.5049730000000  0.5262040000000  0.4384930000000 1.0
C      1  0.5264580000000  0.5033680000000  0.4384930000000 1.0
C      1  0.5661740000000  0.4775050000000  0.5789850000000 1.0
C      1  0.4990550000000  0.4301140000000  0.5789850000000 1.0
C      1  0.4332420000000  0.4793030000000  0.5789850000000 1.0
C      1  0.4596870000000  0.5570950000000  0.5789850000000 1.0
C      1  0.5418430000000  0.5559840000000  0.5789850000000 1.0
C      1  0.4835390000000  0.4610260000000  0.5711410000000 1.0
C      1  0.4578470000000  0.5036120000000  0.5711410000000 1.0
C      1  0.4904090000000  0.5412060000000  0.5711410000000 1.0
C      1  0.5362250000000  0.5218550000000  0.5711410000000 1.0
C      1  0.5319800000000  0.4723010000000  0.5711410000000 1.0
C      1  0.5819850000000  0.5593820000000  0.5005800000000 1.0
C      1  0.5818110000000  0.4403780000000  0.5005800000000 1.0
C      1  0.4685770000000  0.4037690000000  0.5005800000000 1.0
C      1  0.3987690000000  0.5001480000000  0.5005800000000 1.0
C      1  0.4688590000000  0.5963220000000  0.5005800000000 1.0
C      1  0.4518670000000  0.4704160000000  0.6012740000000 1.0
C      1  0.4569900000000  0.5366360000000  0.6012740000000 1.0
C      1  0.5215520000000  0.5522260000000  0.6012740000000 1.0
C      1  0.5563300000000  0.4956420000000  0.6012740000000 1.0
C      1  0.5132620000000  0.4450810000000  0.6012740000000 1.0
C      1  0.4905990000000  0.5971610000000  0.5279870000000 1.0
C      1  0.5895000000000  0.5389650000000  0.5279870000000 1.0
C      1  0.5647150000000  0.4269210000000  0.5279870000000 1.0
C      1  0.4504960000000  0.4158690000000  0.5279870000000 1.0
C      1  0.4046900000000  0.5210830000000  0.5279870000000 1.0
C      1  0.5908050000000  0.5033230000000  0.5216150000000 1.0
C      1  0.5312210000000  0.4146660000000  0.5216150000000 1.0
C      1  0.4284910000000  0.4439380000000  0.5216150000000 1.0
C      1  0.4245840000000  0.5506850000000  0.5216150000000 1.0
C      1  0.5249000000000  0.5873870000000  0.5216150000000 1.0
C      1  0.5494720000000  0.4696710000000  0.4549620000000 1.0
C      1  0.4864430000000  0.4435770000000  0.4549620000000 1.0
C      1  0.4421490000000  0.4954580000000  0.4549620000000 1.0
C      1  0.4778030000000  0.5536160000000  0.4549620000000 1.0
C      1  0.5441320000000  0.5376790000000  0.4549620000000 1.0
C      1  0.4308220000000  0.4702700000000  0.4184590000000 1.0
C      1  0.4503480000000  0.5566050000000  0.4184590000000 1.0
C      1  0.5384910000000  0.5647140000000  0.4184590000000 1.0
C      1  0.5734410000000  0.4833910000000  0.4184590000000 1.0
C      1  0.5068980000000  0.4250210000000  0.4184590000000 1.0
C      1  0.4063590000000  0.5482090000000  0.4929630000000 1.0
C      1  0.5169130000000  0.6039550000000  0.4929630000000 1.0
C      1  0.6040940000000  0.5160390000000  0.4929630000000 1.0
C      1  0.5474210000000  0.4059570000000  0.4929630000000 1.0
C      1  0.4252140000000  0.4258390000000  0.4929630000000 1.0
C      1  0.4383350000000  0.5207740000000  0.4704360000000 1.0
C      1  0.5007010000000  0.5650660000000  0.4704360000000 1.0
C      1  0.5620990000000  0.5194400000000  0.4704360000000 1.0
C      1  0.5376780000000  0.4469480000000  0.4704360000000 1.0
C      1  0.4611880000000  0.4477720000000  0.4704360000000 1.0
C      1  0.5826040000000  0.4918420000000  0.5551930000000 1.0
C      1  0.5177680000000  0.4189180000000  0.5551930000000 1.0
C      1  0.4283770000000  0.4580460000000  0.5551930000000 1.0
C      1  0.4379670000000  0.5551530000000  0.5551930000000 1.0
C      1  0.5332840000000  0.5760400000000  0.5551930000000 1.0
C      1  0.4497770000000  0.5255170000000  0.4180520000000 1.0
C      1  0.5087480000000  0.5556500000000  0.4180520000000 1.0
C      1  0.5556290000000  0.5088770000000  0.4180520000000 1.0
C      1  0.5256330000000  0.4498360000000  0.4180520000000 1.0
C      1  0.4602120000000  0.4601200000000  0.4180520000000 1.0
END
