TITL C-862128-1543-469 19.1937079689441 125000 -744.566047237702 0 0 129 (C1) n - 1
REM
REM in /home/nfs/bkarasulu/CARBON/AIRSS/Generating-Clusters/TERSOFF/Higher-Symm/FIRE-HFTN
REM
REM
REM
REM
REM
REM ./C.cell (b20cbc046b6831c77cfcea5457e17084)
REM AIRSS Version 0.9.1 bugfix July 2018 build 013d7b7c2542+ Fri, 06 Jul 2018 19:26:36 +0100
REM compiler GCC version 9.2.1 20190827 (Red Hat 9.2.1-1)
REM options -cpp -mtune=generic -march=x86-64 -g -O0 -fpre-include=/usr/include/finclude/math-vector-fortran.h
REM seed 1364636550 1024564505 -1419714371 2029509634 -1859443747 -1990320109 1712315649 -1667177700 672782953 846135709 -69167089 1690255907 -783365837 1090516184 -356131542 1341397421 -2016957602 -325613576 2099276909 1037328702 -1479408516 783510238 -1939031681 -31586902 -1373126930 236182362 -1857535556 -1238802731 1688061603 -1276339579 -216130078 -2113772914 -1293375954
REM
CELL 1.54180   50.00000   50.00000   50.00000   90.00000   90.00000   90.00000
LATT -1
SFAC C  
C      1  0.5426140000000  0.5093800000000  0.5961600000000 1.0
C      1  0.5637990000000  0.5502210000000  0.4226800000000 1.0
C      1  0.5335770000000  0.5543980000000  0.4291960000000 1.0
C      1  0.4565600000000  0.5319050000000  0.4800590000000 1.0
C      1  0.4740130000000  0.5718320000000  0.4499540000000 1.0
C      1  0.5166990000000  0.5830200000000  0.5757200000000 1.0
C      1  0.4609550000000  0.5582850000000  0.5181130000000 1.0
C      1  0.4469090000000  0.5568870000000  0.4925600000000 1.0
C      1  0.5220820000000  0.4788180000000  0.3858390000000 1.0
C      1  0.5091240000000  0.5591510000000  0.4112240000000 1.0
C      1  0.5098040000000  0.4154980000000  0.4574580000000 1.0
C      1  0.4462770000000  0.4332870000000  0.5104270000000 1.0
C      1  0.4240230000000  0.4459770000000  0.5275670000000 1.0
C      1  0.4188450000000  0.5608530000000  0.4909500000000 1.0
C      1  0.6025450000000  0.4701180000000  0.4841380000000 1.0
C      1  0.4204620000000  0.5026570000000  0.4481150000000 1.0
C      1  0.5117400000000  0.5079390000000  0.4421870000000 1.0
C      1  0.5805480000000  0.4554400000000  0.4443820000000 1.0
C      1  0.5879570000000  0.4810900000000  0.4582200000000 1.0
C      1  0.5912840000000  0.4272310000000  0.5079560000000 1.0
C      1  0.5481430000000  0.4967990000000  0.4692950000000 1.0
C      1  0.4719340000000  0.4633940000000  0.4671240000000 1.0
C      1  0.5437960000000  0.4680970000000  0.5629070000000 1.0
C      1  0.5621600000000  0.4874630000000  0.4167770000000 1.0
C      1  0.5318990000000  0.4804040000000  0.5888610000000 1.0
C      1  0.4617680000000  0.5792150000000  0.4800730000000 1.0
C      1  0.4826690000000  0.5413410000000  0.5245010000000 1.0
C      1  0.4766740000000  0.4919540000000  0.3979330000000 1.0
C      1  0.4067090000000  0.5494470000000  0.5425800000000 1.0
C      1  0.5777640000000  0.5354840000000  0.4447530000000 1.0
C      1  0.4992550000000  0.6068190000000  0.5063600000000 1.0
C      1  0.5179020000000  0.5952010000000  0.4591570000000 1.0
C      1  0.3891160000000  0.5024440000000  0.5491740000000 1.0
C      1  0.5037080000000  0.4659320000000  0.5854220000000 1.0
C      1  0.5386240000000  0.4110410000000  0.5093210000000 1.0
C      1  0.5871280000000  0.4923330000000  0.5536570000000 1.0
C      1  0.5608000000000  0.5335390000000  0.5403520000000 1.0
C      1  0.5911900000000  0.4491460000000  0.5311740000000 1.0
C      1  0.4022010000000  0.5480410000000  0.4679950000000 1.0
C      1  0.5289380000000  0.4292560000000  0.5570270000000 1.0
C      1  0.5703270000000  0.5154720000000  0.5878810000000 1.0
C      1  0.4758840000000  0.4592860000000  0.5248760000000 1.0
C      1  0.5904620000000  0.5004740000000  0.5256700000000 1.0
C      1  0.5384310000000  0.5760710000000  0.4502300000000 1.0
C      1  0.4714990000000  0.5965110000000  0.5043210000000 1.0
C      1  0.5576880000000  0.5721130000000  0.4720590000000 1.0
C      1  0.4303380000000  0.4750590000000  0.5372520000000 1.0
C      1  0.5207860000000  0.4777090000000  0.5442490000000 1.0
C      1  0.4274240000000  0.5034260000000  0.5781960000000 1.0
C      1  0.5380990000000  0.4760130000000  0.5043340000000 1.0
C      1  0.4513300000000  0.5783060000000  0.5537180000000 1.0
C      1  0.5602770000000  0.4587070000000  0.4244030000000 1.0
C      1  0.4138300000000  0.4901140000000  0.5563190000000 1.0
C      1  0.5423780000000  0.4325910000000  0.5314240000000 1.0
C      1  0.4709520000000  0.5246720000000  0.5908740000000 1.0
C      1  0.5050760000000  0.4987390000000  0.4703980000000 1.0
C      1  0.5259930000000  0.5350100000000  0.5986130000000 1.0
C      1  0.5740690000000  0.4660320000000  0.5571830000000 1.0
C      1  0.5453290000000  0.4946360000000  0.3940890000000 1.0
C      1  0.5708490000000  0.5203230000000  0.5140300000000 1.0
C      1  0.4677380000000  0.4181400000000  0.5247620000000 1.0
C      1  0.4945560000000  0.5396950000000  0.5831700000000 1.0
C      1  0.4637950000000  0.5085220000000  0.4181580000000 1.0
C      1  0.4911010000000  0.5691610000000  0.5795870000000 1.0
C      1  0.5962550000000  0.4745620000000  0.5130100000000 1.0
C      1  0.5622620000000  0.5919640000000  0.5203450000000 1.0
C      1  0.5124950000000  0.4786000000000  0.4309780000000 1.0
C      1  0.5342920000000  0.4065800000000  0.4737760000000 1.0
C      1  0.4413270000000  0.4615590000000  0.4233840000000 1.0
C      1  0.3831030000000  0.5389350000000  0.4926870000000 1.0
C      1  0.4573820000000  0.4734490000000  0.5051960000000 1.0
C      1  0.6021730000000  0.4395470000000  0.4826160000000 1.0
C      1  0.5513670000000  0.4586890000000  0.5226840000000 1.0
C      1  0.5029370000000  0.4984940000000  0.5540260000000 1.0
C      1  0.4633450000000  0.4410100000000  0.4269630000000 1.0
C      1  0.4598410000000  0.4722610000000  0.5471020000000 1.0
C      1  0.4756660000000  0.4937390000000  0.4733590000000 1.0
C      1  0.5043830000000  0.4656430000000  0.4611610000000 1.0
C      1  0.4736780000000  0.5142690000000  0.5227370000000 1.0
C      1  0.4600950000000  0.4180360000000  0.4450740000000 1.0
C      1  0.4867520000000  0.4111900000000  0.5025210000000 1.0
C      1  0.5057220000000  0.4600820000000  0.5258250000000 1.0
C      1  0.4906270000000  0.4449540000000  0.4160750000000 1.0
C      1  0.5331820000000  0.5579450000000  0.5743220000000 1.0
C      1  0.5660090000000  0.4085740000000  0.4654970000000 1.0
C      1  0.4751130000000  0.5018030000000  0.6092460000000 1.0
C      1  0.4133910000000  0.5313050000000  0.4461900000000 1.0
C      1  0.3928170000000  0.4888420000000  0.4896780000000 1.0
C      1  0.5323410000000  0.4547460000000  0.4318680000000 1.0
C      1  0.4563400000000  0.4572440000000  0.5958260000000 1.0
C      1  0.5114710000000  0.5496810000000  0.5240410000000 1.0
C      1  0.4755010000000  0.4973620000000  0.5459700000000 1.0
C      1  0.4446980000000  0.5270870000000  0.5753090000000 1.0
C      1  0.4787820000000  0.4131990000000  0.4705290000000 1.0
C      1  0.4794390000000  0.4738930000000  0.6006880000000 1.0
C      1  0.5467210000000  0.5855010000000  0.4967980000000 1.0
C      1  0.5030810000000  0.4413250000000  0.5640940000000 1.0
C      1  0.3868930000000  0.5307250000000  0.5528340000000 1.0
C      1  0.4983240000000  0.4736100000000  0.4036600000000 1.0
C      1  0.5866530000000  0.4304300000000  0.4586550000000 1.0
C      1  0.4262290000000  0.4371560000000  0.5578840000000 1.0
C      1  0.4484370000000  0.4538920000000  0.5686830000000 1.0
C      1  0.4525280000000  0.5978500000000  0.5293320000000 1.0
C      1  0.3999270000000  0.5585560000000  0.5153450000000 1.0
C      1  0.5772870000000  0.5316600000000  0.5645840000000 1.0
C      1  0.5333600000000  0.4679000000000  0.4735790000000 1.0
C      1  0.5480920000000  0.5068070000000  0.4996380000000 1.0
C      1  0.5762700000000  0.5498990000000  0.4711980000000 1.0
C      1  0.4607100000000  0.5048430000000  0.4972180000000 1.0
C      1  0.5356350000000  0.5236870000000  0.4390080000000 1.0
C      1  0.4770560000000  0.4271320000000  0.5537110000000 1.0
C      1  0.5142550000000  0.4305820000000  0.4315710000000 1.0
C      1  0.4801270000000  0.5587470000000  0.4207690000000 1.0
C      1  0.4030300000000  0.4842370000000  0.4628740000000 1.0
C      1  0.5212530000000  0.5997730000000  0.4883800000000 1.0
C      1  0.5864310000000  0.5384170000000  0.4958690000000 1.0
C      1  0.4924240000000  0.5949240000000  0.4474390000000 1.0
C      1  0.4608350000000  0.5386200000000  0.4097730000000 1.0
C      1  0.4598100000000  0.4388420000000  0.4815400000000 1.0
C      1  0.5321910000000  0.5421070000000  0.5455310000000 1.0
C      1  0.5115190000000  0.4246470000000  0.5040800000000 1.0
C      1  0.5110070000000  0.5249550000000  0.5608090000000 1.0
C      1  0.4350630000000  0.5519250000000  0.5558610000000 1.0
C      1  0.5685290000000  0.4096390000000  0.4978660000000 1.0
C      1  0.5664290000000  0.5066060000000  0.4445650000000 1.0
C      1  0.4741490000000  0.5395990000000  0.4576680000000 1.0
C      1  0.4421220000000  0.4910980000000  0.4308030000000 1.0
C      1  0.3763590000000  0.5113370000000  0.4974360000000 1.0
C      1  0.4840690000000  0.5196090000000  0.4391140000000 1.0
END
