TITL C-862128-1543-314 3.29210313691533 125000 -1116.9714123285 0 0 186 (C1) n - 1
REM
REM in /home/nfs/bkarasulu/CARBON/AIRSS/Generating-Clusters/TERSOFF/Higher-Symm/FIRE-HFTN
REM
REM
REM
REM
REM
REM ./C.cell (b20cbc046b6831c77cfcea5457e17084)
REM AIRSS Version 0.9.1 bugfix July 2018 build 013d7b7c2542+ Fri, 06 Jul 2018 19:26:36 +0100
REM compiler GCC version 9.2.1 20190827 (Red Hat 9.2.1-1)
REM options -cpp -mtune=generic -march=x86-64 -g -O0 -fpre-include=/usr/include/finclude/math-vector-fortran.h
REM seed -2095831770 -1029731130 -30635408 -1396980274 -241518786 1119190130 -1889175194 1784635342 724612517 -1876560523 1896874126 -242801436 -7138081 395002093 -507513132 2139984471 120317681 -1376115231 555082677 -1238271932 506140038 670311558 1819564349 -1561132892 -1721502871 126431920 -1195681960 -603567411 -105619376 -854053931 88314499 -282889130 856476686
REM
CELL 1.54180   50.00000   50.00000   50.00000   90.00000   90.00000   90.00000
LATT -1
SFAC C  
C      1  0.5310880000000  0.4242320000000  0.4000240000000 1.0
C      1  0.5748450000000  0.4675590000000  0.5997450000000 1.0
C      1  0.5766490000000  0.5297460000000  0.4008280000000 1.0
C      1  0.5324020000000  0.5743170000000  0.5988320000000 1.0
C      1  0.4712570000000  0.5757330000000  0.4008140000000 1.0
C      1  0.4275720000000  0.5364440000000  0.6012570000000 1.0
C      1  0.4226270000000  0.4725040000000  0.3983150000000 1.0
C      1  0.4686940000000  0.4236620000000  0.6014710000000 1.0
C      1  0.4128590000000  0.4446850000000  0.4425830000000 1.0
C      1  0.4784170000000  0.3968800000000  0.5562870000000 1.0
C      1  0.5575420000000  0.4121780000000  0.4450060000000 1.0
C      1  0.6039840000000  0.4782310000000  0.5557770000000 1.0
C      1  0.5920500000000  0.5597110000000  0.4430550000000 1.0
C      1  0.5219640000000  0.6012820000000  0.5540270000000 1.0
C      1  0.4425060000000  0.5890780000000  0.4440410000000 1.0
C      1  0.3943120000000  0.5261010000000  0.5606370000000 1.0
C      1  0.5656930000000  0.5474000000000  0.5677760000000 1.0
C      1  0.5127740000000  0.5793300000000  0.4333580000000 1.0
C      1  0.4543690000000  0.5635520000000  0.5648180000000 1.0
C      1  0.4208180000000  0.5127460000000  0.4320810000000 1.0
C      1  0.4349130000000  0.4498640000000  0.5708220000000 1.0
C      1  0.4886140000000  0.4202940000000  0.4311600000000 1.0
C      1  0.5476620000000  0.4352580000000  0.5677170000000 1.0
C      1  0.5802280000000  0.4882970000000  0.4336990000000 1.0
C      1  0.4193130000000  0.4410210000000  0.5477470000000 1.0
C      1  0.4843760000000  0.4025710000000  0.4540760000000 1.0
C      1  0.5584170000000  0.4209870000000  0.5446980000000 1.0
C      1  0.5982580000000  0.4861830000000  0.4565380000000 1.0
C      1  0.5803410000000  0.5580350000000  0.5447960000000 1.0
C      1  0.5155840000000  0.5972660000000  0.4561200000000 1.0
C      1  0.4431620000000  0.5781490000000  0.5423560000000 1.0
C      1  0.4037800000000  0.5150600000000  0.4556040000000 1.0
C      1  0.5543740000000  0.5376110000000  0.4670730000000 1.0
C      1  0.5113940000000  0.5586200000000  0.5284090000000 1.0
C      1  0.4602230000000  0.5493080000000  0.4701350000000 1.0
C      1  0.4310880000000  0.5038500000000  0.5337720000000 1.0
C      1  0.4511880000000  0.4622720000000  0.4678710000000 1.0
C      1  0.4891530000000  0.4391900000000  0.5318860000000 1.0
C      1  0.5344390000000  0.4493860000000  0.4700990000000 1.0
C      1  0.5617140000000  0.4891560000000  0.5309650000000 1.0
C      1  0.4850120000000  0.4006430000000  0.5032650000000 1.0
C      1  0.5587160000000  0.4206580000000  0.4980530000000 1.0
C      1  0.5998080000000  0.4855390000000  0.5022940000000 1.0
C      1  0.5836740000000  0.5614970000000  0.4971720000000 1.0
C      1  0.5148750000000  0.5981300000000  0.5013430000000 1.0
C      1  0.4392020000000  0.5813140000000  0.4974570000000 1.0
C      1  0.3869840000000  0.5186600000000  0.5072410000000 1.0
C      1  0.4034450000000  0.4309250000000  0.4889220000000 1.0
C      1  0.5981080000000  0.4332780000000  0.5048270000000 1.0
C      1  0.6187640000000  0.5224200000000  0.4958390000000 1.0
C      1  0.5676800000000  0.5995790000000  0.5044110000000 1.0
C      1  0.4779590000000  0.6171980000000  0.4955090000000 1.0
C      1  0.3997740000000  0.5687720000000  0.5043560000000 1.0
C      1  0.3857580000000  0.4784700000000  0.4953510000000 1.0
C      1  0.4339950000000  0.4063550000000  0.5038560000000 1.0
C      1  0.5223220000000  0.3831610000000  0.4955790000000 1.0
C      1  0.4752920000000  0.5133790000000  0.5193140000000 1.0
C      1  0.4795160000000  0.4973550000000  0.4807370000000 1.0
C      1  0.4867210000000  0.4864080000000  0.5256530000000 1.0
C      1  0.5030800000000  0.4809000000000  0.4752130000000 1.0
C      1  0.5153820000000  0.4917090000000  0.5192740000000 1.0
C      1  0.5278230000000  0.4980350000000  0.4788160000000 1.0
C      1  0.5168910000000  0.5154330000000  0.5019490000000 1.0
C      1  0.4891780000000  0.5205700000000  0.4956870000000 1.0
C      1  0.4035700000000  0.4878980000000  0.4702720000000 1.0
C      1  0.4379420000000  0.4215400000000  0.5319560000000 1.0
C      1  0.5118320000000  0.3996580000000  0.4686900000000 1.0
C      1  0.5801230000000  0.4381460000000  0.5316610000000 1.0
C      1  0.6029950000000  0.5142290000000  0.4682880000000 1.0
C      1  0.5624120000000  0.5784230000000  0.5302990000000 1.0
C      1  0.4878390000000  0.5994230000000  0.4692340000000 1.0
C      1  0.4202780000000  0.5613590000000  0.5304930000000 1.0
C      1  0.4526160000000  0.4862380000000  0.4846640000000 1.0
C      1  0.4740170000000  0.4608790000000  0.5183490000000 1.0
C      1  0.5061920000000  0.4519570000000  0.4815730000000 1.0
C      1  0.5389640000000  0.4740360000000  0.5184990000000 1.0
C      1  0.5535470000000  0.5115650000000  0.4813220000000 1.0
C      1  0.5283030000000  0.5404830000000  0.5105760000000 1.0
C      1  0.4830660000000  0.5462790000000  0.4878290000000 1.0
C      1  0.4482980000000  0.5190850000000  0.5163680000000 1.0
C      1  0.5306700000000  0.4136890000000  0.5034550000000 1.0
C      1  0.5831360000000  0.4613400000000  0.4968320000000 1.0
C      1  0.5896100000000  0.5330730000000  0.5033240000000 1.0
C      1  0.5405950000000  0.5848870000000  0.4950600000000 1.0
C      1  0.4671390000000  0.5879940000000  0.5038780000000 1.0
C      1  0.4070370000000  0.5386650000000  0.4978030000000 1.0
C      1  0.4097150000000  0.4591050000000  0.5001900000000 1.0
C      1  0.4620730000000  0.4176300000000  0.4978350000000 1.0
C      1  0.4570680000000  0.3893740000000  0.4586500000000 1.0
C      1  0.5518880000000  0.3920260000000  0.5397340000000 1.0
C      1  0.6138090000000  0.4608880000000  0.4617220000000 1.0
C      1  0.6095800000000  0.5514890000000  0.5401460000000 1.0
C      1  0.5408350000000  0.6139270000000  0.4601520000000 1.0
C      1  0.4491360000000  0.6076930000000  0.5387340000000 1.0
C      1  0.3873220000000  0.5402680000000  0.4607530000000 1.0
C      1  0.3914820000000  0.4537470000000  0.5425100000000 1.0
C      1  0.4963330000000  0.3920120000000  0.5302950000000 1.0
C      1  0.5735920000000  0.4217010000000  0.4709500000000 1.0
C      1  0.6094980000000  0.4961850000000  0.5297050000000 1.0
C      1  0.5825130000000  0.5760280000000  0.4697760000000 1.0
C      1  0.5047720000000  0.6079490000000  0.5287510000000 1.0
C      1  0.4253960000000  0.5811920000000  0.4700350000000 1.0
C      1  0.3817040000000  0.5085610000000  0.5371630000000 1.0
C      1  0.4107020000000  0.4201840000000  0.4600550000000 1.0
C      1  0.5166520000000  0.5534320000000  0.6129880000000 1.0
C      1  0.4749740000000  0.5497960000000  0.3867200000000 1.0
C      1  0.4480040000000  0.5199210000000  0.6151220000000 1.0
C      1  0.4488980000000  0.4755980000000  0.3840760000000 1.0
C      1  0.4838640000000  0.4452610000000  0.6159520000000 1.0
C      1  0.5272460000000  0.4499840000000  0.3851990000000 1.0
C      1  0.5539890000000  0.4831140000000  0.6145470000000 1.0
C      1  0.5507700000000  0.5259000000000  0.3862820000000 1.0
C      1  0.5184010000000  0.5320540000000  0.5703140000000 1.0
C      1  0.4895610000000  0.5355900000000  0.4299410000000 1.0
C      1  0.4653860000000  0.5157350000000  0.5707640000000 1.0
C      1  0.4636630000000  0.4880410000000  0.4273390000000 1.0
C      1  0.4818720000000  0.4654050000000  0.5734940000000 1.0
C      1  0.5124410000000  0.4634290000000  0.4278780000000 1.0
C      1  0.5340060000000  0.4824020000000  0.5717890000000 1.0
C      1  0.5366920000000  0.5109990000000  0.4289490000000 1.0
C      1  0.5293970000000  0.5121190000000  0.4008850000000 1.0
C      1  0.5110640000000  0.5289340000000  0.5982250000000 1.0
C      1  0.4881490000000  0.5284480000000  0.4016380000000 1.0
C      1  0.4708990000000  0.5114220000000  0.5991740000000 1.0
C      1  0.4711660000000  0.4870260000000  0.3995030000000 1.0
C      1  0.4890860000000  0.4700650000000  0.6009610000000 1.0
C      1  0.5143710000000  0.4715940000000  0.4002300000000 1.0
C      1  0.5294970000000  0.4889700000000  0.5996100000000 1.0
C      1  0.4669250000000  0.4647040000000  0.4432550000000 1.0
C      1  0.5001220000000  0.4510560000000  0.5568290000000 1.0
C      1  0.5354290000000  0.4651750000000  0.4444970000000 1.0
C      1  0.5506570000000  0.4998080000000  0.5564260000000 1.0
C      1  0.5360760000000  0.5352260000000  0.4437880000000 1.0
C      1  0.5003230000000  0.5446480000000  0.5525180000000 1.0
C      1  0.4653490000000  0.5328290000000  0.4455270000000 1.0
C      1  0.4482270000000  0.4965490000000  0.5575420000000 1.0
C      1  0.5089430000000  0.4349770000000  0.5066120000000 1.0
C      1  0.5520600000000  0.4619160000000  0.4941500000000 1.0
C      1  0.5677420000000  0.5122010000000  0.5068880000000 1.0
C      1  0.5426550000000  0.5552040000000  0.4908190000000 1.0
C      1  0.4878350000000  0.5665290000000  0.5070360000000 1.0
C      1  0.4372800000000  0.5337390000000  0.4933090000000 1.0
C      1  0.4334270000000  0.4807150000000  0.5080020000000 1.0
C      1  0.4642360000000  0.4467840000000  0.4931330000000 1.0
C      1  0.5453100000000  0.5273460000000  0.5620210000000 1.0
C      1  0.5121700000000  0.5508370000000  0.4394160000000 1.0
C      1  0.4721290000000  0.5410980000000  0.5586970000000 1.0
C      1  0.4492620000000  0.5106370000000  0.4373920000000 1.0
C      1  0.4548350000000  0.4698050000000  0.5650960000000 1.0
C      1  0.4897230000000  0.4487960000000  0.4367770000000 1.0
C      1  0.5279940000000  0.4561190000000  0.5622410000000 1.0
C      1  0.5514850000000  0.4886380000000  0.4391020000000 1.0
C      1  0.5812430000000  0.4669770000000  0.5402200000000 1.0
C      1  0.5838170000000  0.5355970000000  0.4585830000000 1.0
C      1  0.5331380000000  0.5786280000000  0.5386980000000 1.0
C      1  0.4660710000000  0.5797140000000  0.4597870000000 1.0
C      1  0.4161020000000  0.5322250000000  0.5416830000000 1.0
C      1  0.4220640000000  0.4658560000000  0.4595950000000 1.0
C      1  0.4668980000000  0.4199690000000  0.5409920000000 1.0
C      1  0.5330180000000  0.4197280000000  0.4603800000000 1.0
C      1  0.5897910000000  0.5047170000000  0.4105670000000 1.0
C      1  0.5598110000000  0.5661840000000  0.5902170000000 1.0
C      1  0.4963040000000  0.5888270000000  0.4103510000000 1.0
C      1  0.4377500000000  0.5617730000000  0.5894670000000 1.0
C      1  0.4106400000000  0.4977020000000  0.4086340000000 1.0
C      1  0.4411340000000  0.4307540000000  0.5926240000000 1.0
C      1  0.5060840000000  0.4106530000000  0.4090330000000 1.0
C      1  0.5664390000000  0.4404210000000  0.5904170000000 1.0
C      1  0.3973320000000  0.5685990000000  0.4701390000000 1.0
C      1  0.3846570000000  0.4794570000000  0.5269840000000 1.0
C      1  0.4326810000000  0.4018730000000  0.4723680000000 1.0
C      1  0.5254170000000  0.3807930000000  0.5289330000000 1.0
C      1  0.6024700000000  0.4339160000000  0.4716860000000 1.0
C      1  0.6213650000000  0.5249390000000  0.5294560000000 1.0
C      1  0.5686450000000  0.6041920000000  0.4706330000000 1.0
C      1  0.4760580000000  0.6202210000000  0.5291320000000 1.0
C      1  0.4028520000000  0.5236620000000  0.5895210000000 1.0
C      1  0.4160430000000  0.4468700000000  0.4129630000000 1.0
C      1  0.4834530000000  0.4027450000000  0.5854610000000 1.0
C      1  0.5565260000000  0.4193780000000  0.4156800000000 1.0
C      1  0.5972880000000  0.4819190000000  0.5851810000000 1.0
C      1  0.5834350000000  0.5563460000000  0.4139380000000 1.0
C      1  0.5181950000000  0.5959830000000  0.5834090000000 1.0
C      1  0.4451450000000  0.5820240000000  0.4146830000000 1.0
C      1  0.5002970000000  0.4998090000000  0.3893880000000 1.0
C      1  0.5001570000000  0.4999520000000  0.6105750000000 1.0
END
