TITL C-862500-986-1141 0.573564007055451 125000 -738.132565349809 0 0 132 (C2) n - 1
REM
REM in /home/nfs/bkarasulu/CARBON/AIRSS/Generating-Clusters/TERSOFF/Higher-Symm/FIRE-HFTN
REM
REM
REM
REM
REM
REM ./C.cell (b20cbc046b6831c77cfcea5457e17084)
REM AIRSS Version 0.9.1 bugfix July 2018 build 013d7b7c2542+ Fri, 06 Jul 2018 19:26:36 +0100
REM compiler GCC version 9.2.1 20190827 (Red Hat 9.2.1-1)
REM options -cpp -mtune=generic -march=x86-64 -g -O0 -fpre-include=/usr/include/finclude/math-vector-fortran.h
REM seed 512204952 -1674882773 1793368664 -1318810243 -679274729 -1288846434 -409650750 492878736 1452702901 1816359022 36265960 -1059815962 1798135657 -461378438 -1876529036 -1684939439 268861989 -1395537369 1106472792 1892826817 39888291 1307455862 727334424 -2118036375 181011498 -1584273070 -444700655 -682634898 1473547208 -2035068163 1982691012 1248389803 -462364282
REM
CELL 1.54180   50.00000   50.00000   50.00000   90.00000   90.00000   90.00000
LATT -1
SFAC C  
C      1  0.4654800000000  0.5855670000000  0.5548250000000 1.0
C      1  0.4654810000000  0.4144330000000  0.4451750000000 1.0
C      1  0.6168290000000  0.4879220000000  0.4648490000000 1.0
C      1  0.6168290000000  0.5120780000000  0.5351510000000 1.0
C      1  0.3963940000000  0.5491750000000  0.5013560000000 1.0
C      1  0.3963940000000  0.4508240000000  0.4986440000000 1.0
C      1  0.5331270000000  0.5901170000000  0.4602160000000 1.0
C      1  0.5331270000000  0.4098830000000  0.5397840000000 1.0
C      1  0.4749590000000  0.4174630000000  0.5379770000000 1.0
C      1  0.4749590000000  0.5825370000000  0.4620230000000 1.0
C      1  0.4665780000000  0.4205440000000  0.5103060000000 1.0
C      1  0.4665770000000  0.5794560000000  0.4896940000000 1.0
C      1  0.4166770000000  0.4468410000000  0.4791220000000 1.0
C      1  0.4166770000000  0.5531590000000  0.5208780000000 1.0
C      1  0.4733120000000  0.5458090000000  0.5272020000000 1.0
C      1  0.4733120000000  0.4541910000000  0.4727980000000 1.0
C      1  0.4325780000000  0.5562060000000  0.5709330000000 1.0
C      1  0.4325780000000  0.4437940000000  0.4290670000000 1.0
C      1  0.5379040000000  0.5295130000000  0.5549970000000 1.0
C      1  0.5379040000000  0.4704870000000  0.4450030000000 1.0
C      1  0.5094680000000  0.4653810000000  0.5126010000000 1.0
C      1  0.5094680000000  0.5346190000000  0.4873990000000 1.0
C      1  0.4207700000000  0.4308110000000  0.5263790000000 1.0
C      1  0.4207700000000  0.5691890000000  0.4736210000000 1.0
C      1  0.4147450000000  0.5091170000000  0.5372120000000 1.0
C      1  0.4147450000000  0.4908830000000  0.4627880000000 1.0
C      1  0.4932770000000  0.5590040000000  0.5737000000000 1.0
C      1  0.4932780000000  0.4409960000000  0.4263000000000 1.0
C      1  0.4532920000000  0.4992820000000  0.4287850000000 1.0
C      1  0.4532920000000  0.5007180000000  0.5712150000000 1.0
C      1  0.4366250000000  0.5813530000000  0.5522080000000 1.0
C      1  0.4366250000000  0.4186470000000  0.4477920000000 1.0
C      1  0.5713330000000  0.5394500000000  0.5077870000000 1.0
C      1  0.5713330000000  0.4605510000000  0.4922130000000 1.0
C      1  0.5227090000000  0.5472210000000  0.5096270000000 1.0
C      1  0.5227090000000  0.4527790000000  0.4903730000000 1.0
C      1  0.5366820000000  0.5436540000000  0.4227400000000 1.0
C      1  0.5366820000000  0.4563460000000  0.5772600000000 1.0
C      1  0.5151500000000  0.4093370000000  0.5154650000000 1.0
C      1  0.5151500000000  0.5906630000000  0.4845350000000 1.0
C      1  0.5620630000000  0.5592710000000  0.4841410000000 1.0
C      1  0.5620630000000  0.4407290000000  0.5158590000000 1.0
C      1  0.5124800000000  0.5476260000000  0.4622610000000 1.0
C      1  0.5124810000000  0.4523740000000  0.5377390000000 1.0
C      1  0.5443780000000  0.5326870000000  0.5234600000000 1.0
C      1  0.5443780000000  0.4673130000000  0.4765400000000 1.0
C      1  0.5785070000000  0.4159190000000  0.5176890000000 1.0
C      1  0.5785070000000  0.5840810000000  0.4823110000000 1.0
C      1  0.5212400000000  0.5769450000000  0.5111320000000 1.0
C      1  0.5212400000000  0.4230550000000  0.4888680000000 1.0
C      1  0.4711650000000  0.5551890000000  0.5544200000000 1.0
C      1  0.4711650000000  0.4448110000000  0.4455800000000 1.0
C      1  0.4705720000000  0.5617320000000  0.4422570000000 1.0
C      1  0.4705720000000  0.4382680000000  0.5577430000000 1.0
C      1  0.5512920000000  0.4904360000000  0.4247660000000 1.0
C      1  0.5512920000000  0.5095640000000  0.5752340000000 1.0
C      1  0.4883380000000  0.4626300000000  0.4027250000000 1.0
C      1  0.4883370000000  0.5373700000000  0.5972750000000 1.0
C      1  0.5402580000000  0.5568090000000  0.5649310000000 1.0
C      1  0.5402580000000  0.4431910000000  0.4350690000000 1.0
C      1  0.4262800000000  0.4602960000000  0.5410480000000 1.0
C      1  0.4262800000000  0.5397040000000  0.4589520000000 1.0
C      1  0.5604700000000  0.6001370000000  0.4649450000000 1.0
C      1  0.5604700000000  0.3998630000000  0.5350550000000 1.0
C      1  0.5253420000000  0.5753850000000  0.4334990000000 1.0
C      1  0.5253420000000  0.4246150000000  0.5665010000000 1.0
C      1  0.5782740000000  0.4672970000000  0.5440300000000 1.0
C      1  0.5782740000000  0.5327030000000  0.4559700000000 1.0
C      1  0.4826850000000  0.4385240000000  0.4945800000000 1.0
C      1  0.4826850000000  0.5614760000000  0.5054200000000 1.0
C      1  0.5173490000000  0.5730720000000  0.5633850000000 1.0
C      1  0.5173490000000  0.4269280000000  0.4366150000000 1.0
C      1  0.5145520000000  0.5117620000000  0.4386430000000 1.0
C      1  0.5145520000000  0.4882380000000  0.5613570000000 1.0
C      1  0.5264750000000  0.4886190000000  0.5911250000000 1.0
C      1  0.5264750000000  0.5113810000000  0.4088750000000 1.0
C      1  0.4575150000000  0.5045950000000  0.5296150000000 1.0
C      1  0.4575150000000  0.4954050000000  0.4703850000000 1.0
C      1  0.4264460000000  0.5799410000000  0.5242310000000 1.0
C      1  0.4264460000000  0.4200580000000  0.4757690000000 1.0
C      1  0.5469610000000  0.5482480000000  0.4571580000000 1.0
C      1  0.5469610000000  0.4517520000000  0.5428420000000 1.0
C      1  0.6074640000000  0.4948130000000  0.5132060000000 1.0
C      1  0.6074640000000  0.5051870000000  0.4867940000000 1.0
C      1  0.4472530000000  0.5228160000000  0.4771250000000 1.0
C      1  0.4472540000000  0.4771840000000  0.5228750000000 1.0
C      1  0.6135170000000  0.4586860000000  0.4640210000000 1.0
C      1  0.6135170000000  0.5413150000000  0.5359790000000 1.0
C      1  0.4006450000000  0.5326890000000  0.4787940000000 1.0
C      1  0.4006450000000  0.4673110000000  0.5212060000000 1.0
C      1  0.4345740000000  0.4701520000000  0.4699320000000 1.0
C      1  0.4345740000000  0.5298480000000  0.5300680000000 1.0
C      1  0.5711690000000  0.5067130000000  0.4407330000000 1.0
C      1  0.5711690000000  0.4932880000000  0.5592670000000 1.0
C      1  0.5185140000000  0.4766280000000  0.4025700000000 1.0
C      1  0.5185140000000  0.5233720000000  0.5974300000000 1.0
C      1  0.4273040000000  0.4906700000000  0.5572820000000 1.0
C      1  0.4273040000000  0.5093290000000  0.4427180000000 1.0
C      1  0.5951550000000  0.5822020000000  0.5081440000000 1.0
C      1  0.5951550000000  0.4177980000000  0.4918560000000 1.0
C      1  0.3997530000000  0.4955180000000  0.5149700000000 1.0
C      1  0.3997530000000  0.5044810000000  0.4850300000000 1.0
C      1  0.4825360000000  0.4878780000000  0.3841330000000 1.0
C      1  0.4825360000000  0.5121220000000  0.6158670000000 1.0
C      1  0.5396680000000  0.5164780000000  0.4554220000000 1.0
C      1  0.5396680000000  0.4835220000000  0.5445780000000 1.0
C      1  0.4852850000000  0.6008280000000  0.5394610000000 1.0
C      1  0.4852850000000  0.3991720000000  0.4605390000000 1.0
C      1  0.4877350000000  0.5067160000000  0.5321880000000 1.0
C      1  0.4877350000000  0.4932840000000  0.4678120000000 1.0
C      1  0.4378670000000  0.5810190000000  0.4951050000000 1.0
C      1  0.4378670000000  0.4189810000000  0.5048950000000 1.0
C      1  0.5027330000000  0.5065290000000  0.4880460000000 1.0
C      1  0.5027330000000  0.4934710000000  0.5119540000000 1.0
C      1  0.5044640000000  0.5166310000000  0.5554730000000 1.0
C      1  0.5044640000000  0.4833690000000  0.4445270000000 1.0
C      1  0.5921170000000  0.5557630000000  0.5223050000000 1.0
C      1  0.5921170000000  0.4442380000000  0.4776950000000 1.0
C      1  0.5123050000000  0.4110020000000  0.4623690000000 1.0
C      1  0.5123050000000  0.5889990000000  0.5376310000000 1.0
C      1  0.4760100000000  0.5188410000000  0.4206790000000 1.0
C      1  0.4760100000000  0.4811590000000  0.5793210000000 1.0
C      1  0.4932770000000  0.5114320000000  0.3982060000000 1.0
C      1  0.4932770000000  0.4885680000000  0.6017940000000 1.0
C      1  0.5877610000000  0.5261050000000  0.4827270000000 1.0
C      1  0.5877610000000  0.4738950000000  0.5172730000000 1.0
C      1  0.4581330000000  0.4676170000000  0.4228010000000 1.0
C      1  0.4581330000000  0.5323830000000  0.5771990000000 1.0
C      1  0.4430080000000  0.5544920000000  0.4375630000000 1.0
C      1  0.4430080000000  0.4455080000000  0.5624370000000 1.0
C      1  0.4912230000000  0.5386790000000  0.4405270000000 1.0
C      1  0.4912230000000  0.4613210000000  0.5594730000000 1.0
END
