TITL C-862501-1041-1478 0.000760572608154168 125000 -578.047063470878 0 0 99 (C3) n - 1
REM
REM in /home/nfs/bkarasulu/CARBON/AIRSS/Generating-Clusters/TERSOFF/Higher-Symm/FIRE-HFTN
REM
REM
REM
REM
REM
REM ./C.cell (b20cbc046b6831c77cfcea5457e17084)
REM AIRSS Version 0.9.1 bugfix July 2018 build 013d7b7c2542+ Fri, 06 Jul 2018 19:26:36 +0100
REM compiler GCC version 9.2.1 20190827 (Red Hat 9.2.1-1)
REM options -cpp -mtune=generic -march=x86-64 -g -O0 -fpre-include=/usr/include/finclude/math-vector-fortran.h
REM seed 2088134032 2123762478 1048305884 1963269627 -798309566 -330620088 -531161455 1930020553 608789145 1485618775 -435150441 921589451 -758598158 89129510 539377729 -1168003213 1559180764 1408884232 2015906920 1922818757 -1224150076 547704545 797525250 -760168282 1391326144 1672334403 704439307 -1502921090 1806741228 1058627031 -51476657 315811053 -280043492
REM
CELL 1.54180   50.00000   50.00000   50.00000   90.00000   90.00000   90.00000
LATT -1
SFAC C  
C      1  0.4964020000000  0.4099280000000  0.5368650000000 1.0
C      1  0.4964020000000  0.5131100000000  0.4035630000000 1.0
C      1  0.4964020000000  0.5769620000000  0.5595720000000 1.0
C      1  0.4273460000000  0.4359640000000  0.5215670000000 1.0
C      1  0.4273470000000  0.5133400000000  0.4337590000000 1.0
C      1  0.4273460000000  0.5506960000000  0.5446730000000 1.0
C      1  0.4922550000000  0.4699840000000  0.5485910000000 1.0
C      1  0.4922550000000  0.4729270000000  0.4497090000000 1.0
C      1  0.4922550000000  0.5570890000000  0.5017000000000 1.0
C      1  0.4602530000000  0.4721400000000  0.5214850000000 1.0
C      1  0.4602530000000  0.4953240000000  0.4651300000000 1.0
C      1  0.4602530000000  0.5325370000000  0.5133850000000 1.0
C      1  0.4264200000000  0.4819150000000  0.5442450000000 1.0
C      1  0.4264200000000  0.4707250000000  0.4622150000000 1.0
C      1  0.4264200000000  0.5473600000000  0.4935390000000 1.0
C      1  0.5551520000000  0.5658370000000  0.4816950000000 1.0
C      1  0.5551520000000  0.4829340000000  0.5661690000000 1.0
C      1  0.5551520000000  0.4512290000000  0.4521360000000 1.0
C      1  0.5924430000000  0.4975050000000  0.4714210000000 1.0
C      1  0.5924430000000  0.5259980000000  0.5121290000000 1.0
C      1  0.5924430000000  0.4764970000000  0.5164500000000 1.0
C      1  0.5319790000000  0.4345080000000  0.4482050000000 1.0
C      1  0.5319790000000  0.5776020000000  0.4691800000000 1.0
C      1  0.5319790000000  0.4878900000000  0.5826150000000 1.0
C      1  0.5043430000000  0.4373980000000  0.4920920000000 1.0
C      1  0.5043440000000  0.5381490000000  0.4497390000000 1.0
C      1  0.5043430000000  0.5244530000000  0.5581690000000 1.0
C      1  0.5683080000000  0.5425530000000  0.4685970000000 1.0
C      1  0.5683080000000  0.5059200000000  0.5525540000000 1.0
C      1  0.5683080000000  0.4515270000000  0.4788500000000 1.0
C      1  0.5248670000000  0.5691630000000  0.5540880000000 1.0
C      1  0.5248660000000  0.4185770000000  0.5328530000000 1.0
C      1  0.5248670000000  0.5122600000000  0.4130590000000 1.0
C      1  0.4881890000000  0.4145590000000  0.4801930000000 1.0
C      1  0.4881890000000  0.5598740000000  0.4359100000000 1.0
C      1  0.4881890000000  0.5255670000000  0.5838980000000 1.0
C      1  0.5292940000000  0.4297230000000  0.5057960000000 1.0
C      1  0.5292940000000  0.5301190000000  0.4362400000000 1.0
C      1  0.5292940000000  0.5401580000000  0.5579630000000 1.0
C      1  0.4448930000000  0.4617070000000  0.4402230000000 1.0
C      1  0.4448930000000  0.5709150000000  0.4967250000000 1.0
C      1  0.4448930000000  0.4673780000000  0.5630520000000 1.0
C      1  0.4611720000000  0.5184650000000  0.5526910000000 1.0
C      1  0.4611720000000  0.4451360000000  0.4896460000000 1.0
C      1  0.4611720000000  0.5363990000000  0.4576630000000 1.0
C      1  0.5055130000000  0.5799720000000  0.4824950000000 1.0
C      1  0.5055130000000  0.4751740000000  0.5780100000000 1.0
C      1  0.5055130000000  0.4448540000000  0.4394950000000 1.0
C      1  0.5098810000000  0.4420950000000  0.5744950000000 1.0
C      1  0.5098810000000  0.4644380000000  0.4126050000000 1.0
C      1  0.5098810000000  0.5934670000000  0.5129000000000 1.0
C      1  0.5000990000000  0.4863700000000  0.4746890000000 1.0
C      1  0.5000990000000  0.5287360000000  0.5008520000000 1.0
C      1  0.5000990000000  0.4848950000000  0.5244600000000 1.0
C      1  0.4246080000000  0.4672610000000  0.5159490000000 1.0
C      1  0.4246080000000  0.5025570000000  0.4636730000000 1.0
C      1  0.4246080000000  0.5301820000000  0.5203780000000 1.0
C      1  0.4665380000000  0.4506530000000  0.5467670000000 1.0
C      1  0.4665380000000  0.4841710000000  0.4338810000000 1.0
C      1  0.4665380000000  0.5651750000000  0.5193520000000 1.0
C      1  0.5300790000000  0.5196220000000  0.5029170000000 1.0
C      1  0.5300790000000  0.4876630000000  0.5155340000000 1.0
C      1  0.5300790000000  0.4927160000000  0.4815490000000 1.0
C      1  0.4349740000000  0.5317200000000  0.4707380000000 1.0
C      1  0.4349740000000  0.5094810000000  0.5421010000000 1.0
C      1  0.4349740000000  0.4587980000000  0.4871600000000 1.0
C      1  0.5505630000000  0.4673770000000  0.5221930000000 1.0
C      1  0.5505630000000  0.4970920000000  0.4606510000000 1.0
C      1  0.5505630000000  0.5355310000000  0.5171560000000 1.0
C      1  0.5343060000000  0.4362500000000  0.5566170000000 1.0
C      1  0.5343060000000  0.4828430000000  0.4164820000000 1.0
C      1  0.5343060000000  0.5809070000000  0.5269010000000 1.0
C      1  0.4775960000000  0.5353090000000  0.4143790000000 1.0
C      1  0.4775960000000  0.5564950000000  0.5733880000000 1.0
C      1  0.4775960000000  0.4081960000000  0.5122320000000 1.0
C      1  0.5524850000000  0.4774190000000  0.4399090000000 1.0
C      1  0.5524840000000  0.5633310000000  0.5104900000000 1.0
C      1  0.5524840000000  0.4592500000000  0.5496010000000 1.0
C      1  0.4866410000000  0.4290160000000  0.5588900000000 1.0
C      1  0.4866410000000  0.4844920000000  0.4090810000000 1.0
C      1  0.4866410000000  0.5864930000000  0.5320290000000 1.0
C      1  0.5524900000000  0.5241300000000  0.4522240000000 1.0
C      1  0.5524900000000  0.5293100000000  0.5447850000000 1.0
C      1  0.5524900000000  0.4465600000000  0.5029910000000 1.0
C      1  0.5885470000000  0.5248110000000  0.4828570000000 1.0
C      1  0.5885470000000  0.5024410000000  0.5300580000000 1.0
C      1  0.5885470000000  0.4727490000000  0.4870850000000 1.0
C      1  0.4874550000000  0.5143620000000  0.5291110000000 1.0
C      1  0.4874550000000  0.4676090000000  0.4978820000000 1.0
C      1  0.4874550000000  0.5180300000000  0.4730070000000 1.0
C      1  0.4575100000000  0.5189900000000  0.4305760000000 1.0
C      1  0.4575100000000  0.5506280000000  0.5511570000000 1.0
C      1  0.4575100000000  0.4303820000000  0.5182670000000 1.0
C      1  0.4551030000000  0.4339810000000  0.4420230000000 1.0
C      1  0.4551030000000  0.5832190000000  0.4718140000000 1.0
C      1  0.4551030000000  0.4828000000000  0.5861620000000 1.0
C      1  0.4822970000000  0.5790560000000  0.4613680000000 1.0
C      1  0.4822970000000  0.4939280000000  0.5877810000000 1.0
C      1  0.4822970000000  0.4270160000000  0.4508510000000 1.0
END
