TITL C-862500-986-22 815034.042889981 125000 -867.594467342862 0 0 147 (C2) n - 1
REM
REM in /home/nfs/bkarasulu/CARBON/AIRSS/Generating-Clusters/TERSOFF/Higher-Symm/FIRE-HFTN
REM
REM
REM
REM
REM
REM ./C.cell (b20cbc046b6831c77cfcea5457e17084)
REM AIRSS Version 0.9.1 bugfix July 2018 build 013d7b7c2542+ Fri, 06 Jul 2018 19:26:36 +0100
REM compiler GCC version 9.2.1 20190827 (Red Hat 9.2.1-1)
REM options -cpp -mtune=generic -march=x86-64 -g -O0 -fpre-include=/usr/include/finclude/math-vector-fortran.h
REM seed 1635112207 -1933006805 1215458030 -13007172 1673968166 915085219 792187449 -403231347 788832025 830257286 -1648046539 1753824158 288466362 -632951298 1755173389 638535496 -1272848750 -1270184903 -71835068 -2138926797 -105202588 1006474531 1760749526 70950631 1565977273 1555342903 1048635404 -1556525532 105164446 797788884 -1963242183 1364842986 1635676078
REM
CELL 1.54180   50.00000   50.00000   50.00000   90.00000   90.00000   90.00000
LATT -1
SFAC C  
C      1  0.5603030000000  0.4919130000000  0.5099520000000 1.0
C      1  0.4403340000000  0.4919060000000  0.4899890000000 1.0
C      1  0.5807720000000  0.5126470000000  0.5138370000000 1.0
C      1  0.4198710000000  0.5126440000000  0.4860850000000 1.0
C      1  0.4877630000000  0.5369830000000  0.3992640000000 1.0
C      1  0.5128640000000  0.5369810000000  0.6006670000000 1.0
C      1  0.5587460000000  0.4052680000000  0.4811010000000 1.0
C      1  0.4418960000000  0.4052600000000  0.5188270000000 1.0
C      1  0.4946500000000  0.3988440000000  0.4451670000000 1.0
C      1  0.5059920000000  0.3988410000000  0.5547630000000 1.0
C      1  0.6047800000000  0.5587690000000  0.5724800000000 1.0
C      1  0.3959680000000  0.5588070000000  0.4274410000000 1.0
C      1  0.5199110000000  0.5712480000000  0.5151010000000 1.0
C      1  0.4807120000000  0.5712470000000  0.4848330000000 1.0
C      1  0.5975410000000  0.5523070000000  0.5445110000000 1.0
C      1  0.4032620000000  0.5523640000000  0.4554010000000 1.0
C      1  0.4395610000000  0.4240820000000  0.4701130000000 1.0
C      1  0.5610780000000  0.4240860000000  0.5298160000000 1.0
C      1  0.4726250000000  0.4422120000000  0.5293630000000 1.0
C      1  0.5280130000000  0.4422170000000  0.4705680000000 1.0
C      1  0.4874280000000  0.3816020000000  0.4932320000000 1.0
C      1  0.5132180000000  0.3815990000000  0.5066980000000 1.0
C      1  0.4281880000000  0.4905710000000  0.4183670000000 1.0
C      1  0.5724440000000  0.4905780000000  0.5815610000000 1.0
C      1  0.5247680000000  0.4031480000000  0.4414530000000 1.0
C      1  0.4758740000000  0.4031420000000  0.5584760000000 1.0
C      1  0.5609810000000  0.5576270000000  0.4252380000000 1.0
C      1  0.4396410000000  0.5576150000000  0.5746920000000 1.0
C      1  0.4744660000000  0.4782460000000  0.3950510000000 1.0
C      1  0.5261690000000  0.4782460000000  0.6048800000000 1.0
C      1  0.5447420000000  0.5067840000000  0.5544710000000 1.0
C      1  0.4558860000000  0.5067830000000  0.4454590000000 1.0
C      1  0.5800510000000  0.4450780000000  0.5218510000000 1.0
C      1  0.4205850000000  0.4450720000000  0.4780790000000 1.0
C      1  0.5259600000000  0.4253240000000  0.4198970000000 1.0
C      1  0.4746790000000  0.4253170000000  0.5800330000000 1.0
C      1  0.4071890000000  0.5216030000000  0.5349300000000 1.0
C      1  0.5934400000000  0.5216210000000  0.4649950000000 1.0
C      1  0.5298840000000  0.5739110000000  0.5591030000000 1.0
C      1  0.4707380000000  0.5739120000000  0.4408280000000 1.0
C      1  0.4641250000000  0.5252950000000  0.4154140000000 1.0
C      1  0.5365020000000  0.5252950000000  0.5845150000000 1.0
C      1  0.5825230000000  0.5312110000000  0.4909730000000 1.0
C      1  0.4181050000000  0.5312030000000  0.5089550000000 1.0
C      1  0.5074740000000  0.4542140000000  0.4533220000000 1.0
C      1  0.4931620000000  0.4542100000000  0.5466100000000 1.0
C      1  0.4876620000000  0.6170000000000  0.4637020000000 1.0
C      1  0.5129540000000  0.6170000000000  0.5362340000000 1.0
C      1  0.4885720000000  0.5208210000000  0.4782480000000 1.0
C      1  0.5120500000000  0.5208220000000  0.5216820000000 1.0
C      1  0.5058650000000  0.5637350000000  0.4710970000000 1.0
C      1  0.4947560000000  0.5637350000000  0.5288350000000 1.0
C      1  0.4637200000000  0.4992590000000  0.5334380000000 1.0
C      1  0.5369140000000  0.4992710000000  0.4665000000000 1.0
C      1  0.4110130000000  0.5121090000000  0.4285930000000 1.0
C      1  0.5896290000000  0.5121130000000  0.5713500000000 1.0
C      1  0.5467020000000  0.4983710000000  0.5955490000000 1.0
C      1  0.4539300000000  0.4983680000000  0.4043800000000 1.0
C      1  0.5209840000000  0.4234710000000  0.5642850000000 1.0
C      1  0.4796560000000  0.4234720000000  0.4356450000000 1.0
C      1  0.5853290000000  0.4116710000000  0.4706120000000 1.0
C      1  0.4153130000000  0.4116570000000  0.5293180000000 1.0
C      1  0.5307980000000  0.5667680000000  0.4217740000000 1.0
C      1  0.4698230000000  0.5667600000000  0.5781570000000 1.0
C      1  0.4918960000000  0.5940750000000  0.4456370000000 1.0
C      1  0.5087240000000  0.5940740000000  0.5542970000000 1.0
C      1  0.5403460000000  0.4724600000000  0.5500680000000 1.0
C      1  0.4602880000000  0.4724600000000  0.4498630000000 1.0
C      1  0.5715590000000  0.4809180000000  0.4414830000000 1.0
C      1  0.4290750000000  0.4809060000000  0.5584460000000 1.0
C      1  0.4122860000000  0.5237520000000  0.4585900000000 1.0
C      1  0.5884400000000  0.5237160000000  0.5413270000000 1.0
C      1  0.5493160000000  0.4423040000000  0.4164940000000 1.0
C      1  0.4513210000000  0.4422930000000  0.5834370000000 1.0
C      1  0.4661800000000  0.4969830000000  0.5044950000000 1.0
C      1  0.5344550000000  0.4969870000000  0.4954440000000 1.0
C      1  0.5382660000000  0.5287900000000  0.5324780000000 1.0
C      1  0.4623560000000  0.5287910000000  0.4674510000000 1.0
C      1  0.4855500000000  0.5022270000000  0.5535380000000 1.0
C      1  0.5150820000000  0.5022330000000  0.4463990000000 1.0
C      1  0.4990570000000  0.4424450000000  0.5746340000000 1.0
C      1  0.5015800000000  0.4424490000000  0.4252980000000 1.0
C      1  0.4113540000000  0.4587200000000  0.4540540000000 1.0
C      1  0.5892820000000  0.4587270000000  0.5458760000000 1.0
C      1  0.4253480000000  0.5102710000000  0.5554940000000 1.0
C      1  0.5752840000000  0.5102840000000  0.4444320000000 1.0
C      1  0.5648380000000  0.5551470000000  0.4929630000000 1.0
C      1  0.4357850000000  0.5551430000000  0.5069680000000 1.0
C      1  0.4867840000000  0.4756180000000  0.4937500000000 1.0
C      1  0.5138510000000  0.4756190000000  0.5061840000000 1.0
C      1  0.5769630000000  0.5707080000000  0.4458140000000 1.0
C      1  0.4236580000000  0.5706970000000  0.5541180000000 1.0
C      1  0.5195290000000  0.5805320000000  0.4475270000000 1.0
C      1  0.4810910000000  0.5805270000000  0.5524050000000 1.0
C      1  0.6004380000000  0.5342280000000  0.5884930000000 1.0
C      1  0.4002080000000  0.5342310000000  0.4114530000000 1.0
C      1  0.4603150000000  0.5923660000000  0.5331990000000 1.0
C      1  0.5403040000000  0.5923710000000  0.4667360000000 1.0
C      1  0.4655120000000  0.4550360000000  0.5047030000000 1.0
C      1  0.5351240000000  0.4550390000000  0.4952290000000 1.0
C      1  0.4566590000000  0.5542100000000  0.4853350000000 1.0
C      1  0.5439640000000  0.5542110000000  0.5145960000000 1.0
C      1  0.4993430000000  0.4693770000000  0.4103360000000 1.0
C      1  0.5012910000000  0.4693720000000  0.5895980000000 1.0
C      1  0.4595380000000  0.4376970000000  0.4516640000000 1.0
C      1  0.5411000000000  0.4376980000000  0.5482660000000 1.0
C      1  0.4457440000000  0.4028080000000  0.4894540000000 1.0
C      1  0.5548980000000  0.4028130000000  0.5104740000000 1.0
C      1  0.5332080000000  0.6154220000000  0.4824430000000 1.0
C      1  0.4674080000000  0.6154200000000  0.5174930000000 1.0
C      1  0.6220050000000  0.5232660000000  0.4597890000000 1.0
C      1  0.3786230000000  0.5232350000000  0.5401320000000 1.0
C      1  0.4359350000000  0.5764760000000  0.5283350000000 1.0
C      1  0.5646850000000  0.5764830000000  0.4715980000000 1.0
C      1  0.4641650000000  0.4155490000000  0.5342910000000 1.0
C      1  0.5364760000000  0.4155560000000  0.4656380000000 1.0
C      1  0.5055010000000  0.5329910000000  0.4418380000000 1.0
C      1  0.4951260000000  0.5329870000000  0.5580970000000 1.0
C      1  0.4321890000000  0.4695180000000  0.4372030000000 1.0
C      1  0.5684460000000  0.4695260000000  0.5627240000000 1.0
C      1  0.5169160000000  0.3799680000000  0.5355460000000 1.0
C      1  0.4837290000000  0.3799690000000  0.4643840000000 1.0
C      1  0.5344290000000  0.5389020000000  0.4529000000000 1.0
C      1  0.4662000000000  0.5388930000000  0.5470300000000 1.0
C      1  0.4772520000000  0.4878290000000  0.5802860000000 1.0
C      1  0.5233800000000  0.4878360000000  0.4196500000000 1.0
C      1  0.5144790000000  0.5404270000000  0.4120390000000 1.0
C      1  0.4861460000000  0.5404230000000  0.5878940000000 1.0
C      1  0.5648860000000  0.4624360000000  0.5034450000000 1.0
C      1  0.4357470000000  0.4624280000000  0.4964890000000 1.0
C      1  0.4869840000000  0.4710830000000  0.4648030000000 1.0
C      1  0.5136500000000  0.4710820000000  0.5351300000000 1.0
C      1  0.5257230000000  0.5440650000000  0.5575350000000 1.0
C      1  0.4749010000000  0.5440660000000  0.4423950000000 1.0
C      1  0.5874420000000  0.4621350000000  0.4578400000000 1.0
C      1  0.4131950000000  0.4621200000000  0.5420880000000 1.0
C      1  0.4451400000000  0.5279350000000  0.5676480000000 1.0
C      1  0.5554880000000  0.5279450000000  0.4322800000000 1.0
C      1  0.5344730000000  0.5164040000000  0.4113170000000 1.0
C      1  0.4661540000000  0.5163970000000  0.5886140000000 1.0
C      1  0.4095520000000  0.4335830000000  0.5480200000000 1.0
C      1  0.5910870000000  0.4335980000000  0.4519090000000 1.0
C      1  0.5494640000000  0.4705640000000  0.4243290000000 1.0
C      1  0.4511700000000  0.4705540000000  0.5756030000000 1.0
C      1  0.5056040000000  0.6232160000000  0.4863550000000 1.0
C      1  0.4950110000000  0.6232160000000  0.5135800000000 1.0
C      1  0.5003110000000  0.5337410000000  0.4999630000000 1.0
END
