TITL C-862131-2149-1243 3.59792102253888e-06 125000 -30.3868596061013 0 0 9 (D(inf)h) n - 1
REM
REM in /home/nfs/bkarasulu/CARBON/AIRSS/Generating-Clusters/TERSOFF/Higher-Symm/FIRE-HFTN
REM
REM
REM
REM
REM
REM ./C.cell (b20cbc046b6831c77cfcea5457e17084)
REM AIRSS Version 0.9.1 bugfix July 2018 build 013d7b7c2542+ Fri, 06 Jul 2018 19:26:36 +0100
REM compiler GCC version 9.2.1 20190827 (Red Hat 9.2.1-1)
REM options -cpp -mtune=generic -march=x86-64 -g -O0 -fpre-include=/usr/include/finclude/math-vector-fortran.h
REM seed -2033375096 2023178678 558971446 554628879 -1960772304 -922455639 545929274 549506704 1907158611 177313327 -769416539 -601588161 -1007541787 -1705531147 -1524841295 1725616667 804067133 -116436924 1869194933 -127147491 1754385858 9424987 719656790 405345066 -2013902671 -641368003 84015889 -93111795 130216356 -1736186082 1356949035 -2108186331 1125991382
REM
CELL 1.54180   50.00000   50.00000   50.00000   90.00000   90.00000   90.00000
LATT -1
SFAC C  
C      1  0.4986770000000  0.5007310000000  0.4380230000000 1.0
C      1  0.4986770000000  0.5007310000000  0.5929660000000 1.0
C      1  0.4986770000000  0.5007310000000  0.4070340000000 1.0
C      1  0.4986770000000  0.5007310000000  0.4690110000000 1.0
C      1  0.4986770000000  0.5007310000000  0.5309890000000 1.0
C      1  0.4986770000000  0.5007310000000  0.5619770000000 1.0
C      1  0.4986770000000  0.5007310000000  0.6228990000000 1.0
C      1  0.4986770000000  0.5007310000000  0.3771010000000 1.0
C      1  0.4986770000000  0.5007310000000  0.5000000000000 1.0
END
