TITL C-862500-986-479 1.06245364801511e-05 125000 -164.891190354038 0 0 32 (C3i) n - 1
REM
REM in /home/nfs/bkarasulu/CARBON/AIRSS/Generating-Clusters/TERSOFF/Higher-Symm/FIRE-HFTN
REM
REM
REM
REM
REM
REM ./C.cell (b20cbc046b6831c77cfcea5457e17084)
REM AIRSS Version 0.9.1 bugfix July 2018 build 013d7b7c2542+ Fri, 06 Jul 2018 19:26:36 +0100
REM compiler GCC version 9.2.1 20190827 (Red Hat 9.2.1-1)
REM options -cpp -mtune=generic -march=x86-64 -g -O0 -fpre-include=/usr/include/finclude/math-vector-fortran.h
REM seed 2064024174 -2051348130 1515762205 -1671159658 -1643948318 676507804 -743423415 1109466557 1367330482 -1791466949 -39762224 -5648795 2034501298 1197141905 -991863838 1913499536 -1540340981 -1619015373 -1100014441 -1900210906 -1473801947 -507157124 -1116467570 -43651335 -77985941 -219252035 -2066349968 1736527099 -354113878 -2055789525 -393492963 576075205 -277664186
REM
CELL 1.54180   50.00000   50.00000   50.00000   90.00000   90.00000   90.00000
LATT -1
SFAC C  
C      1  0.5097180000000  0.4966290000000  0.4719220000000 1.0
C      1  0.4902820000000  0.4736200000000  0.4879920000000 1.0
C      1  0.5097180000000  0.4760320000000  0.5159530000000 1.0
C      1  0.4902820000000  0.5014540000000  0.5278450000000 1.0
C      1  0.5097180000000  0.5244630000000  0.5117750000000 1.0
C      1  0.4902820000000  0.5220510000000  0.4838130000000 1.0
C      1  0.4921440000000  0.4991790000000  0.4332430000000 1.0
C      1  0.5078560000000  0.4413980000000  0.4664440000000 1.0
C      1  0.4921440000000  0.4412600000000  0.5330840000000 1.0
C      1  0.5078560000000  0.4989040000000  0.5665240000000 1.0
C      1  0.4921440000000  0.5566850000000  0.5333230000000 1.0
C      1  0.5078560000000  0.5568230000000  0.4666820000000 1.0
C      1  0.4654310000000  0.5178190000000  0.5184290000000 1.0
C      1  0.5345690000000  0.5244910000000  0.4928940000000 1.0
C      1  0.4654310000000  0.5057140000000  0.4743490000000 1.0
C      1  0.5345690000000  0.4802640000000  0.4813380000000 1.0
C      1  0.4654310000000  0.4735920000000  0.5068720000000 1.0
C      1  0.5345690000000  0.4923690000000  0.5254180000000 1.0
C      1  0.5269580000000  0.4510450000000  0.4869590000000 1.0
C      1  0.4730410000000  0.4638510000000  0.5349870000000 1.0
C      1  0.5269590000000  0.5118470000000  0.5479110000000 1.0
C      1  0.4730420000000  0.5470380000000  0.5128080000000 1.0
C      1  0.5269590000000  0.5342320000000  0.4647800000000 1.0
C      1  0.4730410000000  0.4862360000000  0.4518550000000 1.0
C      1  0.5185750000000  0.5415210000000  0.5378800000000 1.0
C      1  0.4814250000000  0.5531870000000  0.4820940000000 1.0
C      1  0.5185750000000  0.5107080000000  0.4440970000000 1.0
C      1  0.4814250000000  0.4565620000000  0.4618870000000 1.0
C      1  0.5185750000000  0.4448960000000  0.5176730000000 1.0
C      1  0.4814250000000  0.4873750000000  0.5556700000000 1.0
C      1  0.4499720000000  0.4990410000000  0.4998830000000 1.0
C      1  0.5500280000000  0.4990410000000  0.4998830000000 1.0
END
