TITL C-862128-1543-850 0.0996469692234158 125000 -264.87301678969 0 0 49 (C1) n - 1
REM
REM in /home/nfs/bkarasulu/CARBON/AIRSS/Generating-Clusters/TERSOFF/Higher-Symm/FIRE-HFTN
REM
REM
REM
REM
REM
REM ./C.cell (b20cbc046b6831c77cfcea5457e17084)
REM AIRSS Version 0.9.1 bugfix July 2018 build 013d7b7c2542+ Fri, 06 Jul 2018 19:26:36 +0100
REM compiler GCC version 9.2.1 20190827 (Red Hat 9.2.1-1)
REM options -cpp -mtune=generic -march=x86-64 -g -O0 -fpre-include=/usr/include/finclude/math-vector-fortran.h
REM seed -1134665706 136828080 1689190827 647151619 1050755128 1072185352 -1841190819 810210401 1162854389 -1257642575 -858243977 -807034987 858344 -749998701 1664581113 218954412 654744725 -1631798845 1945853167 664877944 1490718092 -932474219 658598191 1439032466 -1442947398 791775968 -1208252369 1932487400 -276121067 1552947041 -2043438324 -1051498007 -382492416
REM
CELL 1.54180   50.00000   50.00000   50.00000   90.00000   90.00000   90.00000
LATT -1
SFAC C  
C      1  0.4645830000000  0.5483980000000  0.4624020000000 1.0
C      1  0.5024390000000  0.5222850000000  0.4848970000000 1.0
C      1  0.4595100000000  0.5211600000000  0.5321410000000 1.0
C      1  0.4628430000000  0.4829970000000  0.5520890000000 1.0
C      1  0.5507670000000  0.4989750000000  0.5402170000000 1.0
C      1  0.4599740000000  0.4983310000000  0.4889560000000 1.0
C      1  0.4658060000000  0.5439150000000  0.5121040000000 1.0
C      1  0.5454760000000  0.4772120000000  0.5206080000000 1.0
C      1  0.4760110000000  0.5237560000000  0.4440690000000 1.0
C      1  0.4954250000000  0.5225400000000  0.5679300000000 1.0
C      1  0.4935460000000  0.4824030000000  0.4280870000000 1.0
C      1  0.4961050000000  0.5634140000000  0.4634300000000 1.0
C      1  0.5400680000000  0.5261410000000  0.5381400000000 1.0
C      1  0.5119650000000  0.5643370000000  0.5423150000000 1.0
C      1  0.5540560000000  0.4266410000000  0.4986120000000 1.0
C      1  0.4954560000000  0.4636970000000  0.4717370000000 1.0
C      1  0.5116420000000  0.4743950000000  0.4494540000000 1.0
C      1  0.5372580000000  0.5362870000000  0.5094470000000 1.0
C      1  0.5116500000000  0.4843050000000  0.5444690000000 1.0
C      1  0.5336850000000  0.4906420000000  0.4582030000000 1.0
C      1  0.4898880000000  0.4950030000000  0.5594040000000 1.0
C      1  0.4566080000000  0.4592660000000  0.5256680000000 1.0
C      1  0.5035090000000  0.4364850000000  0.5429930000000 1.0
C      1  0.5148290000000  0.5608400000000  0.5125540000000 1.0
C      1  0.4868500000000  0.4461430000000  0.5212420000000 1.0
C      1  0.4645640000000  0.4764450000000  0.4698060000000 1.0
C      1  0.5052830000000  0.4909610000000  0.5156530000000 1.0
C      1  0.5048500000000  0.5318730000000  0.4561320000000 1.0
C      1  0.4698090000000  0.4940970000000  0.4416730000000 1.0
C      1  0.5330200000000  0.5197450000000  0.4522070000000 1.0
C      1  0.4489320000000  0.5430160000000  0.4872140000000 1.0
C      1  0.5065390000000  0.4343270000000  0.4749000000000 1.0
C      1  0.5079670000000  0.5772740000000  0.4870250000000 1.0
C      1  0.4764300000000  0.5021070000000  0.5130010000000 1.0
C      1  0.5207660000000  0.4576630000000  0.5519820000000 1.0
C      1  0.5556790000000  0.5357000000000  0.4619200000000 1.0
C      1  0.5750440000000  0.4846880000000  0.4823220000000 1.0
C      1  0.4773520000000  0.4280550000000  0.4845750000000 1.0
C      1  0.5353460000000  0.4457980000000  0.4870160000000 1.0
C      1  0.4345810000000  0.5160530000000  0.4891820000000 1.0
C      1  0.4933610000000  0.5417660000000  0.5040100000000 1.0
C      1  0.5452300000000  0.4804770000000  0.4868670000000 1.0
C      1  0.5587520000000  0.5425770000000  0.4899250000000 1.0
C      1  0.5251130000000  0.5065630000000  0.4985250000000 1.0
C      1  0.4312700000000  0.4786580000000  0.5247350000000 1.0
C      1  0.4586940000000  0.4510560000000  0.4905470000000 1.0
C      1  0.4332240000000  0.5075540000000  0.5199820000000 1.0
C      1  0.5001800000000  0.4651680000000  0.5026600000000 1.0
C      1  0.5180620000000  0.5388100000000  0.5569700000000 1.0
END
