TITL C-862506-1665-1186 -0.000909375979904169 125000 -485.769620904726 0 0 84 (C7) n - 1
REM
REM in /home/nfs/bkarasulu/CARBON/AIRSS/Generating-Clusters/TERSOFF/Higher-Symm/FIRE-HFTN
REM
REM
REM
REM
REM
REM ./C.cell (b20cbc046b6831c77cfcea5457e17084)
REM AIRSS Version 0.9.1 bugfix July 2018 build 013d7b7c2542+ Fri, 06 Jul 2018 19:26:36 +0100
REM compiler GCC version 9.2.1 20190827 (Red Hat 9.2.1-1)
REM options -cpp -mtune=generic -march=x86-64 -g -O0 -fpre-include=/usr/include/finclude/math-vector-fortran.h
REM seed -1010445471 1838393221 -211642510 -1356577318 1948539450 -287428196 -1553276680 -786840219 882207938 -1303702625 -687728936 433705726 560845630 -1321353083 421860470 -70722428 571173957 -519880692 -456654567 997527819 -269338693 -1030602790 1169234798 2065568803 -506231928 -2036727761 1968183745 -1593248569 751224486 815062667 1100637593 1103885639 -1012412384
REM
CELL 1.54180   50.00000   50.00000   50.00000   90.00000   90.00000   90.00000
LATT -1
SFAC C  
C      1  0.4823040000000  0.5648340000000  0.4853280000000 1.0
C      1  0.5396560000000  0.5542590000000  0.4853280000000 1.0
C      1  0.5671460000000  0.5028260000000  0.4853280000000 1.0
C      1  0.5440740000000  0.4492650000000  0.4853280000000 1.0
C      1  0.4878130000000  0.4339090000000  0.4853280000000 1.0
C      1  0.4407290000000  0.4683210000000  0.4853290000000 1.0
C      1  0.4382770000000  0.5265880000000  0.4853290000000 1.0
C      1  0.4895440000000  0.5356600000000  0.5696930000000 1.0
C      1  0.5213610000000  0.5304090000000  0.5696930000000 1.0
C      1  0.5370930000000  0.5022590000000  0.5696930000000 1.0
C      1  0.5248940000000  0.4724080000000  0.5696930000000 1.0
C      1  0.4939490000000  0.4633350000000  0.5696930000000 1.0
C      1  0.4675610000000  0.4818710000000  0.5696930000000 1.0
C      1  0.4656010000000  0.5140590000000  0.5696930000000 1.0
C      1  0.4746630000000  0.4181220000000  0.5078900000000 1.0
C      1  0.4201880000000  0.4687590000000  0.5078910000000 1.0
C      1  0.4258130000000  0.5429210000000  0.5078910000000 1.0
C      1  0.4873020000000  0.5847630000000  0.5078900000000 1.0
C      1  0.5583540000000  0.5627760000000  0.5078900000000 1.0
C      1  0.5854630000000  0.4935180000000  0.5078900000000 1.0
C      1  0.5482170000000  0.4291410000000  0.5078900000000 1.0
C      1  0.5676520000000  0.4864090000000  0.4563580000000 1.0
C      1  0.5315550000000  0.4386340000000  0.4563580000000 1.0
C      1  0.4716960000000  0.4370680000000  0.4563590000000 1.0
C      1  0.4331500000000  0.4828910000000  0.4563590000000 1.0
C      1  0.4449440000000  0.5415980000000  0.4563580000000 1.0
C      1  0.4981950000000  0.5689800000000  0.4563580000000 1.0
C      1  0.5528060000000  0.5444190000000  0.4563580000000 1.0
C      1  0.5086280000000  0.4399580000000  0.5349960000000 1.0
C      1  0.4584370000000  0.4558190000000  0.5349960000000 1.0
C      1  0.4395440000000  0.5049490000000  0.5349960000000 1.0
C      1  0.4661760000000  0.5503520000000  0.5349960000000 1.0
C      1  0.5182780000000  0.5578390000000  0.5349950000000 1.0
C      1  0.5566170000000  0.5217720000000  0.5349950000000 1.0
C      1  0.5523220000000  0.4693100000000  0.5349950000000 1.0
C      1  0.5014170000000  0.4435890000000  0.4413660000000 1.0
C      1  0.4567790000000  0.4637200000000  0.4413660000000 1.0
C      1  0.4446880000000  0.5111710000000  0.4413660000000 1.0
C      1  0.4742470000000  0.5502100000000  0.4413660000000 1.0
C      1  0.5231990000000  0.5514390000000  0.4413650000000 1.0
C      1  0.5546810000000  0.5139340000000  0.4413650000000 1.0
C      1  0.5449870000000  0.4659360000000  0.4413650000000 1.0
C      1  0.5047800000000  0.4675010000000  0.5274950000000 1.0
C      1  0.4775710000000  0.4760000000000  0.5274950000000 1.0
C      1  0.4672520000000  0.5025720000000  0.5274950000000 1.0
C      1  0.4815930000000  0.5272070000000  0.5274950000000 1.0
C      1  0.5097950000000  0.5313540000000  0.5274950000000 1.0
C      1  0.5306210000000  0.5118910000000  0.5274950000000 1.0
C      1  0.5283890000000  0.4834740000000  0.5274950000000 1.0
C      1  0.5683460000000  0.5052530000000  0.5570340000000 1.0
C      1  0.5467200000000  0.4498410000000  0.5570340000000 1.0
C      1  0.4899130000000  0.4321990000000  0.5570350000000 1.0
C      1  0.4407020000000  0.4656140000000  0.5570350000000 1.0
C      1  0.4361440000000  0.5249210000000  0.5570350000000 1.0
C      1  0.4796710000000  0.5654630000000  0.5570350000000 1.0
C      1  0.5385060000000  0.5567100000000  0.5570340000000 1.0
C      1  0.4476180000000  0.4412200000000  0.4756260000000 1.0
C      1  0.4213840000000  0.5043050000000  0.4756260000000 1.0
C      1  0.4543500000000  0.5641480000000  0.4756250000000 1.0
C      1  0.5216910000000  0.5756870000000  0.4756250000000 1.0
C      1  0.5726980000000  0.5302310000000  0.4756250000000 1.0
C      1  0.5689620000000  0.4620110000000  0.4756250000000 1.0
C      1  0.5132960000000  0.4223970000000  0.4756250000000 1.0
C      1  0.4741290000000  0.4782950000000  0.4221930000000 1.0
C      1  0.4669000000000  0.5066930000000  0.4221930000000 1.0
C      1  0.4845950000000  0.5300520000000  0.4221930000000 1.0
C      1  0.5138910000000  0.5307800000000  0.4221920000000 1.0
C      1  0.5327260000000  0.5083310000000  0.4221920000000 1.0
C      1  0.5269170000000  0.4796080000000  0.4221920000000 1.0
C      1  0.5008390000000  0.4662400000000  0.4221930000000 1.0
C      1  0.5357030000000  0.4307440000000  0.5347670000000 1.0
C      1  0.4681130000000  0.4289060000000  0.5347670000000 1.0
C      1  0.4245360000000  0.4806040000000  0.5347670000000 1.0
C      1  0.4377840000000  0.5469070000000  0.5347670000000 1.0
C      1  0.4978830000000  0.5778890000000  0.5347670000000 1.0
C      1  0.5595760000000  0.5502180000000  0.5347660000000 1.0
C      1  0.5764070000000  0.4847330000000  0.5347660000000 1.0
C      1  0.5352620000000  0.5010250000000  0.4872550000000 1.0
C      1  0.5227870000000  0.4730700000000  0.4872550000000 1.0
C      1  0.4931530000000  0.4653940000000  0.4872560000000 1.0
C      1  0.4686740000000  0.4837770000000  0.4872560000000 1.0
C      1  0.4677850000000  0.5143760000000  0.4872560000000 1.0
C      1  0.4911540000000  0.5341500000000  0.4872550000000 1.0
C      1  0.5211840000000  0.5282080000000  0.4872550000000 1.0
END
