TITL C-862130-1496-380 -0.00481434450239177 125000 -626.831155154925 0 0 113 (C1) n - 1
REM
REM in /home/nfs/bkarasulu/CARBON/AIRSS/Generating-Clusters/TERSOFF/Higher-Symm/FIRE-HFTN
REM
REM
REM
REM
REM
REM ./C.cell (b20cbc046b6831c77cfcea5457e17084)
REM AIRSS Version 0.9.1 bugfix July 2018 build 013d7b7c2542+ Fri, 06 Jul 2018 19:26:36 +0100
REM compiler GCC version 9.2.1 20190827 (Red Hat 9.2.1-1)
REM options -cpp -mtune=generic -march=x86-64 -g -O0 -fpre-include=/usr/include/finclude/math-vector-fortran.h
REM seed -356729412 804271356 1833580429 1245003614 346000805 432257079 2070519300 710341082 -1359239542 211377532 -1732112246 1922237585 -1786869568 -125199023 174961346 -456743281 274321745 427583576 1040535087 545866261 -557058096 2064364185 -1791098770 1649430821 -555564325 -2053921726 237253614 -1100484900 145151146 -1595499375 -620015281 -1459356077 -937441203
REM
CELL 1.54180   50.00000   50.00000   50.00000   90.00000   90.00000   90.00000
LATT -1
SFAC C  
C      1  0.4715150000000  0.4940870000000  0.4801460000000 1.0
C      1  0.5040460000000  0.5090430000000  0.4814320000000 1.0
C      1  0.5199690000000  0.4768030000000  0.4868900000000 1.0
C      1  0.4676680000000  0.4925080000000  0.5160550000000 1.0
C      1  0.4995620000000  0.5012720000000  0.5141500000000 1.0
C      1  0.5232380000000  0.4787750000000  0.5216190000000 1.0
C      1  0.4322380000000  0.4932060000000  0.5816800000000 1.0
C      1  0.5283750000000  0.5603910000000  0.5891670000000 1.0
C      1  0.5405400000000  0.4468650000000  0.5849850000000 1.0
C      1  0.4342230000000  0.4923620000000  0.4129160000000 1.0
C      1  0.5242490000000  0.5629360000000  0.4179110000000 1.0
C      1  0.5389780000000  0.4450180000000  0.4133510000000 1.0
C      1  0.4310530000000  0.4555140000000  0.4846260000000 1.0
C      1  0.4955540000000  0.5820080000000  0.4823320000000 1.0
C      1  0.5692860000000  0.4659690000000  0.4843230000000 1.0
C      1  0.4350940000000  0.4594020000000  0.5154610000000 1.0
C      1  0.4956460000000  0.5811710000000  0.5139010000000 1.0
C      1  0.5754660000000  0.4640580000000  0.5150580000000 1.0
C      1  0.5850520000000  0.5232520000000  0.4852710000000 1.0
C      1  0.4745940000000  0.4138100000000  0.4867670000000 1.0
C      1  0.4387780000000  0.5651150000000  0.4814960000000 1.0
C      1  0.5887470000000  0.5228780000000  0.5146580000000 1.0
C      1  0.4752950000000  0.4144670000000  0.5163850000000 1.0
C      1  0.4372200000000  0.5671770000000  0.5110550000000 1.0
C      1  0.5427010000000  0.4292570000000  0.4376060000000 1.0
C      1  0.4199230000000  0.4951550000000  0.4380660000000 1.0
C      1  0.5371060000000  0.5733780000000  0.4416650000000 1.0
C      1  0.5462520000000  0.4321390000000  0.5605950000000 1.0
C      1  0.4160720000000  0.5013910000000  0.5587650000000 1.0
C      1  0.5393570000000  0.5721340000000  0.5647800000000 1.0
C      1  0.5247740000000  0.5603390000000  0.5185980000000 1.0
C      1  0.5471580000000  0.4442520000000  0.5126470000000 1.0
C      1  0.4372590000000  0.4951970000000  0.5158650000000 1.0
C      1  0.5234640000000  0.5649680000000  0.4869400000000 1.0
C      1  0.5376140000000  0.4510650000000  0.4823610000000 1.0
C      1  0.4297580000000  0.4898300000000  0.4854930000000 1.0
C      1  0.4611060000000  0.5357460000000  0.4233800000000 1.0
C      1  0.5449080000000  0.5161730000000  0.4289550000000 1.0
C      1  0.4868190000000  0.4457950000000  0.4205270000000 1.0
C      1  0.4614540000000  0.5361960000000  0.5753940000000 1.0
C      1  0.5546890000000  0.5160760000000  0.5798920000000 1.0
C      1  0.4905590000000  0.4518160000000  0.5705740000000 1.0
C      1  0.5041640000000  0.5263270000000  0.5981500000000 1.0
C      1  0.5239840000000  0.4853660000000  0.6010130000000 1.0
C      1  0.4780320000000  0.4894510000000  0.6002230000000 1.0
C      1  0.4999960000000  0.5242230000000  0.3949450000000 1.0
C      1  0.5205130000000  0.4832510000000  0.4013500000000 1.0
C      1  0.4745320000000  0.4873390000000  0.3987520000000 1.0
C      1  0.4305480000000  0.5102830000000  0.4618560000000 1.0
C      1  0.5433780000000  0.5561930000000  0.4651770000000 1.0
C      1  0.5242530000000  0.4315650000000  0.4607570000000 1.0
C      1  0.4279850000000  0.5167000000000  0.5361730000000 1.0
C      1  0.5469430000000  0.5557360000000  0.5409830000000 1.0
C      1  0.5292520000000  0.4338150000000  0.5360460000000 1.0
C      1  0.4185880000000  0.5464550000000  0.5252390000000 1.0
C      1  0.5792490000000  0.5490440000000  0.5298470000000 1.0
C      1  0.5039740000000  0.4094340000000  0.5292240000000 1.0
C      1  0.4212020000000  0.5426620000000  0.4682240000000 1.0
C      1  0.5744460000000  0.5500320000000  0.4732220000000 1.0
C      1  0.5021340000000  0.4076540000000  0.4729160000000 1.0
C      1  0.4468740000000  0.5165140000000  0.5927180000000 1.0
C      1  0.5446640000000  0.5373010000000  0.5986250000000 1.0
C      1  0.5115260000000  0.4465000000000  0.5913190000000 1.0
C      1  0.4463310000000  0.5179340000000  0.4042840000000 1.0
C      1  0.5369460000000  0.5376060000000  0.4095650000000 1.0
C      1  0.5109340000000  0.4424430000000  0.4028570000000 1.0
C      1  0.4951630000000  0.4418360000000  0.4495460000000 1.0
C      1  0.4567950000000  0.5264410000000  0.4529330000000 1.0
C      1  0.5416830000000  0.5263660000000  0.4573950000000 1.0
C      1  0.5024830000000  0.4491550000000  0.5427670000000 1.0
C      1  0.4531470000000  0.5330080000000  0.5460530000000 1.0
C      1  0.5510670000000  0.5258090000000  0.5505720000000 1.0
C      1  0.4693800000000  0.5659950000000  0.4159420000000 1.0
C      1  0.5677510000000  0.4933350000000  0.4174240000000 1.0
C      1  0.4567160000000  0.4419790000000  0.4079590000000 1.0
C      1  0.4724470000000  0.5642970000000  0.5886930000000 1.0
C      1  0.5732200000000  0.4912270000000  0.5916290000000 1.0
C      1  0.4589230000000  0.4436340000000  0.5773920000000 1.0
C      1  0.5526900000000  0.5074490000000  0.5295220000000 1.0
C      1  0.4851210000000  0.4549200000000  0.5213740000000 1.0
C      1  0.4694190000000  0.5446930000000  0.5258130000000 1.0
C      1  0.5466260000000  0.5079870000000  0.4780770000000 1.0
C      1  0.4789550000000  0.4521200000000  0.4701710000000 1.0
C      1  0.4718080000000  0.5406700000000  0.4730340000000 1.0
C      1  0.4380740000000  0.4634690000000  0.5890360000000 1.0
C      1  0.5006890000000  0.5680990000000  0.6007700000000 1.0
C      1  0.5616060000000  0.4639410000000  0.5998420000000 1.0
C      1  0.4388050000000  0.4652600000000  0.3989250000000 1.0
C      1  0.4975540000000  0.5737130000000  0.4069700000000 1.0
C      1  0.5595400000000  0.4665290000000  0.4039100000000 1.0
C      1  0.4910840000000  0.5302100000000  0.5727680000000 1.0
C      1  0.5347370000000  0.4927430000000  0.5749650000000 1.0
C      1  0.4788010000000  0.4802930000000  0.5726450000000 1.0
C      1  0.4904680000000  0.5301540000000  0.4216150000000 1.0
C      1  0.5274840000000  0.4904630000000  0.4288330000000 1.0
C      1  0.4761250000000  0.4750670000000  0.4250050000000 1.0
C      1  0.4581720000000  0.4423230000000  0.5261490000000 1.0
C      1  0.4679750000000  0.5741790000000  0.5250350000000 1.0
C      1  0.5783290000000  0.4922930000000  0.5273010000000 1.0
C      1  0.4534980000000  0.4377010000000  0.4736270000000 1.0
C      1  0.4704020000000  0.5701770000000  0.4699260000000 1.0
C      1  0.5726090000000  0.4942970000000  0.4739870000000 1.0
C      1  0.5139690000000  0.4790820000000  0.4537300000000 1.0
C      1  0.4854130000000  0.4893150000000  0.4494780000000 1.0
C      1  0.5018700000000  0.5185480000000  0.4466940000000 1.0
C      1  0.5190320000000  0.4937660000000  0.5505560000000 1.0
C      1  0.4766350000000  0.4983650000000  0.5491030000000 1.0
C      1  0.5010380000000  0.5184220000000  0.5461210000000 1.0
C      1  0.4735180000000  0.5307620000000  0.5003570000000 1.0
C      1  0.4937340000000  0.4612230000000  0.4937050000000 1.0
C      1  0.5383010000000  0.5143370000000  0.5051250000000 1.0
C      1  0.4992030000000  0.4967990000000  0.3866850000000 1.0
C      1  0.5020370000000  0.5007440000000  0.6117870000000 1.0
END
