TITL C-862501-1041-922 1.0197830873477e-06 125000 -23.1555288512062 0 0 7 (D(inf)h) n - 1
REM
REM in /home/nfs/bkarasulu/CARBON/AIRSS/Generating-Clusters/TERSOFF/Higher-Symm/FIRE-HFTN
REM
REM
REM
REM
REM
REM ./C.cell (b20cbc046b6831c77cfcea5457e17084)
REM AIRSS Version 0.9.1 bugfix July 2018 build 013d7b7c2542+ Fri, 06 Jul 2018 19:26:36 +0100
REM compiler GCC version 9.2.1 20190827 (Red Hat 9.2.1-1)
REM options -cpp -mtune=generic -march=x86-64 -g -O0 -fpre-include=/usr/include/finclude/math-vector-fortran.h
REM seed 331712717 1140319382 -114623643 -407691735 1294115757 -865844984 -1888782232 -246631016 1752132457 1090225773 145061942 -1315606813 848017915 1313589002 243584924 -841754593 809024671 -243442989 1216205775 -1255508911 -943958006 -432720670 1507367629 -454013212 498271146 -1647855529 -1171739234 -1382940482 1465445074 1732070764 -1382714635 -935320877 -913625198
REM
CELL 1.54180   50.00000   50.00000   50.00000   90.00000   90.00000   90.00000
LATT -1
SFAC C  
C      1  0.4080900000000  0.5009120000000  0.5009640000000 1.0
C      1  0.5000000000000  0.5009120000000  0.5009640000000 1.0
C      1  0.5309890000000  0.5009120000000  0.5009640000000 1.0
C      1  0.4380230000000  0.5009120000000  0.5009640000000 1.0
C      1  0.4690110000000  0.5009120000000  0.5009640000000 1.0
C      1  0.5619770000000  0.5009120000000  0.5009640000000 1.0
C      1  0.5919100000000  0.5009120000000  0.5009640000000 1.0
END
