TITL C-862505-1648-524 0.265522286561475 125000 -1108.26602793592 0 0 185 (C1) n - 1
REM
REM in /home/nfs/bkarasulu/CARBON/AIRSS/Generating-Clusters/TERSOFF/Higher-Symm/FIRE-HFTN
REM
REM
REM
REM
REM
REM ./C.cell (b20cbc046b6831c77cfcea5457e17084)
REM AIRSS Version 0.9.1 bugfix July 2018 build 013d7b7c2542+ Fri, 06 Jul 2018 19:26:36 +0100
REM compiler GCC version 9.2.1 20190827 (Red Hat 9.2.1-1)
REM options -cpp -mtune=generic -march=x86-64 -g -O0 -fpre-include=/usr/include/finclude/math-vector-fortran.h
REM seed 2075103847 499807633 -1014422809 -2041708327 -79926077 1985039556 1042024327 -54860852 1059162731 1385459934 -238030137 1601130741 -1883953548 1681870421 214156047 593360676 584562743 -615894837 -1735386159 28466421 -1041261385 1341830710 383039109 1784263833 -1720820044 16682458 118328924 771833253 -1102006767 901632264 2008305654 -288969968 -1256754495
REM
CELL 1.54180   50.00000   50.00000   50.00000   90.00000   90.00000   90.00000
LATT -1
SFAC C  
C      1  0.5618880000000  0.5638370000000  0.5025170000000 1.0
C      1  0.5240760000000  0.4156200000000  0.5024650000000 1.0
C      1  0.4152100000000  0.5222640000000  0.5006770000000 1.0
C      1  0.4363490000000  0.5473990000000  0.4121600000000 1.0
C      1  0.5737250000000  0.5325340000000  0.4134950000000 1.0
C      1  0.4916760000000  0.4210280000000  0.4132010000000 1.0
C      1  0.4444620000000  0.4773240000000  0.4747140000000 1.0
C      1  0.5077570000000  0.5591540000000  0.4755790000000 1.0
C      1  0.5470540000000  0.4641020000000  0.4754970000000 1.0
C      1  0.5483730000000  0.5797480000000  0.5514590000000 1.0
C      1  0.5447980000000  0.4193080000000  0.5515270000000 1.0
C      1  0.4100390000000  0.4993050000000  0.5545140000000 1.0
C      1  0.4107960000000  0.5674150000000  0.4750430000000 1.0
C      1  0.6029360000000  0.5446670000000  0.4764850000000 1.0
C      1  0.4860060000000  0.3900200000000  0.4766960000000 1.0
C      1  0.5762530000000  0.4775280000000  0.4127290000000 1.0
C      1  0.4431590000000  0.4467120000000  0.4114630000000 1.0
C      1  0.4825690000000  0.5771180000000  0.4119850000000 1.0
C      1  0.4906070000000  0.4896290000000  0.6281480000000 1.0
C      1  0.5000270000000  0.5297580000000  0.6362030000000 1.0
C      1  0.5192980000000  0.4907750000000  0.6321320000000 1.0
C      1  0.5472850000000  0.5453910000000  0.6117700000000 1.0
C      1  0.5167420000000  0.4359850000000  0.6120630000000 1.0
C      1  0.4392770000000  0.5182800000000  0.6129280000000 1.0
C      1  0.4510640000000  0.5138790000000  0.5831320000000 1.0
C      1  0.5375690000000  0.5375660000000  0.5819210000000 1.0
C      1  0.5140670000000  0.4491520000000  0.5823570000000 1.0
C      1  0.4014060000000  0.5130530000000  0.3972180000000 1.0
C      1  0.5616120000000  0.5805320000000  0.4002970000000 1.0
C      1  0.5394600000000  0.4075040000000  0.4004940000000 1.0
C      1  0.5061860000000  0.6141710000000  0.4794320000000 1.0
C      1  0.5961700000000  0.4380280000000  0.4799050000000 1.0
C      1  0.3968150000000  0.4519650000000  0.4773190000000 1.0
C      1  0.4292800000000  0.5219320000000  0.3977880000000 1.0
C      1  0.5553450000000  0.5518590000000  0.3994340000000 1.0
C      1  0.5179150000000  0.4274210000000  0.3997950000000 1.0
C      1  0.4787470000000  0.4015660000000  0.5819350000000 1.0
C      1  0.4239440000000  0.5668420000000  0.5811450000000 1.0
C      1  0.5967050000000  0.5313560000000  0.5815790000000 1.0
C      1  0.4730540000000  0.4942570000000  0.5435130000000 1.0
C      1  0.5085300000000  0.5277180000000  0.5436490000000 1.0
C      1  0.5196340000000  0.4800500000000  0.5434380000000 1.0
C      1  0.5674810000000  0.4774190000000  0.5474530000000 1.0
C      1  0.4466770000000  0.4543580000000  0.5478840000000 1.0
C      1  0.4848650000000  0.5698140000000  0.5475130000000 1.0
C      1  0.4860390000000  0.6002020000000  0.4315620000000 1.0
C      1  0.5943720000000  0.4624790000000  0.4320650000000 1.0
C      1  0.4215630000000  0.4387890000000  0.4312560000000 1.0
C      1  0.5619600000000  0.4832160000000  0.4586790000000 1.0
C      1  0.4530170000000  0.4554030000000  0.4570680000000 1.0
C      1  0.4844480000000  0.5626550000000  0.4578890000000 1.0
C      1  0.5275990000000  0.5427240000000  0.3947710000000 1.0
C      1  0.5240190000000  0.4560270000000  0.3953680000000 1.0
C      1  0.4510840000000  0.5024680000000  0.3938640000000 1.0
C      1  0.5441420000000  0.4412070000000  0.5323600000000 1.0
C      1  0.4272610000000  0.4913810000000  0.5318690000000 1.0
C      1  0.5295190000000  0.5684960000000  0.5323290000000 1.0
C      1  0.5170720000000  0.4266110000000  0.5629430000000 1.0
C      1  0.4293110000000  0.5208030000000  0.5638800000000 1.0
C      1  0.5557240000000  0.5517300000000  0.5626430000000 1.0
C      1  0.4335910000000  0.5661600000000  0.4577310000000 1.0
C      1  0.5906820000000  0.5253100000000  0.4592440000000 1.0
C      1  0.4755260000000  0.4096270000000  0.4584960000000 1.0
C      1  0.5693640000000  0.3924270000000  0.5110620000000 1.0
C      1  0.3732490000000  0.4834780000000  0.5188400000000 1.0
C      1  0.5590960000000  0.6137870000000  0.5103660000000 1.0
C      1  0.5252990000000  0.5131300000000  0.3926040000000 1.0
C      1  0.4998590000000  0.4731040000000  0.3930950000000 1.0
C      1  0.4779120000000  0.5149900000000  0.3922930000000 1.0
C      1  0.4092780000000  0.4307920000000  0.4923080000000 1.0
C      1  0.4797770000000  0.6163130000000  0.4904770000000 1.0
C      1  0.6110010000000  0.4599350000000  0.4911500000000 1.0
C      1  0.4477000000000  0.5694350000000  0.5975930000000 1.0
C      1  0.5857480000000  0.5101320000000  0.5978810000000 1.0
C      1  0.4664160000000  0.4218190000000  0.5985780000000 1.0
C      1  0.5032580000000  0.5546330000000  0.4102510000000 1.0
C      1  0.5464830000000  0.4710740000000  0.4107560000000 1.0
C      1  0.4524510000000  0.4757000000000  0.4095730000000 1.0
C      1  0.4658220000000  0.5907650000000  0.5896880000000 1.0
C      1  0.5941660000000  0.4832940000000  0.5902480000000 1.0
C      1  0.4390540000000  0.4287720000000  0.5912120000000 1.0
C      1  0.4983100000000  0.5199840000000  0.4637310000000 1.0
C      1  0.5181270000000  0.4921430000000  0.4636320000000 1.0
C      1  0.4844100000000  0.4891150000000  0.4638770000000 1.0
C      1  0.4522280000000  0.5223240000000  0.4499810000000 1.0
C      1  0.5435180000000  0.5309370000000  0.4507790000000 1.0
C      1  0.5043490000000  0.4475850000000  0.4509890000000 1.0
C      1  0.4807990000000  0.4723930000000  0.4152780000000 1.0
C      1  0.4860860000000  0.5315130000000  0.4149930000000 1.0
C      1  0.5351240000000  0.4975810000000  0.4153360000000 1.0
C      1  0.3832800000000  0.5263300000000  0.4672980000000 1.0
C      1  0.5804970000000  0.5886130000000  0.4674490000000 1.0
C      1  0.5355230000000  0.3870950000000  0.4673850000000 1.0
C      1  0.4265260000000  0.4858860000000  0.6022180000000 1.0
C      1  0.5283370000000  0.5741770000000  0.5998930000000 1.0
C      1  0.5508410000000  0.4397090000000  0.5998630000000 1.0
C      1  0.5673540000000  0.5113550000000  0.5078790000000 1.0
C      1  0.4758310000000  0.4369100000000  0.5083640000000 1.0
C      1  0.4561400000000  0.5517820000000  0.5075620000000 1.0
C      1  0.5406620000000  0.5276250000000  0.5030160000000 1.0
C      1  0.5030730000000  0.4519470000000  0.5032390000000 1.0
C      1  0.4571130000000  0.5211150000000  0.5022740000000 1.0
C      1  0.5424580000000  0.4810750000000  0.5610900000000 1.0
C      1  0.4630580000000  0.4739310000000  0.5612820000000 1.0
C      1  0.4955930000000  0.5468200000000  0.5612660000000 1.0
C      1  0.5359840000000  0.5965860000000  0.4434750000000 1.0
C      1  0.5659750000000  0.4210470000000  0.4439470000000 1.0
C      1  0.4001590000000  0.4851030000000  0.4416480000000 1.0
C      1  0.5860210000000  0.4403770000000  0.4510280000000 1.0
C      1  0.4059960000000  0.4577070000000  0.4487550000000 1.0
C      1  0.5092640000000  0.6042760000000  0.4504770000000 1.0
C      1  0.4544960000000  0.5695410000000  0.4009250000000 1.0
C      1  0.5838760000000  0.5058020000000  0.4020270000000 1.0
C      1  0.4638510000000  0.4259430000000  0.4010770000000 1.0
C      1  0.4945340000000  0.4223820000000  0.4417850000000 1.0
C      1  0.4354340000000  0.5436060000000  0.4406780000000 1.0
C      1  0.5704450000000  0.5348670000000  0.4419410000000 1.0
C      1  0.4286970000000  0.5634000000000  0.5127970000000 1.0
C      1  0.5921840000000  0.5273040000000  0.5131570000000 1.0
C      1  0.4771000000000  0.4074690000000  0.5138140000000 1.0
C      1  0.4959950000000  0.4077560000000  0.5598030000000 1.0
C      1  0.4216390000000  0.5478370000000  0.5597070000000 1.0
C      1  0.5826070000000  0.5429420000000  0.5594300000000 1.0
C      1  0.4103270000000  0.4930340000000  0.4934730000000 1.0
C      1  0.5386910000000  0.5812710000000  0.4934040000000 1.0
C      1  0.5512660000000  0.4261400000000  0.4938230000000 1.0
C      1  0.5632270000000  0.4564840000000  0.4982810000000 1.0
C      1  0.4303440000000  0.4669500000000  0.4979290000000 1.0
C      1  0.5057760000000  0.5767010000000  0.4987380000000 1.0
C      1  0.5201230000000  0.3817670000000  0.5269700000000 1.0
C      1  0.3861900000000  0.5356990000000  0.5278380000000 1.0
C      1  0.5931790000000  0.5772000000000  0.5271110000000 1.0
C      1  0.5386680000000  0.5914480000000  0.5777890000000 1.0
C      1  0.5605270000000  0.4223380000000  0.5774100000000 1.0
C      1  0.4064490000000  0.4839980000000  0.5801610000000 1.0
C      1  0.4844970000000  0.4421390000000  0.6112940000000 1.0
C      1  0.4585440000000  0.5447190000000  0.6106170000000 1.0
C      1  0.5587190000000  0.5146540000000  0.6100470000000 1.0
C      1  0.5515940000000  0.5927300000000  0.4675470000000 1.0
C      1  0.5544290000000  0.4093850000000  0.4678650000000 1.0
C      1  0.3943360000000  0.4993200000000  0.4667210000000 1.0
C      1  0.5464250000000  0.3951960000000  0.5318790000000 1.0
C      1  0.3870100000000  0.5064980000000  0.5351710000000 1.0
C      1  0.5683910000000  0.5932090000000  0.5318200000000 1.0
C      1  0.4097900000000  0.5538230000000  0.5339210000000 1.0
C      1  0.5947180000000  0.5483410000000  0.5338750000000 1.0
C      1  0.4943990000000  0.3947410000000  0.5341860000000 1.0
C      1  0.4312410000000  0.4361040000000  0.5642120000000 1.0
C      1  0.4768130000000  0.5928720000000  0.5630340000000 1.0
C      1  0.5912450000000  0.4729520000000  0.5633280000000 1.0
C      1  0.5060350000000  0.5496240000000  0.5893950000000 1.0
C      1  0.5392450000000  0.4711570000000  0.5891370000000 1.0
C      1  0.4578630000000  0.4811230000000  0.5900050000000 1.0
C      1  0.5638640000000  0.4092510000000  0.4170050000000 1.0
C      1  0.3895760000000  0.4930630000000  0.4153580000000 1.0
C      1  0.5474480000000  0.6006790000000  0.4166010000000 1.0
C      1  0.4499360000000  0.4517240000000  0.5182570000000 1.0
C      1  0.4814980000000  0.5678940000000  0.5181040000000 1.0
C      1  0.5676230000000  0.4813730000000  0.5180480000000 1.0
C      1  0.4896690000000  0.4695620000000  0.4422840000000 1.0
C      1  0.4788450000000  0.5243380000000  0.4416940000000 1.0
C      1  0.5318510000000  0.5071920000000  0.4419440000000 1.0
C      1  0.4590750000000  0.5766810000000  0.4662580000000 1.0
C      1  0.5865990000000  0.4980280000000  0.4678770000000 1.0
C      1  0.4527120000000  0.4263600000000  0.4653230000000 1.0
C      1  0.5207010000000  0.4570450000000  0.5264530000000 1.0
C      1  0.4527420000000  0.5035030000000  0.5256540000000 1.0
C      1  0.5274330000000  0.5403620000000  0.5263200000000 1.0
C      1  0.4486520000000  0.5080050000000  0.4750370000000 1.0
C      1  0.5327050000000  0.5407920000000  0.4757780000000 1.0
C      1  0.5184190000000  0.4520160000000  0.4759250000000 1.0
C      1  0.4324860000000  0.4161500000000  0.4836580000000 1.0
C      1  0.4592740000000  0.5969080000000  0.4869650000000 1.0
C      1  0.6035940000000  0.4873380000000  0.4887100000000 1.0
C      1  0.3986560000000  0.5435350000000  0.4857990000000 1.0
C      1  0.5881750000000  0.5673120000000  0.4866120000000 1.0
C      1  0.5132410000000  0.3913340000000  0.4866130000000 1.0
C      1  0.5390210000000  0.4921380000000  0.6107210000000 1.0
C      1  0.4770710000000  0.4709740000000  0.6104890000000 1.0
C      1  0.4881270000000  0.5406970000000  0.6120150000000 1.0
C      1  0.5907370000000  0.4126640000000  0.4985150000000 1.0
C      1  0.3752130000000  0.4702860000000  0.4902790000000 1.0
C      1  0.5307750000000  0.6222080000000  0.4981740000000 1.0
C      1  0.5011290000000  0.5002800000000  0.3814470000000 1.0
C      1  0.5004130000000  0.5007170000000  0.5413160000000 1.0
END
