TITL C-862129-6180-1096 2.97803699631291e-05 125000 -928.583042710905 0 0 167 (C3h) n - 1
REM
REM in /home/nfs/bkarasulu/CARBON/AIRSS/Generating-Clusters/TERSOFF/Higher-Symm/FIRE-HFTN
REM
REM
REM
REM
REM
REM ./C.cell (b20cbc046b6831c77cfcea5457e17084)
REM AIRSS Version 0.9.1 bugfix July 2018 build 013d7b7c2542+ Fri, 06 Jul 2018 19:26:36 +0100
REM compiler GCC version 9.2.1 20190827 (Red Hat 9.2.1-1)
REM options -cpp -mtune=generic -march=x86-64 -g -O0 -fpre-include=/usr/include/finclude/math-vector-fortran.h
REM seed 685516707 -1914515703 -270731728 1281907985 1519933922 1796651551 -1302451185 -1678584118 -1207793338 -1970446273 -551401965 1973068533 -162196363 447308725 -181054468 1563242132 -264858885 1368320619 1057425832 -307859162 417215299 2020056720 2035262462 1296573237 -757831844 -1356466217 620996641 -1922064563 1153337860 -738457585 -1667056013 -1723295009 893871407
REM
CELL 1.54180   50.00000   50.00000   50.00000   90.00000   90.00000   90.00000
LATT -1
SFAC C  
C      1  0.5592120000000  0.5440850000000  0.4062400000000 1.0
C      1  0.5086250000000  0.4263770000000  0.4062400000000 1.0
C      1  0.4319800000000  0.5290400000000  0.4062400000000 1.0
C      1  0.5592120000000  0.5440840000000  0.5923780000000 1.0
C      1  0.5086250000000  0.4263760000000  0.5923780000000 1.0
C      1  0.4319800000000  0.5290400000000  0.5923780000000 1.0
C      1  0.4034690000000  0.4981410000000  0.5323860000000 1.0
C      1  0.5467080000000  0.5842250000000  0.5323860000000 1.0
C      1  0.5496400000000  0.4171340000000  0.5323860000000 1.0
C      1  0.4034690000000  0.4981410000000  0.4662320000000 1.0
C      1  0.5467080000000  0.5842250000000  0.4662320000000 1.0
C      1  0.5496400000000  0.4171340000000  0.4662320000000 1.0
C      1  0.4493490000000  0.4890600000000  0.4830270000000 1.0
C      1  0.5159040000000  0.5490330000000  0.4830270000000 1.0
C      1  0.5345650000000  0.4614080000000  0.4830270000000 1.0
C      1  0.4493490000000  0.4890600000000  0.5155910000000 1.0
C      1  0.5159040000000  0.5490330000000  0.5155910000000 1.0
C      1  0.5345650000000  0.4614080000000  0.5155910000000 1.0
C      1  0.4714880000000  0.5177400000000  0.5694390000000 1.0
C      1  0.5296720000000  0.5155200000000  0.5694390000000 1.0
C      1  0.4986570000000  0.4662410000000  0.5694390000000 1.0
C      1  0.4714880000000  0.5177400000000  0.4291790000000 1.0
C      1  0.5296720000000  0.5155200000000  0.4291790000000 1.0
C      1  0.4986570000000  0.4662410000000  0.4291790000000 1.0
C      1  0.4352130000000  0.4297350000000  0.4843660000000 1.0
C      1  0.4715950000000  0.5909370000000  0.4843660000000 1.0
C      1  0.5930090000000  0.4788280000000  0.4843660000000 1.0
C      1  0.4352130000000  0.4297350000000  0.5142520000000 1.0
C      1  0.4715950000000  0.5909370000000  0.5142520000000 1.0
C      1  0.5930090000000  0.4788280000000  0.5142520000000 1.0
C      1  0.5932890000000  0.5654280000000  0.5239140000000 1.0
C      1  0.5100700000000  0.3861930000000  0.5239130000000 1.0
C      1  0.3964580000000  0.5478800000000  0.5239140000000 1.0
C      1  0.5932890000000  0.5654280000000  0.4747050000000 1.0
C      1  0.5100700000000  0.3861930000000  0.4747040000000 1.0
C      1  0.3964580000000  0.5478800000000  0.4747050000000 1.0
C      1  0.5501940000000  0.5371490000000  0.4825870000000 1.0
C      1  0.5071270000000  0.4376540000000  0.4825870000000 1.0
C      1  0.4424960000000  0.5246990000000  0.4825870000000 1.0
C      1  0.5501940000000  0.5371480000000  0.5160310000000 1.0
C      1  0.5071270000000  0.4376540000000  0.5160310000000 1.0
C      1  0.4424960000000  0.5246990000000  0.5160310000000 1.0
C      1  0.4177800000000  0.4495550000000  0.5277680000000 1.0
C      1  0.4974760000000  0.5961240000000  0.5277690000000 1.0
C      1  0.5845610000000  0.4538210000000  0.5277680000000 1.0
C      1  0.4177800000000  0.4495550000000  0.4708500000000 1.0
C      1  0.4974760000000  0.5961240000000  0.4708500000000 1.0
C      1  0.5845610000000  0.4538220000000  0.4708500000000 1.0
C      1  0.5573540000000  0.5256330000000  0.4310230000000 1.0
C      1  0.4935740000000  0.4372110000000  0.4310230000000 1.0
C      1  0.4488890000000  0.5366580000000  0.4310230000000 1.0
C      1  0.5573540000000  0.5256320000000  0.5675950000000 1.0
C      1  0.4935740000000  0.4372110000000  0.5675950000000 1.0
C      1  0.4488890000000  0.5366570000000  0.5675950000000 1.0
C      1  0.5177730000000  0.5992580000000  0.5779330000000 1.0
C      1  0.5771260000000  0.4346770000000  0.5779330000000 1.0
C      1  0.4049180000000  0.4655660000000  0.5779330000000 1.0
C      1  0.5177730000000  0.5992580000000  0.4206860000000 1.0
C      1  0.5771260000000  0.4346770000000  0.4206850000000 1.0
C      1  0.4049180000000  0.4655660000000  0.4206850000000 1.0
C      1  0.4679460000000  0.4708460000000  0.5346480000000 1.0
C      1  0.4908320000000  0.5420340000000  0.5346480000000 1.0
C      1  0.5410390000000  0.4866200000000  0.5346480000000 1.0
C      1  0.4679460000000  0.4708460000000  0.4639700000000 1.0
C      1  0.4908320000000  0.5420340000000  0.4639700000000 1.0
C      1  0.5410390000000  0.4866210000000  0.4639700000000 1.0
C      1  0.5220120000000  0.4126020000000  0.4738540000000 1.0
C      1  0.4133580000000  0.5243330000000  0.4738540000000 1.0
C      1  0.5644470000000  0.5625650000000  0.4738540000000 1.0
C      1  0.5220120000000  0.4126020000000  0.5247640000000 1.0
C      1  0.4133580000000  0.5243330000000  0.5247640000000 1.0
C      1  0.5644470000000  0.5625650000000  0.5247640000000 1.0
C      1  0.5262960000000  0.5588230000000  0.4277230000000 1.0
C      1  0.5378470000000  0.4475130000000  0.4277230000000 1.0
C      1  0.4356740000000  0.4931650000000  0.4277230000000 1.0
C      1  0.5262960000000  0.5588230000000  0.5708950000000 1.0
C      1  0.5378470000000  0.4475130000000  0.5708950000000 1.0
C      1  0.4356740000000  0.4931650000000  0.5708950000000 1.0
C      1  0.4499530000000  0.4680470000000  0.4395460000000 1.0
C      1  0.4974040000000  0.5590170000000  0.4395460000000 1.0
C      1  0.5524600000000  0.4724380000000  0.4395460000000 1.0
C      1  0.4499530000000  0.4680470000000  0.5590720000000 1.0
C      1  0.4974040000000  0.5590160000000  0.5590720000000 1.0
C      1  0.5524600000000  0.4724380000000  0.5590720000000 1.0
C      1  0.4568800000000  0.5777580000000  0.5836400000000 1.0
C      1  0.5889530000000  0.4981610000000  0.5836390000000 1.0
C      1  0.4539840000000  0.4235810000000  0.5836390000000 1.0
C      1  0.4568800000000  0.5777590000000  0.4149790000000 1.0
C      1  0.5889530000000  0.4981620000000  0.4149790000000 1.0
C      1  0.4539840000000  0.4235810000000  0.4149790000000 1.0
C      1  0.5422770000000  0.5844380000000  0.4370690000000 1.0
C      1  0.5520390000000  0.4208650000000  0.4370680000000 1.0
C      1  0.4055000000000  0.4941980000000  0.4370690000000 1.0
C      1  0.5422770000000  0.5844380000000  0.5615500000000 1.0
C      1  0.5520390000000  0.4208650000000  0.5615490000000 1.0
C      1  0.4055000000000  0.4941970000000  0.5615490000000 1.0
C      1  0.4318910000000  0.4757470000000  0.3985540000000 1.0
C      1  0.5131030000000  0.5708090000000  0.3985540000000 1.0
C      1  0.5548230000000  0.4529460000000  0.3985540000000 1.0
C      1  0.4318910000000  0.4757460000000  0.6000640000000 1.0
C      1  0.5131030000000  0.5708090000000  0.6000640000000 1.0
C      1  0.5548230000000  0.4529450000000  0.6000640000000 1.0
C      1  0.4944210000000  0.4815390000000  0.5450430000000 1.0
C      1  0.4868550000000  0.5137600000000  0.5450430000000 1.0
C      1  0.5185420000000  0.5042020000000  0.5450430000000 1.0
C      1  0.4944210000000  0.4815390000000  0.4535750000000 1.0
C      1  0.4868550000000  0.5137600000000  0.4535750000000 1.0
C      1  0.5185420000000  0.5042020000000  0.4535750000000 1.0
C      1  0.5623140000000  0.4853040000000  0.5861280000000 1.0
C      1  0.4561680000000  0.4530800000000  0.5861280000000 1.0
C      1  0.4813340000000  0.5611170000000  0.5861280000000 1.0
C      1  0.5623140000000  0.4853040000000  0.4124900000000 1.0
C      1  0.4561680000000  0.4530800000000  0.4124900000000 1.0
C      1  0.4813340000000  0.5611170000000  0.4124900000000 1.0
C      1  0.4817190000000  0.4406190000000  0.5337110000000 1.0
C      1  0.4577670000000  0.5452200000000  0.5337120000000 1.0
C      1  0.5603300000000  0.5136620000000  0.5337120000000 1.0
C      1  0.4817190000000  0.4406190000000  0.4649060000000 1.0
C      1  0.4577670000000  0.5452200000000  0.4649070000000 1.0
C      1  0.5603300000000  0.5136620000000  0.4649070000000 1.0
C      1  0.5213080000000  0.5828980000000  0.4832470000000 1.0
C      1  0.5611910000000  0.4397950000000  0.4832470000000 1.0
C      1  0.4173180000000  0.4768070000000  0.4832470000000 1.0
C      1  0.5213080000000  0.5828980000000  0.5153710000000 1.0
C      1  0.5611910000000  0.4397950000000  0.5153710000000 1.0
C      1  0.4173180000000  0.4768070000000  0.5153710000000 1.0
C      1  0.4523900000000  0.4090240000000  0.5578480000000 1.0
C      1  0.4450700000000  0.5864170000000  0.5578480000000 1.0
C      1  0.6023570000000  0.5040600000000  0.5578480000000 1.0
C      1  0.4523900000000  0.4090240000000  0.4407700000000 1.0
C      1  0.4450700000000  0.5864170000000  0.4407700000000 1.0
C      1  0.6023570000000  0.5040600000000  0.4407700000000 1.0
C      1  0.5242690000000  0.5215520000000  0.6224640000000 1.0
C      1  0.5065830000000  0.4679040000000  0.6224630000000 1.0
C      1  0.4689650000000  0.5100440000000  0.6224640000000 1.0
C      1  0.5242690000000  0.5215520000000  0.3761550000000 1.0
C      1  0.5065830000000  0.4679040000000  0.3761540000000 1.0
C      1  0.4689650000000  0.5100450000000  0.3761550000000 1.0
C      1  0.5003440000000  0.4805020000000  0.5945600000000 1.0
C      1  0.4829950000000  0.5091490000000  0.5945600000000 1.0
C      1  0.5164780000000  0.5098500000000  0.5945600000000 1.0
C      1  0.5003440000000  0.4805020000000  0.4040580000000 1.0
C      1  0.4829950000000  0.5091490000000  0.4040580000000 1.0
C      1  0.5164780000000  0.5098500000000  0.4040580000000 1.0
C      1  0.4968760000000  0.5898690000000  0.5563380000000 1.0
C      1  0.5794440000000  0.4574690000000  0.5563380000000 1.0
C      1  0.4234970000000  0.4521630000000  0.5563380000000 1.0
C      1  0.4968760000000  0.5898700000000  0.4422800000000 1.0
C      1  0.5794440000000  0.4574690000000  0.4422800000000 1.0
C      1  0.4234970000000  0.4521630000000  0.4422800000000 1.0
C      1  0.5888060000000  0.5032970000000  0.5312810000000 1.0
C      1  0.4585050000000  0.4211410000000  0.5312810000000 1.0
C      1  0.4525060000000  0.5750630000000  0.5312810000000 1.0
C      1  0.5888060000000  0.5032970000000  0.4673370000000 1.0
C      1  0.4585050000000  0.4211410000000  0.4673370000000 1.0
C      1  0.4525060000000  0.5750630000000  0.4673370000000 1.0
C      1  0.5353030000000  0.5485090000000  0.6105810000000 1.0
C      1  0.5244110000000  0.4448690000000  0.6105810000000 1.0
C      1  0.4401030000000  0.5061220000000  0.6105810000000 1.0
C      1  0.5353030000000  0.5485090000000  0.3880370000000 1.0
C      1  0.5244110000000  0.4448700000000  0.3880370000000 1.0
C      1  0.4401030000000  0.5061220000000  0.3880370000000 1.0
C      1  0.3880180000000  0.5596380000000  0.4993090000000 1.0
C      1  0.6076920000000  0.5668580000000  0.4993090000000 1.0
C      1  0.5041070000000  0.3730050000000  0.4993090000000 1.0
C      1  0.4999390000000  0.4998340000000  0.3667820000000 1.0
C      1  0.4999390000000  0.4998330000000  0.6318360000000 1.0
END
