TITL C-862506-1665-386 -0.00183909807433574 125000 -695.57773228778 0 0 114 (C3h) n - 1
REM
REM in /home/nfs/bkarasulu/CARBON/AIRSS/Generating-Clusters/TERSOFF/Higher-Symm/FIRE-HFTN
REM
REM
REM
REM
REM
REM ./C.cell (b20cbc046b6831c77cfcea5457e17084)
REM AIRSS Version 0.9.1 bugfix July 2018 build 013d7b7c2542+ Fri, 06 Jul 2018 19:26:36 +0100
REM compiler GCC version 9.2.1 20190827 (Red Hat 9.2.1-1)
REM options -cpp -mtune=generic -march=x86-64 -g -O0 -fpre-include=/usr/include/finclude/math-vector-fortran.h
REM seed 664109656 -2002833034 -94274081 -35119593 -907171818 2117771040 1174934537 -1965034719 450785554 -1199392275 -273636496 -810909276 -1752540785 -677739676 -1545013636 -1156604172 -1342770371 1375342665 -232364079 881546452 545848236 -1888204966 -446098017 407459058 2033309576 527217449 -1336103520 -2068651325 290054451 722124095 1400890282 1363773008 -1101551194
REM
CELL 1.54180   50.00000   50.00000   50.00000   90.00000   90.00000   90.00000
LATT -1
SFAC C  
C      1  0.5002310000000  0.5356650000000  0.4060860000000 1.0
C      1  0.5812170000000  0.5356650000000  0.5471570000000 1.0
C      1  0.4185520000000  0.5356650000000  0.5467570000000 1.0
C      1  0.5002310000000  0.4643350000000  0.4060860000000 1.0
C      1  0.5812170000000  0.4643350000000  0.5471570000000 1.0
C      1  0.4185520000000  0.4643350000000  0.5467570000000 1.0
C      1  0.4362760000000  0.4718030000000  0.4436790000000 1.0
C      1  0.5806380000000  0.4718030000000  0.4729740000000 1.0
C      1  0.4830860000000  0.4718030000000  0.5833470000000 1.0
C      1  0.4362760000000  0.5281970000000  0.4436790000000 1.0
C      1  0.5806380000000  0.5281970000000  0.4729740000000 1.0
C      1  0.4830860000000  0.5281970000000  0.5833470000000 1.0
C      1  0.4199360000000  0.4738420000000  0.5197220000000 1.0
C      1  0.5229520000000  0.4738420000000  0.4208020000000 1.0
C      1  0.5571120000000  0.4738420000000  0.5594760000000 1.0
C      1  0.4199360000000  0.5261580000000  0.5197220000000 1.0
C      1  0.5229520000000  0.5261580000000  0.4208020000000 1.0
C      1  0.5571120000000  0.5261580000000  0.5594760000000 1.0
C      1  0.6007590000000  0.5161910000000  0.5344010000000 1.0
C      1  0.4198290000000  0.5161910000000  0.5700590000000 1.0
C      1  0.4794120000000  0.5161910000000  0.3955400000000 1.0
C      1  0.6007590000000  0.4838090000000  0.5344010000000 1.0
C      1  0.4198290000000  0.4838090000000  0.5700590000000 1.0
C      1  0.4794120000000  0.4838090000000  0.3955400000000 1.0
C      1  0.4455320000000  0.4851900000000  0.5104520000000 1.0
C      1  0.5181820000000  0.4851900000000  0.4476030000000 1.0
C      1  0.5362860000000  0.4851900000000  0.5419450000000 1.0
C      1  0.4455320000000  0.5148100000000  0.5104520000000 1.0
C      1  0.5181820000000  0.5148100000000  0.4476030000000 1.0
C      1  0.5362860000000  0.5148100000000  0.5419450000000 1.0
C      1  0.4923260000000  0.4442540000000  0.5870500000000 1.0
C      1  0.4284500000000  0.4442540000000  0.4498290000000 1.0
C      1  0.5792240000000  0.4442540000000  0.4631210000000 1.0
C      1  0.4923260000000  0.5557460000000  0.5870500000000 1.0
C      1  0.4284500000000  0.5557460000000  0.4498290000000 1.0
C      1  0.5792240000000  0.5557460000000  0.4631210000000 1.0
C      1  0.5588930000000  0.5143500000000  0.5860830000000 1.0
C      1  0.3960040000000  0.5143500000000  0.5079610000000 1.0
C      1  0.5451040000000  0.5143500000000  0.4059560000000 1.0
C      1  0.5588930000000  0.4856500000000  0.5860830000000 1.0
C      1  0.3960040000000  0.4856500000000  0.5079610000000 1.0
C      1  0.5451040000000  0.4856500000000  0.4059560000000 1.0
C      1  0.5172990000000  0.4128380000000  0.5522730000000 1.0
C      1  0.4460810000000  0.4128380000000  0.4888440000000 1.0
C      1  0.5366210000000  0.4128380000000  0.4588820000000 1.0
C      1  0.5172990000000  0.5871620000000  0.5522730000000 1.0
C      1  0.4460810000000  0.5871620000000  0.4888440000000 1.0
C      1  0.5366210000000  0.5871620000000  0.4588820000000 1.0
C      1  0.4616600000000  0.5153930000000  0.5993100000000 1.0
C      1  0.4331650000000  0.5153930000000  0.4171420000000 1.0
C      1  0.6051750000000  0.5153930000000  0.4835480000000 1.0
C      1  0.4616600000000  0.4846070000000  0.5993100000000 1.0
C      1  0.4331650000000  0.4846070000000  0.4171420000000 1.0
C      1  0.6051750000000  0.4846070000000  0.4835480000000 1.0
C      1  0.5833220000000  0.5645440000000  0.5420340000000 1.0
C      1  0.4219370000000  0.5645440000000  0.5511420000000 1.0
C      1  0.4947410000000  0.5645440000000  0.4068240000000 1.0
C      1  0.5833220000000  0.4354560000000  0.5420340000000 1.0
C      1  0.4219370000000  0.4354560000000  0.5511420000000 1.0
C      1  0.4947410000000  0.4354560000000  0.4068240000000 1.0
C      1  0.5705600000000  0.5897920000000  0.4993810000000 1.0
C      1  0.4652560000000  0.5897920000000  0.5614160000000 1.0
C      1  0.4641840000000  0.5897920000000  0.4392030000000 1.0
C      1  0.5705600000000  0.4102080000000  0.4993810000000 1.0
C      1  0.4652560000000  0.4102080000000  0.5614160000000 1.0
C      1  0.4641840000000  0.4102080000000  0.4392030000000 1.0
C      1  0.5345870000000  0.4236040000000  0.5289590000000 1.0
C      1  0.4576280000000  0.4236040000000  0.5154740000000 1.0
C      1  0.5077860000000  0.4236040000000  0.4555680000000 1.0
C      1  0.5345870000000  0.5763960000000  0.5289590000000 1.0
C      1  0.4576280000000  0.5763960000000  0.5154740000000 1.0
C      1  0.5077860000000  0.5763960000000  0.4555680000000 1.0
C      1  0.4469730000000  0.5767730000000  0.4595730000000 1.0
C      1  0.5615240000000  0.5767730000000  0.4742910000000 1.0
C      1  0.4915020000000  0.5767730000000  0.5661360000000 1.0
C      1  0.4469730000000  0.4232270000000  0.4595730000000 1.0
C      1  0.5615240000000  0.4232270000000  0.4742910000000 1.0
C      1  0.4915020000000  0.4232270000000  0.5661360000000 1.0
C      1  0.4523730000000  0.4857190000000  0.4625170000000 1.0
C      1  0.5562740000000  0.4857190000000  0.4774950000000 1.0
C      1  0.4913520000000  0.4857190000000  0.5599870000000 1.0
C      1  0.4523730000000  0.5142810000000  0.4625170000000 1.0
C      1  0.5562740000000  0.5142810000000  0.4774950000000 1.0
C      1  0.4913520000000  0.5142810000000  0.5599870000000 1.0
C      1  0.5094740000000  0.4734170000000  0.5417760000000 1.0
C      1  0.4590840000000  0.4734170000000  0.4873170000000 1.0
C      1  0.5314420000000  0.4734170000000  0.4709070000000 1.0
C      1  0.5094740000000  0.5265830000000  0.5417760000000 1.0
C      1  0.4590840000000  0.5265830000000  0.4873170000000 1.0
C      1  0.5314420000000  0.5265830000000  0.4709070000000 1.0
C      1  0.5638990000000  0.5803100000000  0.5264580000000 1.0
C      1  0.4451370000000  0.5803100000000  0.5421090000000 1.0
C      1  0.4909640000000  0.5803100000000  0.4314330000000 1.0
C      1  0.5638990000000  0.4196900000000  0.5264580000000 1.0
C      1  0.4451370000000  0.4196900000000  0.5421090000000 1.0
C      1  0.4909640000000  0.4196900000000  0.4314330000000 1.0
C      1  0.5248110000000  0.5716210000000  0.5012500000000 1.0
C      1  0.4865120000000  0.5716210000000  0.5208620000000 1.0
C      1  0.4886770000000  0.5716210000000  0.4778880000000 1.0
C      1  0.5248110000000  0.4283790000000  0.5012500000000 1.0
C      1  0.4865120000000  0.4283790000000  0.5208620000000 1.0
C      1  0.4886770000000  0.4283790000000  0.4778880000000 1.0
C      1  0.4998720000000  0.5435030000000  0.5199590000000 1.0
C      1  0.4827790000000  0.5435030000000  0.4899100000000 1.0
C      1  0.5173490000000  0.5435030000000  0.4901310000000 1.0
C      1  0.4998720000000  0.4564970000000  0.5199590000000 1.0
C      1  0.4827790000000  0.4564970000000  0.4899100000000 1.0
C      1  0.5173490000000  0.4564970000000  0.4901310000000 1.0
C      1  0.6135880000000  0.4743110000000  0.5096080000000 1.0
C      1  0.4348850000000  0.4743110000000  0.5935660000000 1.0
C      1  0.4515270000000  0.4743110000000  0.3968260000000 1.0
C      1  0.6135880000000  0.5256890000000  0.5096080000000 1.0
C      1  0.4348850000000  0.5256890000000  0.5935660000000 1.0
C      1  0.4515270000000  0.5256890000000  0.3968260000000 1.0
END
