TITL C-862132-7359-405 -0.0353164001218443 125000 -386.918891534255 0 0 66 (Cs) n - 1
REM
REM in /home/nfs/bkarasulu/CARBON/AIRSS/Generating-Clusters/TERSOFF/Higher-Symm/FIRE-HFTN
REM
REM
REM
REM
REM
REM ./C.cell (b20cbc046b6831c77cfcea5457e17084)
REM AIRSS Version 0.9.1 bugfix July 2018 build 013d7b7c2542+ Fri, 06 Jul 2018 19:26:36 +0100
REM compiler GCC version 9.2.1 20190827 (Red Hat 9.2.1-1)
REM options -cpp -mtune=generic -march=x86-64 -g -O0 -fpre-include=/usr/include/finclude/math-vector-fortran.h
REM seed 1214704678 -2015797292 -258815396 -1808107704 32275352 1318065049 -2004085317 1738063563 1522580116 -359246175 -536361881 -1585372563 -2059132943 -746297912 -88096490 -707645510 1013578344 151669063 339482373 -1903661900 1217440252 -508821665 -1799847511 -816456913 -1264557282 -1520844308 537766555 1249331354 1992441551 -1039563803 1654451702 -1899579930 576069954
REM
CELL 1.54180   50.00000   50.00000   50.00000   90.00000   90.00000   90.00000
LATT -1
SFAC C  
C      1  0.5140250000000  0.5142510000000  0.4164560000000 1.0
C      1  0.5140250000000  0.4857490000000  0.4164560000000 1.0
C      1  0.4384280000000  0.4846470000000  0.4714400000000 1.0
C      1  0.4384280000000  0.5153530000000  0.4714400000000 1.0
C      1  0.5481800000000  0.4321860000000  0.5039160000000 1.0
C      1  0.5481800000000  0.5678140000000  0.5039160000000 1.0
C      1  0.4876040000000  0.5281240000000  0.5484820000000 1.0
C      1  0.4876040000000  0.4718760000000  0.5484820000000 1.0
C      1  0.5118210000000  0.4852910000000  0.5296700000000 1.0
C      1  0.5118210000000  0.5147090000000  0.5296700000000 1.0
C      1  0.5123750000000  0.4196650000000  0.5378990000000 1.0
C      1  0.5123750000000  0.5803350000000  0.5378990000000 1.0
C      1  0.5407860000000  0.4843580000000  0.4856690000000 1.0
C      1  0.5407860000000  0.5156420000000  0.4856690000000 1.0
C      1  0.5608490000000  0.5155940000000  0.5305350000000 1.0
C      1  0.5608490000000  0.4844060000000  0.5305350000000 1.0
C      1  0.5163720000000  0.5243170000000  0.5024480000000 1.0
C      1  0.5163720000000  0.4756830000000  0.5024480000000 1.0
C      1  0.4486470000000  0.5314670000000  0.4490020000000 1.0
C      1  0.4486470000000  0.4685330000000  0.4490020000000 1.0
C      1  0.4829650000000  0.4174820000000  0.4923750000000 1.0
C      1  0.4829650000000  0.5825180000000  0.4923750000000 1.0
C      1  0.5303760000000  0.4715450000000  0.5708100000000 1.0
C      1  0.5303760000000  0.5284550000000  0.5708100000000 1.0
C      1  0.4698540000000  0.5140970000000  0.5283650000000 1.0
C      1  0.4698540000000  0.4859030000000  0.5283650000000 1.0
C      1  0.4942430000000  0.5150480000000  0.4621530000000 1.0
C      1  0.4942430000000  0.4849520000000  0.4621530000000 1.0
C      1  0.5438670000000  0.4636580000000  0.5460430000000 1.0
C      1  0.5438670000000  0.5363420000000  0.5460430000000 1.0
C      1  0.5375150000000  0.4706050000000  0.4582070000000 1.0
C      1  0.5375150000000  0.5293950000000  0.4582070000000 1.0
C      1  0.5648510000000  0.4756380000000  0.5022710000000 1.0
C      1  0.5648510000000  0.5243620000000  0.5022710000000 1.0
C      1  0.4614270000000  0.5756590000000  0.4726570000000 1.0
C      1  0.4614270000000  0.4243410000000  0.4726570000000 1.0
C      1  0.4926650000000  0.4676020000000  0.4870290000000 1.0
C      1  0.4926650000000  0.5323980000000  0.4870290000000 1.0
C      1  0.4664490000000  0.4448690000000  0.4517940000000 1.0
C      1  0.4664490000000  0.5551310000000  0.4517940000000 1.0
C      1  0.4584740000000  0.4433210000000  0.5145540000000 1.0
C      1  0.4584740000000  0.5566790000000  0.5145540000000 1.0
C      1  0.4801450000000  0.5565610000000  0.5505300000000 1.0
C      1  0.4801450000000  0.4434390000000  0.5505300000000 1.0
C      1  0.5019950000000  0.5622600000000  0.4830380000000 1.0
C      1  0.5019950000000  0.4377400000000  0.4830380000000 1.0
C      1  0.5355250000000  0.5628350000000  0.5303140000000 1.0
C      1  0.5355250000000  0.4371650000000  0.5303140000000 1.0
C      1  0.5717670000000  0.4479200000000  0.4991110000000 1.0
C      1  0.5717670000000  0.5520800000000  0.4991110000000 1.0
C      1  0.5113120000000  0.5293760000000  0.4413960000000 1.0
C      1  0.5113120000000  0.4706240000000  0.4413960000000 1.0
C      1  0.4808540000000  0.5778580000000  0.5255840000000 1.0
C      1  0.4808540000000  0.4221420000000  0.5255840000000 1.0
C      1  0.5298450000000  0.5696240000000  0.4815780000000 1.0
C      1  0.5298450000000  0.4303760000000  0.4815780000000 1.0
C      1  0.5043940000000  0.4851780000000  0.5709980000000 1.0
C      1  0.5043940000000  0.5148220000000  0.5709980000000 1.0
C      1  0.4150520000000  0.4856440000000  0.5169280000000 1.0
C      1  0.4150520000000  0.5143560000000  0.5169280000000 1.0
C      1  0.4264770000000  0.5287530000000  0.4946970000000 1.0
C      1  0.4264770000000  0.4712470000000  0.4946970000000 1.0
C      1  0.4935380000000  0.4462100000000  0.4397750000000 1.0
C      1  0.4935380000000  0.5537900000000  0.4397750000000 1.0
C      1  0.4673240000000  0.5306540000000  0.5042730000000 1.0
C      1  0.4673240000000  0.4693460000000  0.5042730000000 1.0
END
