TITL C-862505-1648-521 1024222.52513277 125000 -821.64535153286 0 0 138 (C1) n - 1
REM
REM in /home/nfs/bkarasulu/CARBON/AIRSS/Generating-Clusters/TERSOFF/Higher-Symm/FIRE-HFTN
REM
REM
REM
REM
REM
REM ./C.cell (b20cbc046b6831c77cfcea5457e17084)
REM AIRSS Version 0.9.1 bugfix July 2018 build 013d7b7c2542+ Fri, 06 Jul 2018 19:26:36 +0100
REM compiler GCC version 9.2.1 20190827 (Red Hat 9.2.1-1)
REM options -cpp -mtune=generic -march=x86-64 -g -O0 -fpre-include=/usr/include/finclude/math-vector-fortran.h
REM seed 1359734846 1750490736 1541115141 -594193843 -1162717760 264973431 -880882913 -1635781553 -591561532 428092672 -429637099 799181090 600421016 660276452 2127989269 2077328632 1582286173 -1814217629 167828327 1967417259 495042027 -1638463371 -1482927102 -1976132122 1688923251 -1270474378 557766349 -823515272 -896774993 1242021166 -139928297 160651162 -283382776
REM
CELL 1.54180   50.00000   50.00000   50.00000   90.00000   90.00000   90.00000
LATT -1
SFAC C  
C      1  0.5194460000000  0.4618610000000  0.5238410000000 1.0
C      1  0.4923460000000  0.4596780000000  0.5337560000000 1.0
C      1  0.4712980000000  0.4777730000000  0.5246650000000 1.0
C      1  0.4518820000000  0.4888950000000  0.5434640000000 1.0
C      1  0.4527510000000  0.5171920000000  0.5490390000000 1.0
C      1  0.4664210000000  0.5353480000000  0.5309830000000 1.0
C      1  0.4896130000000  0.5507750000000  0.5392070000000 1.0
C      1  0.5142460000000  0.5483470000000  0.5243740000000 1.0
C      1  0.5350790000000  0.5311280000000  0.5344790000000 1.0
C      1  0.5411540000000  0.5064850000000  0.5207980000000 1.0
C      1  0.5388650000000  0.4808380000000  0.5337440000000 1.0
C      1  0.4214170000000  0.5437520000000  0.5403100000000 1.0
C      1  0.4581650000000  0.5807980000000  0.5378920000000 1.0
C      1  0.5089160000000  0.5909820000000  0.5344850000000 1.0
C      1  0.5553110000000  0.5678560000000  0.5324020000000 1.0
C      1  0.5804380000000  0.5225460000000  0.5330390000000 1.0
C      1  0.5796370000000  0.4709270000000  0.5355560000000 1.0
C      1  0.5540630000000  0.4255790000000  0.5373420000000 1.0
C      1  0.5074540000000  0.4034750000000  0.5397900000000 1.0
C      1  0.4565190000000  0.4098470000000  0.5400780000000 1.0
C      1  0.4166250000000  0.4429560000000  0.5391050000000 1.0
C      1  0.4059420000000  0.4936370000000  0.5400710000000 1.0
C      1  0.5522970000000  0.5062000000000  0.6060000000000 1.0
C      1  0.5459140000000  0.4812520000000  0.6196050000000 1.0
C      1  0.5309730000000  0.4601870000000  0.6063230000000 1.0
C      1  0.5036980000000  0.4541060000000  0.6147440000000 1.0
C      1  0.4795640000000  0.4663490000000  0.6033960000000 1.0
C      1  0.4656490000000  0.4882740000000  0.6176210000000 1.0
C      1  0.4597960000000  0.5154670000000  0.6065580000000 1.0
C      1  0.4730270000000  0.5438080000000  0.6155360000000 1.0
C      1  0.4994000000000  0.5475230000000  0.6262110000000 1.0
C      1  0.5231870000000  0.5468260000000  0.6097770000000 1.0
C      1  0.5457190000000  0.5311930000000  0.6188580000000 1.0
C      1  0.5158110000000  0.4378830000000  0.4762230000000 1.0
C      1  0.4851820000000  0.4325190000000  0.4771160000000 1.0
C      1  0.4574740000000  0.4482160000000  0.4771080000000 1.0
C      1  0.4412180000000  0.4760370000000  0.4780390000000 1.0
C      1  0.4480110000000  0.5085940000000  0.4803680000000 1.0
C      1  0.4581910000000  0.5400310000000  0.4774830000000 1.0
C      1  0.4850230000000  0.5557250000000  0.4735450000000 1.0
C      1  0.5157040000000  0.5520960000000  0.4735820000000 1.0
C      1  0.5336880000000  0.5241080000000  0.4681610000000 1.0
C      1  0.5486430000000  0.4939460000000  0.4747320000000 1.0
C      1  0.5344710000000  0.4645760000000  0.4768930000000 1.0
C      1  0.5196560000000  0.5479620000000  0.5802090000000 1.0
C      1  0.5380170000000  0.5307840000000  0.5637920000000 1.0
C      1  0.5493690000000  0.5063050000000  0.5763850000000 1.0
C      1  0.5456870000000  0.4802880000000  0.5622090000000 1.0
C      1  0.5384140000000  0.4572910000000  0.5784410000000 1.0
C      1  0.4862930000000  0.4437470000000  0.5578860000000 1.0
C      1  0.4689680000000  0.4569750000000  0.5778560000000 1.0
C      1  0.4470480000000  0.4715570000000  0.5660980000000 1.0
C      1  0.4491820000000  0.5267370000000  0.5767010000000 1.0
C      1  0.4685870000000  0.5506070000000  0.5853350000000 1.0
C      1  0.4927210000000  0.5547270000000  0.5684920000000 1.0
C      1  0.4699610000000  0.5435090000000  0.4179800000000 1.0
C      1  0.4960640000000  0.5548130000000  0.4320380000000 1.0
C      1  0.5248830000000  0.5506020000000  0.4207910000000 1.0
C      1  0.5437850000000  0.5297590000000  0.4380750000000 1.0
C      1  0.5553910000000  0.5028260000000  0.4225600000000 1.0
C      1  0.5467380000000  0.4764700000000  0.4365900000000 1.0
C      1  0.5307630000000  0.4541770000000  0.4225810000000 1.0
C      1  0.4974430000000  0.4477590000000  0.4184260000000 1.0
C      1  0.4676340000000  0.4627610000000  0.4181920000000 1.0
C      1  0.4503110000000  0.4923370000000  0.4200290000000 1.0
C      1  0.4558150000000  0.5198710000000  0.4328510000000 1.0
C      1  0.4309150000000  0.5286430000000  0.4476940000000 1.0
C      1  0.4495420000000  0.5678690000000  0.4253600000000 1.0
C      1  0.4925220000000  0.5828580000000  0.4424270000000 1.0
C      1  0.5380270000000  0.5788400000000  0.4264000000000 1.0
C      1  0.5694500000000  0.5467230000000  0.4426910000000 1.0
C      1  0.5864730000000  0.5036840000000  0.4302930000000 1.0
C      1  0.5690530000000  0.4641660000000  0.4531400000000 1.0
C      1  0.5408460000000  0.4279680000000  0.4362460000000 1.0
C      1  0.4927010000000  0.4214340000000  0.4330520000000 1.0
C      1  0.4498700000000  0.4428550000000  0.4328470000000 1.0
C      1  0.4232090000000  0.4831660000000  0.4328010000000 1.0
C      1  0.5720580000000  0.5476930000000  0.5459280000000 1.0
C      1  0.5831990000000  0.4973120000000  0.5480090000000 1.0
C      1  0.5694520000000  0.4473520000000  0.5503130000000 1.0
C      1  0.5337370000000  0.4099620000000  0.5515470000000 1.0
C      1  0.4831930000000  0.4153270000000  0.5522660000000 1.0
C      1  0.4327070000000  0.4222850000000  0.5524740000000 1.0
C      1  0.4073410000000  0.4672840000000  0.5531240000000 1.0
C      1  0.4111410000000  0.5194010000000  0.5542720000000 1.0
C      1  0.4390670000000  0.5638620000000  0.5531440000000 1.0
C      1  0.4833950000000  0.5910060000000  0.5494980000000 1.0
C      1  0.5344710000000  0.5830030000000  0.5468040000000 1.0
C      1  0.5653600000000  0.5751510000000  0.4368290000000 1.0
C      1  0.5937910000000  0.5311470000000  0.4382510000000 1.0
C      1  0.5933730000000  0.4797820000000  0.4466320000000 1.0
C      1  0.5647870000000  0.4346040000000  0.4527960000000 1.0
C      1  0.5178980000000  0.4107230000000  0.4442570000000 1.0
C      1  0.4646550000000  0.4191330000000  0.4430390000000 1.0
C      1  0.4246370000000  0.4549430000000  0.4421300000000 1.0
C      1  0.4115380000000  0.5060930000000  0.4477920000000 1.0
C      1  0.4263020000000  0.5568360000000  0.4403480000000 1.0
C      1  0.4649800000000  0.5909810000000  0.4359000000000 1.0
C      1  0.5178570000000  0.5974570000000  0.4377650000000 1.0
C      1  0.5515450000000  0.5641680000000  0.5034340000000 1.0
C      1  0.5768470000000  0.5206790000000  0.5038500000000 1.0
C      1  0.5768250000000  0.4703340000000  0.5064330000000 1.0
C      1  0.5515880000000  0.4267850000000  0.5081990000000 1.0
C      1  0.5069130000000  0.4018060000000  0.5102370000000 1.0
C      1  0.4562790000000  0.4093130000000  0.5105420000000 1.0
C      1  0.4189080000000  0.4443670000000  0.5098630000000 1.0
C      1  0.4087920000000  0.4939590000000  0.5109440000000 1.0
C      1  0.4224900000000  0.5420520000000  0.5111290000000 1.0
C      1  0.4569150000000  0.5791410000000  0.5085430000000 1.0
C      1  0.5071840000000  0.5886800000000  0.5052150000000 1.0
C      1  0.5733250000000  0.4950250000000  0.4914070000000 1.0
C      1  0.5575720000000  0.4518810000000  0.4949860000000 1.0
C      1  0.5277060000000  0.4165700000000  0.4949730000000 1.0
C      1  0.4818670000000  0.4087030000000  0.4962480000000 1.0
C      1  0.4406590000000  0.4300580000000  0.4964060000000 1.0
C      1  0.4173160000000  0.4703060000000  0.4964940000000 1.0
C      1  0.4230970000000  0.5158340000000  0.4990000000000 1.0
C      1  0.4415880000000  0.5575630000000  0.4960560000000 1.0
C      1  0.4817460000000  0.5803350000000  0.4927430000000 1.0
C      1  0.5277450000000  0.5734560000000  0.4905380000000 1.0
C      1  0.5576000000000  0.5383730000000  0.4910650000000 1.0
C      1  0.5286140000000  0.4574900000000  0.3920260000000 1.0
C      1  0.4990470000000  0.4501560000000  0.3841070000000 1.0
C      1  0.4699500000000  0.4640700000000  0.3835760000000 1.0
C      1  0.4557980000000  0.4914050000000  0.3898490000000 1.0
C      1  0.4616110000000  0.5159650000000  0.3760730000000 1.0
C      1  0.4745610000000  0.5386130000000  0.3887110000000 1.0
C      1  0.4992680000000  0.5485460000000  0.3778000000000 1.0
C      1  0.5244200000000  0.5454580000000  0.3914260000000 1.0
C      1  0.5443860000000  0.5280810000000  0.3806510000000 1.0
C      1  0.5508800000000  0.5030280000000  0.3928480000000 1.0
C      1  0.5436920000000  0.4784050000000  0.3794540000000 1.0
C      1  0.4990270000000  0.5092670000000  0.5264490000000 1.0
C      1  0.4870020000000  0.5033720000000  0.4556350000000 1.0
C      1  0.5054410000000  0.4948790000000  0.5019870000000 1.0
C      1  0.5078480000000  0.5071610000000  0.4755050000000 1.0
C      1  0.5050000000000  0.5087110000000  0.5774530000000 1.0
C      1  0.4960350000000  0.4970140000000  0.5526260000000 1.0
END
