TITL C-862133-5440-838 1.60122599169222 125000 -943.762414770318 0 0 171 (C1) n - 1
REM
REM in /home/nfs/bkarasulu/CARBON/AIRSS/Generating-Clusters/TERSOFF/Higher-Symm/FIRE-HFTN
REM
REM
REM
REM
REM
REM ./C.cell (b20cbc046b6831c77cfcea5457e17084)
REM AIRSS Version 0.9.1 bugfix July 2018 build 013d7b7c2542+ Fri, 06 Jul 2018 19:26:36 +0100
REM compiler GCC version 9.2.1 20190827 (Red Hat 9.2.1-1)
REM options -cpp -mtune=generic -march=x86-64 -g -O0 -fpre-include=/usr/include/finclude/math-vector-fortran.h
REM seed -1980532041 1775294612 -1464418085 1711613329 -219928520 -66222984 168770043 274262850 -1876396150 1368963784 -1965968908 294348455 -2087222793 899272410 -1836579146 -153979221 -959538703 -798224593 -500591813 411453457 119989879 2080323849 -1288473532 330709240 -1041931726 2140002305 1486409707 171843630 -38057189 -695516769 -946766059 -1047789923 2045080043
REM
CELL 1.54180   50.00000   50.00000   50.00000   90.00000   90.00000   90.00000
LATT -1
SFAC C  
C      1  0.5606130000000  0.5263580000000  0.4286340000000 1.0
C      1  0.5021920000000  0.5272570000000  0.4091780000000 1.0
C      1  0.4409880000000  0.5256730000000  0.4272300000000 1.0
C      1  0.4074830000000  0.5262180000000  0.4829750000000 1.0
C      1  0.4197480000000  0.5271570000000  0.5432650000000 1.0
C      1  0.4659930000000  0.5259590000000  0.5874500000000 1.0
C      1  0.5307040000000  0.5266640000000  0.5883680000000 1.0
C      1  0.5799160000000  0.5261610000000  0.5482860000000 1.0
C      1  0.5923650000000  0.5261580000000  0.4850630000000 1.0
C      1  0.5024560000000  0.4549320000000  0.6022440000000 1.0
C      1  0.5674660000000  0.4549390000000  0.5766990000000 1.0
C      1  0.6010500000000  0.4548790000000  0.5153660000000 1.0
C      1  0.5872940000000  0.4547790000000  0.4467550000000 1.0
C      1  0.5325310000000  0.4546730000000  0.4030860000000 1.0
C      1  0.4631470000000  0.4555720000000  0.4050110000000 1.0
C      1  0.4101010000000  0.4544660000000  0.4508970000000 1.0
C      1  0.3997670000000  0.4544690000000  0.5201690000000 1.0
C      1  0.4362130000000  0.4556840000000  0.5792760000000 1.0
C      1  0.4237940000000  0.4768850000000  0.4327050000000 1.0
C      1  0.3985060000000  0.4769380000000  0.4974260000000 1.0
C      1  0.4209930000000  0.4783160000000  0.5624220000000 1.0
C      1  0.4797260000000  0.4772190000000  0.5994070000000 1.0
C      1  0.5484360000000  0.4775100000000  0.5890550000000 1.0
C      1  0.5943660000000  0.4773110000000  0.5371710000000 1.0
C      1  0.5961620000000  0.4772040000000  0.4676910000000 1.0
C      1  0.5527450000000  0.4771400000000  0.4135280000000 1.0
C      1  0.4852180000000  0.4783780000000  0.4003300000000 1.0
C      1  0.4466640000000  0.6103510000000  0.4947890000000 1.0
C      1  0.4536810000000  0.6114710000000  0.5302090000000 1.0
C      1  0.4862350000000  0.6020670000000  0.5424280000000 1.0
C      1  0.5208440000000  0.6096050000000  0.5483400000000 1.0
C      1  0.5402680000000  0.6023120000000  0.5188710000000 1.0
C      1  0.5533160000000  0.6104300000000  0.4863060000000 1.0
C      1  0.5324880000000  0.6105020000000  0.4568440000000 1.0
C      1  0.4973260000000  0.6098780000000  0.4485510000000 1.0
C      1  0.4710130000000  0.5992230000000  0.4706940000000 1.0
C      1  0.4486940000000  0.5690080000000  0.5694260000000 1.0
C      1  0.5050260000000  0.5691240000000  0.5856420000000 1.0
C      1  0.5593320000000  0.5694660000000  0.5615340000000 1.0
C      1  0.5856890000000  0.5688270000000  0.5093880000000 1.0
C      1  0.5717420000000  0.5690510000000  0.4516830000000 1.0
C      1  0.5236800000000  0.5707730000000  0.4172490000000 1.0
C      1  0.4651740000000  0.5689510000000  0.4221950000000 1.0
C      1  0.4231330000000  0.5686580000000  0.4620650000000 1.0
C      1  0.4156460000000  0.5707640000000  0.5207480000000 1.0
C      1  0.5401290000000  0.5599140000000  0.5858900000000 1.0
C      1  0.5867620000000  0.5584320000000  0.5405650000000 1.0
C      1  0.5916070000000  0.5588430000000  0.4750450000000 1.0
C      1  0.5544070000000  0.5594550000000  0.4213830000000 1.0
C      1  0.4912170000000  0.5596580000000  0.4054120000000 1.0
C      1  0.4323800000000  0.5578280000000  0.4327010000000 1.0
C      1  0.4044410000000  0.5597110000000  0.4917510000000 1.0
C      1  0.4216650000000  0.5594710000000  0.5547440000000 1.0
C      1  0.4745940000000  0.5581790000000  0.5922210000000 1.0
C      1  0.4844090000000  0.5020580000000  0.5821050000000 1.0
C      1  0.5411130000000  0.5023980000000  0.5726390000000 1.0
C      1  0.5780970000000  0.5021350000000  0.5294210000000 1.0
C      1  0.5787240000000  0.5020000000000  0.4721100000000 1.0
C      1  0.5420520000000  0.5019790000000  0.4279760000000 1.0
C      1  0.4866460000000  0.5028080000000  0.4190640000000 1.0
C      1  0.4364480000000  0.5016130000000  0.4455750000000 1.0
C      1  0.4162940000000  0.5018490000000  0.4994110000000 1.0
C      1  0.4362950000000  0.5028310000000  0.5517770000000 1.0
C      1  0.6198790000000  0.5201090000000  0.4953170000000 1.0
C      1  0.5883830000000  0.5202260000000  0.4189210000000 1.0
C      1  0.5190070000000  0.5214990000000  0.3849230000000 1.0
C      1  0.4361930000000  0.5196620000000  0.3982580000000 1.0
C      1  0.3852300000000  0.5199600000000  0.4637850000000 1.0
C      1  0.3903800000000  0.5211740000000  0.5408430000000 1.0
C      1  0.4433760000000  0.5197170000000  0.6061060000000 1.0
C      1  0.5253250000000  0.5205340000000  0.6172170000000 1.0
C      1  0.5938040000000  0.5200000000000  0.5741430000000 1.0
C      1  0.4307730000000  0.4337140000000  0.5539480000000 1.0
C      1  0.4815720000000  0.4338390000000  0.5856510000000 1.0
C      1  0.5409140000000  0.4338290000000  0.5774840000000 1.0
C      1  0.5811400000000  0.4337120000000  0.5330830000000 1.0
C      1  0.5834750000000  0.4335840000000  0.4731040000000 1.0
C      1  0.5466570000000  0.4336420000000  0.4258310000000 1.0
C      1  0.4879400000000  0.4335630000000  0.4129490000000 1.0
C      1  0.4348880000000  0.4332520000000  0.4411090000000 1.0
C      1  0.4124380000000  0.4334010000000  0.4967120000000 1.0
C      1  0.4879300000000  0.4057210000000  0.4232600000000 1.0
C      1  0.4414620000000  0.4055030000000  0.4490200000000 1.0
C      1  0.4225300000000  0.4056540000000  0.4986910000000 1.0
C      1  0.4396890000000  0.4058640000000  0.5490100000000 1.0
C      1  0.4851090000000  0.4059570000000  0.5764330000000 1.0
C      1  0.5375290000000  0.4059840000000  0.5680330000000 1.0
C      1  0.5723660000000  0.4059060000000  0.5279420000000 1.0
C      1  0.5734300000000  0.4058010000000  0.4748140000000 1.0
C      1  0.5400770000000  0.4058170000000  0.4334880000000 1.0
C      1  0.5434920000000  0.5354040000000  0.5039470000000 1.0
C      1  0.5357660000000  0.5350260000000  0.4755400000000 1.0
C      1  0.5101290000000  0.5412200000000  0.4617390000000 1.0
C      1  0.4811630000000  0.5345350000000  0.4607650000000 1.0
C      1  0.4603350000000  0.5346810000000  0.4813270000000 1.0
C      1  0.4611410000000  0.5414520000000  0.5102230000000 1.0
C      1  0.4748960000000  0.5347820000000  0.5356720000000 1.0
C      1  0.5032570000000  0.5356170000000  0.5435370000000 1.0
C      1  0.5300210000000  0.5353300000000  0.5304840000000 1.0
C      1  0.5177180000000  0.5427700000000  0.4330540000000 1.0
C      1  0.4693820000000  0.5382430000000  0.4341790000000 1.0
C      1  0.4335380000000  0.5387490000000  0.4700830000000 1.0
C      1  0.4325350000000  0.5428060000000  0.5179310000000 1.0
C      1  0.4577110000000  0.5384230000000  0.5593540000000 1.0
C      1  0.5063280000000  0.5392650000000  0.5723090000000 1.0
C      1  0.5509680000000  0.5393210000000  0.5509430000000 1.0
C      1  0.5723850000000  0.5387880000000  0.5063780000000 1.0
C      1  0.5588950000000  0.5390370000000  0.4576890000000 1.0
C      1  0.4386110000000  0.4656950000000  0.5026810000000 1.0
C      1  0.4550000000000  0.4656090000000  0.5413240000000 1.0
C      1  0.4921410000000  0.4660630000000  0.5608820000000 1.0
C      1  0.5331000000000  0.4660370000000  0.5516920000000 1.0
C      1  0.5586020000000  0.4659380000000  0.5183480000000 1.0
C      1  0.5567140000000  0.4657770000000  0.4764140000000 1.0
C      1  0.5281900000000  0.4657520000000  0.4456190000000 1.0
C      1  0.4865600000000  0.4654410000000  0.4402530000000 1.0
C      1  0.4510180000000  0.4655320000000  0.4625840000000 1.0
C      1  0.3790150000000  0.4949880000000  0.5443220000000 1.0
C      1  0.4364930000000  0.4931110000000  0.6144890000000 1.0
C      1  0.5247040000000  0.4938880000000  0.6280790000000 1.0
C      1  0.6011580000000  0.4934740000000  0.5824170000000 1.0
C      1  0.6305510000000  0.4935000000000  0.4977310000000 1.0
C      1  0.5982780000000  0.4935930000000  0.4143310000000 1.0
C      1  0.5219030000000  0.4953710000000  0.3732520000000 1.0
C      1  0.4324640000000  0.4931190000000  0.3878770000000 1.0
C      1  0.3764410000000  0.4932720000000  0.4575220000000 1.0
C      1  0.4609440000000  0.3925140000000  0.5654260000000 1.0
C      1  0.5119320000000  0.3925730000000  0.5752300000000 1.0
C      1  0.5572450000000  0.3925270000000  0.5498410000000 1.0
C      1  0.5758660000000  0.3924380000000  0.5013340000000 1.0
C      1  0.5589710000000  0.3923890000000  0.4521980000000 1.0
C      1  0.5144950000000  0.3923790000000  0.4253550000000 1.0
C      1  0.4631840000000  0.3921970000000  0.4335830000000 1.0
C      1  0.4292970000000  0.3921330000000  0.4730020000000 1.0
C      1  0.4283440000000  0.3923500000000  0.5249800000000 1.0
C      1  0.5549600000000  0.4525750000000  0.4489030000000 1.0
C      1  0.5091870000000  0.4524780000000  0.4255360000000 1.0
C      1  0.4591210000000  0.4522520000000  0.4370180000000 1.0
C      1  0.4281070000000  0.4523350000000  0.4778490000000 1.0
C      1  0.4309190000000  0.4524510000000  0.5291900000000 1.0
C      1  0.4659430000000  0.4526970000000  0.5666880000000 1.0
C      1  0.5168180000000  0.4528430000000  0.5731670000000 1.0
C      1  0.5598800000000  0.4527620000000  0.5452200000000 1.0
C      1  0.5749720000000  0.4525800000000  0.4961400000000 1.0
C      1  0.5814580000000  0.4705760000000  0.4195360000000 1.0
C      1  0.5112060000000  0.4719450000000  0.3865500000000 1.0
C      1  0.4348370000000  0.4702220000000  0.4054810000000 1.0
C      1  0.3894070000000  0.4703000000000  0.4695410000000 1.0
C      1  0.3960570000000  0.4716930000000  0.5469090000000 1.0
C      1  0.4506960000000  0.4703780000000  0.6035220000000 1.0
C      1  0.5288210000000  0.4709070000000  0.6108880000000 1.0
C      1  0.5933970000000  0.4705530000000  0.5664940000000 1.0
C      1  0.6142730000000  0.4705370000000  0.4907900000000 1.0
C      1  0.4242190000000  0.5988190000000  0.5181240000000 1.0
C      1  0.4575610000000  0.5962850000000  0.5612040000000 1.0
C      1  0.5016240000000  0.5961360000000  0.5734980000000 1.0
C      1  0.5523910000000  0.5964220000000  0.5511420000000 1.0
C      1  0.5735930000000  0.5960500000000  0.5103640000000 1.0
C      1  0.5647730000000  0.5976820000000  0.4564880000000 1.0
C      1  0.5211450000000  0.5986520000000  0.4264550000000 1.0
C      1  0.4683310000000  0.5954880000000  0.4357020000000 1.0
C      1  0.4364300000000  0.5952160000000  0.4652880000000 1.0
C      1  0.5482250000000  0.4952850000000  0.4806680000000 1.0
C      1  0.5243240000000  0.4954760000000  0.4545410000000 1.0
C      1  0.4892480000000  0.4948250000000  0.4499470000000 1.0
C      1  0.4590270000000  0.4949340000000  0.4679370000000 1.0
C      1  0.4482040000000  0.4954260000000  0.5014700000000 1.0
C      1  0.4617870000000  0.4949830000000  0.5340680000000 1.0
C      1  0.4927490000000  0.4956960000000  0.5512120000000 1.0
C      1  0.5274400000000  0.4956810000000  0.5440130000000 1.0
C      1  0.5492930000000  0.4956070000000  0.5160140000000 1.0
END
