TITL C-862133-5440-262 0.040221613442425 125000 -1116.02079917673 0 0 195 (D2) n - 1
REM
REM in /home/nfs/bkarasulu/CARBON/AIRSS/Generating-Clusters/TERSOFF/Higher-Symm/FIRE-HFTN
REM
REM
REM
REM
REM
REM ./C.cell (b20cbc046b6831c77cfcea5457e17084)
REM AIRSS Version 0.9.1 bugfix July 2018 build 013d7b7c2542+ Fri, 06 Jul 2018 19:26:36 +0100
REM compiler GCC version 9.2.1 20190827 (Red Hat 9.2.1-1)
REM options -cpp -mtune=generic -march=x86-64 -g -O0 -fpre-include=/usr/include/finclude/math-vector-fortran.h
REM seed 457211146 364266614 1822251652 -926413857 -1844012874 -812361314 -330325949 -127494690 -2047768845 -1918068280 930422341 498691874 1707442820 1592169447 -1772225021 2051003746 -1895729811 -109933380 1938958848 1852563408 -2098135148 -2110415684 1143766082 498995101 -524073413 -1807596785 -1086650908 -2083553300 -658834555 1481895005 948323680 -1620508599 59153478
REM
CELL 1.54180   50.00000   50.00000   50.00000   90.00000   90.00000   90.00000
LATT -1
SFAC C  
C      1  0.4964600000000  0.4582490000000  0.6061840000000 1.0
C      1  0.5034630000000  0.4582460000000  0.3941490000000 1.0
C      1  0.4964600000000  0.5413070000000  0.3941480000000 1.0
C      1  0.5034650000000  0.5413100000000  0.6061830000000 1.0
C      1  0.5883410000000  0.4939780000000  0.4477630000000 1.0
C      1  0.4115820000000  0.4939800000000  0.5525700000000 1.0
C      1  0.5883420000000  0.5055770000000  0.5525690000000 1.0
C      1  0.4115820000000  0.5055770000000  0.4477630000000 1.0
C      1  0.4887910000000  0.4371210000000  0.4084760000000 1.0
C      1  0.5111320000000  0.4371230000000  0.5918570000000 1.0
C      1  0.4887930000000  0.5624350000000  0.5918560000000 1.0
C      1  0.5111320000000  0.5624320000000  0.4084750000000 1.0
C      1  0.4222980000000  0.5797260000000  0.4551540000000 1.0
C      1  0.5776260000000  0.5797270000000  0.5451760000000 1.0
C      1  0.4222980000000  0.4198310000000  0.5451790000000 1.0
C      1  0.5776250000000  0.4198290000000  0.4551550000000 1.0
C      1  0.6102870000000  0.4661230000000  0.5238840000000 1.0
C      1  0.3896370000000  0.4661240000000  0.4764490000000 1.0
C      1  0.6102870000000  0.5334320000000  0.4764470000000 1.0
C      1  0.3896370000000  0.5334330000000  0.5238840000000 1.0
C      1  0.5189150000000  0.5152810000000  0.5770820000000 1.0
C      1  0.4810090000000  0.5152790000000  0.4232490000000 1.0
C      1  0.5189140000000  0.4842750000000  0.4232500000000 1.0
C      1  0.4810100000000  0.4842770000000  0.5770830000000 1.0
C      1  0.5740410000000  0.5852020000000  0.5159010000000 1.0
C      1  0.4258830000000  0.5852020000000  0.4844290000000 1.0
C      1  0.5740400000000  0.4143530000000  0.4844300000000 1.0
C      1  0.4258830000000  0.4143540000000  0.5159040000000 1.0
C      1  0.5365380000000  0.4681140000000  0.4039600000000 1.0
C      1  0.4633860000000  0.4681170000000  0.5963730000000 1.0
C      1  0.5365390000000  0.5314420000000  0.5963720000000 1.0
C      1  0.4633860000000  0.5314390000000  0.4039590000000 1.0
C      1  0.5426970000000  0.4971560000000  0.6065530000000 1.0
C      1  0.4572270000000  0.4971530000000  0.3937790000000 1.0
C      1  0.5426960000000  0.5024000000000  0.3937790000000 1.0
C      1  0.4572270000000  0.5024030000000  0.6065530000000 1.0
C      1  0.5653570000000  0.4180370000000  0.5412200000000 1.0
C      1  0.4345660000000  0.4180360000000  0.4591140000000 1.0
C      1  0.5653570000000  0.5815190000000  0.4591110000000 1.0
C      1  0.4345670000000  0.5815210000000  0.5412190000000 1.0
C      1  0.3709490000000  0.4927920000000  0.4862550000000 1.0
C      1  0.6289740000000  0.4927920000000  0.5140770000000 1.0
C      1  0.3709500000000  0.5067650000000  0.5140780000000 1.0
C      1  0.6289740000000  0.5067630000000  0.4862540000000 1.0
C      1  0.6231040000000  0.5430600000000  0.5473310000000 1.0
C      1  0.3768200000000  0.5430600000000  0.4530000000000 1.0
C      1  0.6231030000000  0.4564940000000  0.4530010000000 1.0
C      1  0.3768200000000  0.4564970000000  0.5473330000000 1.0
C      1  0.4457260000000  0.4671900000000  0.4663250000000 1.0
C      1  0.5541970000000  0.4671910000000  0.5340090000000 1.0
C      1  0.4457270000000  0.5323660000000  0.5340080000000 1.0
C      1  0.5541970000000  0.5323650000000  0.4663230000000 1.0
C      1  0.6312910000000  0.5488660000000  0.5206390000000 1.0
C      1  0.3686340000000  0.5488660000000  0.4796920000000 1.0
C      1  0.6312900000000  0.4506890000000  0.4796920000000 1.0
C      1  0.3686330000000  0.4506910000000  0.5206410000000 1.0
C      1  0.4804130000000  0.4333240000000  0.4682180000000 1.0
C      1  0.5195110000000  0.4333250000000  0.5321160000000 1.0
C      1  0.4804130000000  0.5662320000000  0.5321150000000 1.0
C      1  0.5195110000000  0.5662310000000  0.4682160000000 1.0
C      1  0.5599430000000  0.5580830000000  0.4781190000000 1.0
C      1  0.4399820000000  0.5580840000000  0.5222110000000 1.0
C      1  0.5599420000000  0.4414730000000  0.5222130000000 1.0
C      1  0.4399810000000  0.4414730000000  0.4781210000000 1.0
C      1  0.4643400000000  0.3779200000000  0.5235060000000 1.0
C      1  0.5355830000000  0.3779190000000  0.4768300000000 1.0
C      1  0.4643410000000  0.6216360000000  0.4768270000000 1.0
C      1  0.5355840000000  0.6216360000000  0.5235020000000 1.0
C      1  0.5578800000000  0.4487240000000  0.4152340000000 1.0
C      1  0.4420430000000  0.4487270000000  0.5850990000000 1.0
C      1  0.5578810000000  0.5508310000000  0.5850970000000 1.0
C      1  0.4420430000000  0.5508290000000  0.4152330000000 1.0
C      1  0.5566800000000  0.5421420000000  0.5301810000000 1.0
C      1  0.4432450000000  0.5421410000000  0.4701500000000 1.0
C      1  0.5566790000000  0.4574140000000  0.4701510000000 1.0
C      1  0.4432450000000  0.4574150000000  0.5301830000000 1.0
C      1  0.4329390000000  0.4455060000000  0.4141760000000 1.0
C      1  0.5669850000000  0.4455080000000  0.5861580000000 1.0
C      1  0.4329400000000  0.5540510000000  0.5861570000000 1.0
C      1  0.5669840000000  0.5540470000000  0.4141730000000 1.0
C      1  0.4630990000000  0.4219530000000  0.4464760000000 1.0
C      1  0.5368240000000  0.4219540000000  0.5538580000000 1.0
C      1  0.4631010000000  0.5776030000000  0.5538560000000 1.0
C      1  0.5368240000000  0.5776010000000  0.4464740000000 1.0
C      1  0.4560800000000  0.4868630000000  0.4828930000000 1.0
C      1  0.5438440000000  0.4868630000000  0.5174400000000 1.0
C      1  0.4560800000000  0.5126940000000  0.5174400000000 1.0
C      1  0.5438440000000  0.5126930000000  0.4828920000000 1.0
C      1  0.5265090000000  0.5749930000000  0.5123370000000 1.0
C      1  0.4734160000000  0.5749930000000  0.4879930000000 1.0
C      1  0.5265080000000  0.4245630000000  0.4879950000000 1.0
C      1  0.4734150000000  0.4245630000000  0.5123390000000 1.0
C      1  0.4497070000000  0.6056390000000  0.5248170000000 1.0
C      1  0.5502170000000  0.6056380000000  0.4755120000000 1.0
C      1  0.4497060000000  0.3939170000000  0.4755150000000 1.0
C      1  0.5502170000000  0.3939180000000  0.5248200000000 1.0
C      1  0.5251940000000  0.5995830000000  0.4295090000000 1.0
C      1  0.4747310000000  0.5995850000000  0.5708210000000 1.0
C      1  0.5251940000000  0.3999730000000  0.5708230000000 1.0
C      1  0.4747290000000  0.3999710000000  0.4295120000000 1.0
C      1  0.5362480000000  0.5028340000000  0.5578110000000 1.0
C      1  0.4636760000000  0.5028320000000  0.4425210000000 1.0
C      1  0.5362470000000  0.4967220000000  0.4425210000000 1.0
C      1  0.4636770000000  0.4967240000000  0.5578110000000 1.0
C      1  0.4863290000000  0.6087260000000  0.4599000000000 1.0
C      1  0.5135960000000  0.6087270000000  0.5404290000000 1.0
C      1  0.4863280000000  0.3908300000000  0.5404320000000 1.0
C      1  0.5135950000000  0.3908290000000  0.4599030000000 1.0
C      1  0.4850560000000  0.4828860000000  0.3869750000000 1.0
C      1  0.5148680000000  0.4828890000000  0.6133580000000 1.0
C      1  0.4850570000000  0.5166700000000  0.6133570000000 1.0
C      1  0.5148670000000  0.5166670000000  0.3869740000000 1.0
C      1  0.5137670000000  0.5971310000000  0.4972860000000 1.0
C      1  0.4861580000000  0.5971320000000  0.5030440000000 1.0
C      1  0.5137660000000  0.4024240000000  0.5030460000000 1.0
C      1  0.4861570000000  0.4024240000000  0.4972890000000 1.0
C      1  0.5722190000000  0.5517710000000  0.5566380000000 1.0
C      1  0.4277050000000  0.5517700000000  0.4436930000000 1.0
C      1  0.5722180000000  0.4477840000000  0.4436940000000 1.0
C      1  0.4277050000000  0.4477860000000  0.5566400000000 1.0
C      1  0.4602560000000  0.4826690000000  0.5294770000000 1.0
C      1  0.5396680000000  0.4826680000000  0.4708560000000 1.0
C      1  0.4602560000000  0.5168870000000  0.4708560000000 1.0
C      1  0.5396680000000  0.5168880000000  0.5294760000000 1.0
C      1  0.4461470000000  0.4359060000000  0.5075520000000 1.0
C      1  0.5537760000000  0.4359060000000  0.4927820000000 1.0
C      1  0.4461480000000  0.5636500000000  0.4927810000000 1.0
C      1  0.5537770000000  0.5636500000000  0.5075490000000 1.0
C      1  0.4806790000000  0.6081860000000  0.5301810000000 1.0
C      1  0.5192460000000  0.6081850000000  0.4701480000000 1.0
C      1  0.4806770000000  0.3913700000000  0.4701510000000 1.0
C      1  0.5192450000000  0.3913710000000  0.5301840000000 1.0
C      1  0.5231800000000  0.4790310000000  0.4969660000000 1.0
C      1  0.4767440000000  0.4790320000000  0.5033670000000 1.0
C      1  0.5231800000000  0.5205240000000  0.5033660000000 1.0
C      1  0.4767440000000  0.5205240000000  0.4969660000000 1.0
C      1  0.5445380000000  0.5277960000000  0.4380120000000 1.0
C      1  0.4553860000000  0.5277980000000  0.5623190000000 1.0
C      1  0.5445380000000  0.4717590000000  0.5623200000000 1.0
C      1  0.4553860000000  0.4717580000000  0.4380130000000 1.0
C      1  0.4442360000000  0.3920160000000  0.5053330000000 1.0
C      1  0.5556870000000  0.3920150000000  0.4950020000000 1.0
C      1  0.4442370000000  0.6075400000000  0.4949990000000 1.0
C      1  0.5556880000000  0.6075400000000  0.5053300000000 1.0
C      1  0.5980850000000  0.5793960000000  0.4988230000000 1.0
C      1  0.4018400000000  0.5793970000000  0.5015070000000 1.0
C      1  0.5980840000000  0.4201590000000  0.5015080000000 1.0
C      1  0.4018390000000  0.4201590000000  0.4988260000000 1.0
C      1  0.5838490000000  0.4353950000000  0.5617640000000 1.0
C      1  0.4160740000000  0.4353940000000  0.4385700000000 1.0
C      1  0.5838490000000  0.5641600000000  0.4385670000000 1.0
C      1  0.4160750000000  0.5641620000000  0.5617630000000 1.0
C      1  0.6083920000000  0.5487580000000  0.4487120000000 1.0
C      1  0.3915330000000  0.5487600000000  0.5516190000000 1.0
C      1  0.6083910000000  0.4507970000000  0.5516190000000 1.0
C      1  0.3915320000000  0.4507970000000  0.4487140000000 1.0
C      1  0.4366260000000  0.4878010000000  0.5666060000000 1.0
C      1  0.5632980000000  0.4877980000000  0.4337260000000 1.0
C      1  0.4366260000000  0.5117560000000  0.4337260000000 1.0
C      1  0.5632980000000  0.5117570000000  0.5666050000000 1.0
C      1  0.5092470000000  0.4354540000000  0.4674050000000 1.0
C      1  0.4906760000000  0.4354550000000  0.5329290000000 1.0
C      1  0.5092480000000  0.5641020000000  0.5329270000000 1.0
C      1  0.4906770000000  0.5641010000000  0.4674030000000 1.0
C      1  0.5361800000000  0.5565140000000  0.4246800000000 1.0
C      1  0.4637450000000  0.5565170000000  0.5756510000000 1.0
C      1  0.5361800000000  0.4430420000000  0.5756520000000 1.0
C      1  0.4637440000000  0.4430400000000  0.4246820000000 1.0
C      1  0.4798670000000  0.5975610000000  0.4334000000000 1.0
C      1  0.5200580000000  0.5975620000000  0.5669290000000 1.0
C      1  0.4798660000000  0.4019950000000  0.5669320000000 1.0
C      1  0.5200570000000  0.4019930000000  0.4334030000000 1.0
C      1  0.4371820000000  0.4777400000000  0.4091530000000 1.0
C      1  0.5627420000000  0.4777420000000  0.5911800000000 1.0
C      1  0.4371830000000  0.5218170000000  0.5911790000000 1.0
C      1  0.5627410000000  0.5218130000000  0.4091520000000 1.0
C      1  0.3869370000000  0.4455480000000  0.4989260000000 1.0
C      1  0.6129870000000  0.4455470000000  0.5014070000000 1.0
C      1  0.3869370000000  0.5540090000000  0.5014070000000 1.0
C      1  0.6129870000000  0.5540080000000  0.4989240000000 1.0
C      1  0.5896850000000  0.5106230000000  0.4719220000000 1.0
C      1  0.4102390000000  0.5106250000000  0.5284100000000 1.0
C      1  0.5896860000000  0.4889320000000  0.5284090000000 1.0
C      1  0.4102380000000  0.4889320000000  0.4719230000000 1.0
C      1  0.5968900000000  0.4657560000000  0.4459590000000 1.0
C      1  0.4030330000000  0.4657580000000  0.5543740000000 1.0
C      1  0.5968910000000  0.5337990000000  0.5543720000000 1.0
C      1  0.4030330000000  0.5337990000000  0.4459590000000 1.0
C      1  0.5009030000000  0.5910340000000  0.4137600000000 1.0
C      1  0.4990220000000  0.5910360000000  0.5865700000000 1.0
C      1  0.5009030000000  0.4085220000000  0.5865730000000 1.0
C      1  0.4990200000000  0.4085200000000  0.4137620000000 1.0
C      1  0.4999620000000  0.4997790000000  0.5923340000000 1.0
C      1  0.4999620000000  0.4997770000000  0.4079980000000 1.0
C      1  0.4999620000000  0.4997780000000  0.5001660000000 1.0
END
