TITL C-862507-1800-429 -130785.279800882 125000 -1077.42145769792 0 0 182 (C3i) n - 1
REM
REM in /home/nfs/bkarasulu/CARBON/AIRSS/Generating-Clusters/TERSOFF/Higher-Symm/FIRE-HFTN
REM
REM
REM
REM
REM
REM ./C.cell (b20cbc046b6831c77cfcea5457e17084)
REM AIRSS Version 0.9.1 bugfix July 2018 build 013d7b7c2542+ Fri, 06 Jul 2018 19:26:36 +0100
REM compiler GCC version 9.2.1 20190827 (Red Hat 9.2.1-1)
REM options -cpp -mtune=generic -march=x86-64 -g -O0 -fpre-include=/usr/include/finclude/math-vector-fortran.h
REM seed -2096250663 1761913840 1017470247 -241220063 -1771494513 -1952375729 -1251703033 -675919130 701421761 1719144441 -448245575 -1059432360 -1422241130 1328892304 -1718040437 -2141646962 -2139048169 -1624485748 -1993224976 -876042989 461136039 483927747 -1695935111 584008572 1047524234 -198174854 -1492277925 -1726343687 -1519873078 -1490964119 1547550488 -2031011832 153554879
REM
CELL 1.54180   50.00000   50.00000   50.00000   90.00000   90.00000   90.00000
LATT -1
SFAC C  
C      1  0.6090730000000  0.5126440000000  0.4731050000000 1.0
C      1  0.3909270000000  0.5294400000000  0.4975650000000 1.0
C      1  0.6090730000000  0.5166530000000  0.5243410000000 1.0
C      1  0.3909270000000  0.4870720000000  0.5266540000000 1.0
C      1  0.6090730000000  0.4702770000000  0.5021950000000 1.0
C      1  0.3909250000000  0.4830640000000  0.4754180000000 1.0
C      1  0.5642190000000  0.5046740000000  0.4487480000000 1.0
C      1  0.4357810000000  0.5465460000000  0.4784830000000 1.0
C      1  0.5642200000000  0.5417330000000  0.5296140000000 1.0
C      1  0.4357810000000  0.4950460000000  0.5510100000000 1.0
C      1  0.5642190000000  0.4531720000000  0.5212770000000 1.0
C      1  0.4357790000000  0.4579860000000  0.4701430000000 1.0
C      1  0.4347940000000  0.5742380000000  0.4889150000000 1.0
C      1  0.5652070000000  0.5465450000000  0.5588120000000 1.0
C      1  0.4347970000000  0.4721660000000  0.5697760000000 1.0
C      1  0.5652010000000  0.4254810000000  0.5108460000000 1.0
C      1  0.4348030000000  0.4531750000000  0.4409510000000 1.0
C      1  0.5652140000000  0.5275570000000  0.4299790000000 1.0
C      1  0.4000060000000  0.5754770000000  0.5172190000000 1.0
C      1  0.5999940000000  0.5226520000000  0.5740370000000 1.0
C      1  0.4000070000000  0.4470330000000  0.5566960000000 1.0
C      1  0.5999930000000  0.4242400000000  0.4825410000000 1.0
C      1  0.4000040000000  0.4770670000000  0.4257220000000 1.0
C      1  0.5999960000000  0.5526830000000  0.4430620000000 1.0
C      1  0.3984380000000  0.5947200000000  0.4935520000000 1.0
C      1  0.6015640000000  0.5527690000000  0.5788680000000 1.0
C      1  0.3984350000000  0.4579060000000  0.5851960000000 1.0
C      1  0.6015630000000  0.4049970000000  0.5062080000000 1.0
C      1  0.3984270000000  0.4469460000000  0.4208880000000 1.0
C      1  0.6015550000000  0.5418020000000  0.4145680000000 1.0
C      1  0.6153510000000  0.4499110000000  0.4816240000000 1.0
C      1  0.3846470000000  0.4906970000000  0.4474950000000 1.0
C      1  0.6153530000000  0.5406420000000  0.4657530000000 1.0
C      1  0.3846480000000  0.5498060000000  0.5181360000000 1.0
C      1  0.6153520000000  0.5090220000000  0.5522640000000 1.0
C      1  0.3846480000000  0.4590740000000  0.5340060000000 1.0
C      1  0.4901480000000  0.5332930000000  0.6009680000000 1.0
C      1  0.5098530000000  0.4290340000000  0.5793780000000 1.0
C      1  0.4901490000000  0.3955980000000  0.4782880000000 1.0
C      1  0.5098490000000  0.4664260000000  0.3987890000000 1.0
C      1  0.4901500000000  0.5706880000000  0.4203820000000 1.0
C      1  0.5098520000000  0.6041220000000  0.5214720000000 1.0
C      1  0.5110260000000  0.5216940000000  0.5640260000000 1.0
C      1  0.4889760000000  0.4552250000000  0.5508620000000 1.0
C      1  0.5110240000000  0.4333930000000  0.4867150000000 1.0
C      1  0.4889740000000  0.4780280000000  0.4357330000000 1.0
C      1  0.5110250000000  0.5444960000000  0.4488980000000 1.0
C      1  0.4889750000000  0.5663280000000  0.5130450000000 1.0
C      1  0.5779230000000  0.5042940000000  0.5901370000000 1.0
C      1  0.4220790000000  0.4239120000000  0.5488470000000 1.0
C      1  0.5779210000000  0.4194770000000  0.4585930000000 1.0
C      1  0.4220760000000  0.4954250000000  0.4096210000000 1.0
C      1  0.5779250000000  0.5758060000000  0.4509100000000 1.0
C      1  0.4220770000000  0.5802410000000  0.5411680000000 1.0
C      1  0.4839650000000  0.4672670000000  0.4614790000000 1.0
C      1  0.5160330000000  0.5168190000000  0.4524510000000 1.0
C      1  0.4839670000000  0.5494120000000  0.4908520000000 1.0
C      1  0.5160340000000  0.5324550000000  0.5382800000000 1.0
C      1  0.4839670000000  0.4829030000000  0.5473080000000 1.0
C      1  0.5160330000000  0.4503100000000  0.5089070000000 1.0
C      1  0.3772830000000  0.5179510000000  0.4425040000000 1.0
C      1  0.6227180000000  0.5585910000000  0.4868600000000 1.0
C      1  0.3772830000000  0.5405010000000  0.5442340000000 1.0
C      1  0.6227160000000  0.4817670000000  0.5572550000000 1.0
C      1  0.3772840000000  0.4411250000000  0.5128990000000 1.0
C      1  0.6227150000000  0.4592160000000  0.4555250000000 1.0
C      1  0.4594050000000  0.4908280000000  0.5340810000000 1.0
C      1  0.5405960000000  0.4657260000000  0.5091580000000 1.0
C      1  0.4594020000000  0.4747580000000  0.4749560000000 1.0
C      1  0.5405950000000  0.5088930000000  0.4656780000000 1.0
C      1  0.4594050000000  0.5339940000000  0.4906010000000 1.0
C      1  0.5405960000000  0.5249620000000  0.5248030000000 1.0
C      1  0.5419630000000  0.5850570000000  0.5770950000000 1.0
C      1  0.4580380000000  0.4755900000000  0.6122720000000 1.0
C      1  0.5419630000000  0.3903910000000  0.5350560000000 1.0
C      1  0.4580370000000  0.4146600000000  0.4226650000000 1.0
C      1  0.5419620000000  0.5241290000000  0.3874860000000 1.0
C      1  0.4580390000000  0.6093280000000  0.4647040000000 1.0
C      1  0.5832110000000  0.4716180000000  0.5927550000000 1.0
C      1  0.4167910000000  0.4053070000000  0.5218570000000 1.0
C      1  0.5832070000000  0.4335480000000  0.4289850000000 1.0
C      1  0.4167890000000  0.5281010000000  0.4070050000000 1.0
C      1  0.5832130000000  0.5944110000000  0.4779010000000 1.0
C      1  0.4167880000000  0.5661690000000  0.5707750000000 1.0
C      1  0.4197100000000  0.4116390000000  0.4591710000000 1.0
C      1  0.5802890000000  0.4910020000000  0.4031250000000 1.0
C      1  0.4197110000000  0.5792220000000  0.4438350000000 1.0
C      1  0.5802910000000  0.5880770000000  0.5405880000000 1.0
C      1  0.4197100000000  0.5087140000000  0.5966330000000 1.0
C      1  0.5802900000000  0.4204970000000  0.5559260000000 1.0
C      1  0.5574520000000  0.5547130000000  0.4366160000000 1.0
C      1  0.4425480000000  0.5820730000000  0.5157520000000 1.0
C      1  0.5574520000000  0.5272220000000  0.5790160000000 1.0
C      1  0.4425490000000  0.4450060000000  0.5631440000000 1.0
C      1  0.5574500000000  0.4176440000000  0.4840090000000 1.0
C      1  0.4425470000000  0.4724990000000  0.4207420000000 1.0
C      1  0.5138120000000  0.5320600000000  0.3933810000000 1.0
C      1  0.4861890000000  0.6081890000000  0.4745190000000 1.0
C      1  0.5138120000000  0.5759890000000  0.5810150000000 1.0
C      1  0.4861890000000  0.4676610000000  0.6063780000000 1.0
C      1  0.5138130000000  0.3915320000000  0.5252410000000 1.0
C      1  0.4861870000000  0.4237310000000  0.4187450000000 1.0
C      1  0.3977240000000  0.4871690000000  0.5941910000000 1.0
C      1  0.6022760000000  0.4118400000000  0.5360470000000 1.0
C      1  0.3977230000000  0.4245220000000  0.4417330000000 1.0
C      1  0.6022760000000  0.5125450000000  0.4055630000000 1.0
C      1  0.3977240000000  0.5878800000000  0.4637130000000 1.0
C      1  0.6022780000000  0.5751910000000  0.5580250000000 1.0
C      1  0.4648940000000  0.5861920000000  0.4188790000000 1.0
C      1  0.5351090000000  0.6131750000000  0.5341450000000 1.0
C      1  0.4648910000000  0.5268440000000  0.6151470000000 1.0
C      1  0.5351070000000  0.4135270000000  0.5808820000000 1.0
C      1  0.4648930000000  0.3865430000000  0.4656150000000 1.0
C      1  0.5351060000000  0.4728740000000  0.3846110000000 1.0
C      1  0.4702120000000  0.4750530000000  0.4136890000000 1.0
C      1  0.5297880000000  0.5621000000000  0.4353010000000 1.0
C      1  0.4702130000000  0.5869050000000  0.5214900000000 1.0
C      1  0.5297870000000  0.5246690000000  0.5860700000000 1.0
C      1  0.4702140000000  0.4376210000000  0.5644590000000 1.0
C      1  0.5297850000000  0.4128140000000  0.4782700000000 1.0
C      1  0.5539710000000  0.4959490000000  0.6113850000000 1.0
C      1  0.4460310000000  0.4013380000000  0.5522410000000 1.0
C      1  0.5539690000000  0.4052500000000  0.4407400000000 1.0
C      1  0.4460280000000  0.5037730000000  0.3883740000000 1.0
C      1  0.5539730000000  0.5983810000000  0.4475190000000 1.0
C      1  0.4460290000000  0.5944680000000  0.5590200000000 1.0
C      1  0.5251630000000  0.4047060000000  0.4494930000000 1.0
C      1  0.4748340000000  0.4959200000000  0.3922780000000 1.0
C      1  0.5251670000000  0.5910750000000  0.4426700000000 1.0
C      1  0.4748340000000  0.5950140000000  0.5502670000000 1.0
C      1  0.5251660000000  0.5038030000000  0.6074810000000 1.0
C      1  0.4748360000000  0.4086460000000  0.5570910000000 1.0
C      1  0.4066580000000  0.4600100000000  0.4790320000000 1.0
C      1  0.5933400000000  0.4979870000000  0.4549470000000 1.0
C      1  0.4066600000000  0.5378360000000  0.4757920000000 1.0
C      1  0.5933410000000  0.5397070000000  0.5207250000000 1.0
C      1  0.4066590000000  0.5017300000000  0.5448120000000 1.0
C      1  0.5933400000000  0.4618810000000  0.5239670000000 1.0
C      1  0.6047630000000  0.5630180000000  0.5085700000000 1.0
C      1  0.3952380000000  0.5239120000000  0.5589230000000 1.0
C      1  0.6047610000000  0.4607520000000  0.5502330000000 1.0
C      1  0.3952380000000  0.4366990000000  0.4911880000000 1.0
C      1  0.6047600000000  0.4758040000000  0.4408370000000 1.0
C      1  0.3952390000000  0.5389660000000  0.4495270000000 1.0
C      1  0.5592530000000  0.5656840000000  0.5119920000000 1.0
C      1  0.4407480000000  0.5222820000000  0.5629420000000 1.0
C      1  0.5592510000000  0.4564570000000  0.5508300000000 1.0
C      1  0.4407480000000  0.4340350000000  0.4877650000000 1.0
C      1  0.5592500000000  0.4774370000000  0.4368170000000 1.0
C      1  0.4407490000000  0.5432600000000  0.4489300000000 1.0
C      1  0.5054580000000  0.5587380000000  0.6036960000000 1.0
C      1  0.4945430000000  0.4393930000000  0.6027780000000 1.0
C      1  0.5054600000000  0.3805140000000  0.4989600000000 1.0
C      1  0.4945400000000  0.4409810000000  0.3960620000000 1.0
C      1  0.5054600000000  0.5603290000000  0.3969820000000 1.0
C      1  0.4945420000000  0.6192070000000  0.5008000000000 1.0
C      1  0.5528490000000  0.4962970000000  0.3907880000000 1.0
C      1  0.4471510000000  0.5925540000000  0.4422520000000 1.0
C      1  0.5528520000000  0.5961140000000  0.5513420000000 1.0
C      1  0.4471490000000  0.5034210000000  0.6089710000000 1.0
C      1  0.5528510000000  0.4071650000000  0.5575090000000 1.0
C      1  0.4471490000000  0.4036020000000  0.4484180000000 1.0
C      1  0.4976730000000  0.4123170000000  0.5367440000000 1.0
C      1  0.5023260000000  0.4241620000000  0.4424970000000 1.0
C      1  0.4976720000000  0.5117060000000  0.4056300000000 1.0
C      1  0.5023290000000  0.5874050000000  0.4630160000000 1.0
C      1  0.4976730000000  0.5755590000000  0.5572620000000 1.0
C      1  0.5023280000000  0.4880170000000  0.5941300000000 1.0
C      1  0.4167570000000  0.4156610000000  0.4929580000000 1.0
C      1  0.5832410000000  0.4637530000000  0.4235020000000 1.0
C      1  0.4167580000000  0.5479520000000  0.4304220000000 1.0
C      1  0.5832450000000  0.5840570000000  0.5068000000000 1.0
C      1  0.4167560000000  0.5359640000000  0.5762580000000 1.0
C      1  0.5832420000000  0.4517670000000  0.5693380000000 1.0
C      1  0.5055510000000  0.4402180000000  0.5335250000000 1.0
C      1  0.4944480000000  0.4409030000000  0.4650500000000 1.0
C      1  0.5055500000000  0.5005440000000  0.4314040000000 1.0
C      1  0.4944500000000  0.5595030000000  0.4662340000000 1.0
C      1  0.5055520000000  0.5588200000000  0.5347090000000 1.0
C      1  0.4944490000000  0.4991780000000  0.5683560000000 1.0
C      1  0.3855820000000  0.4998590000000  0.4998790000000 1.0
C      1  0.6144170000000  0.4998580000000  0.4998800000000 1.0
END
