TITL C-862504-1170-287 3.16637794655333e-06 125000 -618.753134347571 0 0 102 (Oh) n - 1
REM
REM in /home/nfs/bkarasulu/CARBON/AIRSS/Generating-Clusters/TERSOFF/Higher-Symm/FIRE-HFTN
REM
REM
REM
REM
REM
REM ./C.cell (b20cbc046b6831c77cfcea5457e17084)
REM AIRSS Version 0.9.1 bugfix July 2018 build 013d7b7c2542+ Fri, 06 Jul 2018 19:26:36 +0100
REM compiler GCC version 9.2.1 20190827 (Red Hat 9.2.1-1)
REM options -cpp -mtune=generic -march=x86-64 -g -O0 -fpre-include=/usr/include/finclude/math-vector-fortran.h
REM seed -1120701103 1030612700 -1427502945 1814570513 -1807201807 -1260235409 368477423 -304063108 -1714761240 1077135671 -172784205 -1880799542 655899602 -1885773258 -283980715 -826430634 1319024967 176725387 309538822 1616419938 -2093427898 -775383159 -390070716 -651056747 1079973466 -2032212621 -227871217 2123836456 243670879 -67950872 1362963052 2113535867 -804588725
REM
CELL 1.54180   50.00000   50.00000   50.00000   90.00000   90.00000   90.00000
LATT -1
SFAC C  
C      1  0.5223750000000  0.4998490000000  0.3931010000000 1.0
C      1  0.4996780000000  0.3928560000000  0.5227920000000 1.0
C      1  0.3926840000000  0.5225470000000  0.5000940000000 1.0
C      1  0.4769800000000  0.4998490000000  0.3931010000000 1.0
C      1  0.5223750000000  0.4998490000000  0.6070880000000 1.0
C      1  0.4769800000000  0.4998490000000  0.6070880000000 1.0
C      1  0.4996780000000  0.6068430000000  0.5227920000000 1.0
C      1  0.4996780000000  0.6068430000000  0.4773970000000 1.0
C      1  0.4996780000000  0.3928560000000  0.4773970000000 1.0
C      1  0.6066710000000  0.4771520000000  0.5000940000000 1.0
C      1  0.3926840000000  0.4771520000000  0.5000940000000 1.0
C      1  0.6066710000000  0.5225470000000  0.5000940000000 1.0
C      1  0.4996780000000  0.5225470000000  0.3931010000000 1.0
C      1  0.3926840000000  0.4998490000000  0.5227920000000 1.0
C      1  0.5223750000000  0.3928560000000  0.5000940000000 1.0
C      1  0.4996780000000  0.4771520000000  0.3931010000000 1.0
C      1  0.4996780000000  0.5225470000000  0.6070880000000 1.0
C      1  0.4996780000000  0.4771520000000  0.6070880000000 1.0
C      1  0.6066710000000  0.4998490000000  0.5227920000000 1.0
C      1  0.6066710000000  0.4998490000000  0.4773970000000 1.0
C      1  0.3926840000000  0.4998490000000  0.4773970000000 1.0
C      1  0.4769800000000  0.6068430000000  0.5000940000000 1.0
C      1  0.4769800000000  0.3928560000000  0.5000940000000 1.0
C      1  0.5223750000000  0.6068430000000  0.5000940000000 1.0
C      1  0.4739240000000  0.5670440000000  0.5466440000000 1.0
C      1  0.5668730000000  0.5463990000000  0.4743410000000 1.0
C      1  0.5462270000000  0.4740960000000  0.5672890000000 1.0
C      1  0.5254310000000  0.4326540000000  0.5466440000000 1.0
C      1  0.4739240000000  0.4326540000000  0.4535450000000 1.0
C      1  0.5254310000000  0.5670440000000  0.4535450000000 1.0
C      1  0.4324830000000  0.4533000000000  0.4743410000000 1.0
C      1  0.5668730000000  0.4533000000000  0.5258480000000 1.0
C      1  0.4324830000000  0.5463990000000  0.5258480000000 1.0
C      1  0.4531280000000  0.5256030000000  0.5672890000000 1.0
C      1  0.5462270000000  0.5256030000000  0.4329000000000 1.0
C      1  0.4531280000000  0.4740960000000  0.4329000000000 1.0
C      1  0.5668730000000  0.4740960000000  0.5466440000000 1.0
C      1  0.5462270000000  0.5670440000000  0.4743410000000 1.0
C      1  0.4739240000000  0.5463990000000  0.5672890000000 1.0
C      1  0.4324830000000  0.5256030000000  0.5466440000000 1.0
C      1  0.4324830000000  0.4740960000000  0.4535450000000 1.0
C      1  0.5668730000000  0.5256030000000  0.4535450000000 1.0
C      1  0.4531280000000  0.4326540000000  0.4743410000000 1.0
C      1  0.4531280000000  0.5670440000000  0.5258480000000 1.0
C      1  0.5462270000000  0.4326540000000  0.5258480000000 1.0
C      1  0.5254310000000  0.4533000000000  0.5672890000000 1.0
C      1  0.5254310000000  0.5463990000000  0.4329000000000 1.0
C      1  0.4739240000000  0.4533000000000  0.4329000000000 1.0
C      1  0.4639760000000  0.4221500000000  0.5000940000000 1.0
C      1  0.4219790000000  0.4998490000000  0.4643930000000 1.0
C      1  0.4996780000000  0.4641470000000  0.4223950000000 1.0
C      1  0.5353800000000  0.5775480000000  0.5000940000000 1.0
C      1  0.4639760000000  0.5775480000000  0.5000940000000 1.0
C      1  0.5353800000000  0.4221500000000  0.5000940000000 1.0
C      1  0.5773770000000  0.4998490000000  0.4643930000000 1.0
C      1  0.4219790000000  0.4998490000000  0.5357960000000 1.0
C      1  0.5773770000000  0.4998490000000  0.5357960000000 1.0
C      1  0.4996780000000  0.5355510000000  0.4223950000000 1.0
C      1  0.4996780000000  0.5355510000000  0.5777930000000 1.0
C      1  0.4996780000000  0.4641470000000  0.5777930000000 1.0
C      1  0.4219790000000  0.4641470000000  0.5000940000000 1.0
C      1  0.4996780000000  0.4221500000000  0.4643930000000 1.0
C      1  0.4639760000000  0.4998490000000  0.4223950000000 1.0
C      1  0.5773770000000  0.5355510000000  0.5000940000000 1.0
C      1  0.5773770000000  0.4641470000000  0.5000940000000 1.0
C      1  0.4219790000000  0.5355510000000  0.5000940000000 1.0
C      1  0.4996780000000  0.5775480000000  0.4643930000000 1.0
C      1  0.4996780000000  0.4221500000000  0.5357960000000 1.0
C      1  0.4996780000000  0.5775480000000  0.5357960000000 1.0
C      1  0.5353800000000  0.4998490000000  0.4223950000000 1.0
C      1  0.5353800000000  0.4998490000000  0.5777930000000 1.0
C      1  0.4639760000000  0.4998490000000  0.5777930000000 1.0
C      1  0.4324830000000  0.4740960000000  0.5466440000000 1.0
C      1  0.4739240000000  0.5463990000000  0.4329000000000 1.0
C      1  0.5462270000000  0.4326540000000  0.4743410000000 1.0
C      1  0.5668730000000  0.5256030000000  0.5466440000000 1.0
C      1  0.4324830000000  0.5256030000000  0.4535450000000 1.0
C      1  0.5668730000000  0.4740960000000  0.4535450000000 1.0
C      1  0.5254310000000  0.4533000000000  0.4329000000000 1.0
C      1  0.4739240000000  0.4533000000000  0.5672890000000 1.0
C      1  0.5254310000000  0.5463990000000  0.5672890000000 1.0
C      1  0.4531280000000  0.5670440000000  0.4743410000000 1.0
C      1  0.5462270000000  0.5670440000000  0.5258480000000 1.0
C      1  0.4531280000000  0.4326540000000  0.5258480000000 1.0
C      1  0.4739240000000  0.4326540000000  0.5466440000000 1.0
C      1  0.5462270000000  0.4740960000000  0.4329000000000 1.0
C      1  0.4324830000000  0.5463990000000  0.4743410000000 1.0
C      1  0.5254310000000  0.5670440000000  0.5466440000000 1.0
C      1  0.5254310000000  0.4326540000000  0.4535450000000 1.0
C      1  0.4739240000000  0.5670440000000  0.4535450000000 1.0
C      1  0.4531280000000  0.5256030000000  0.4329000000000 1.0
C      1  0.4531280000000  0.4740960000000  0.5672890000000 1.0
C      1  0.5462270000000  0.5256030000000  0.5672890000000 1.0
C      1  0.5668730000000  0.4533000000000  0.4743410000000 1.0
C      1  0.5668730000000  0.5463990000000  0.5258480000000 1.0
C      1  0.4324830000000  0.4533000000000  0.5258480000000 1.0
C      1  0.4996780000000  0.4998490000000  0.4284300000000 1.0
C      1  0.4996780000000  0.4281850000000  0.5000940000000 1.0
C      1  0.4280140000000  0.4998490000000  0.5000940000000 1.0
C      1  0.4996780000000  0.4998490000000  0.5717580000000 1.0
C      1  0.4996780000000  0.5715130000000  0.5000940000000 1.0
C      1  0.5713420000000  0.4998490000000  0.5000940000000 1.0
END
