TITL C-862503-991-191 -4.6248323982737e-08 125000 -28.2057258036975 0 0 8 (Oh) n - 1
REM
REM in /home/nfs/bkarasulu/CARBON/AIRSS/Generating-Clusters/TERSOFF/Higher-Symm/FIRE-HFTN
REM
REM
REM
REM
REM
REM ./C.cell (b20cbc046b6831c77cfcea5457e17084)
REM AIRSS Version 0.9.1 bugfix July 2018 build 013d7b7c2542+ Fri, 06 Jul 2018 19:26:36 +0100
REM compiler GCC version 9.2.1 20190827 (Red Hat 9.2.1-1)
REM options -cpp -mtune=generic -march=x86-64 -g -O0 -fpre-include=/usr/include/finclude/math-vector-fortran.h
REM seed 2135876841 1442537046 1690997921 -1798639997 -1936595724 -1184337019 318656300 -997510418 -321820012 -943811366 -5473370 -1944168946 -291721693 328123948 -1641296329 926152197 638575536 1180848976 194325635 -1383370435 -1505432308 150406612 -1030870986 -1608667731 -109975510 1115307257 -827821597 2010158893 1566032955 -39991913 200878013 193604226 495247553
REM
CELL 1.54180   50.00000   50.00000   50.00000   90.00000   90.00000   90.00000
LATT -1
SFAC C  
C      1  0.4837120000000  0.5171520000000  0.5167470000000 1.0
C      1  0.5171700000000  0.4836940000000  0.5167470000000 1.0
C      1  0.5171700000000  0.5171520000000  0.4832890000000 1.0
C      1  0.4837120000000  0.4836940000000  0.4832890000000 1.0
C      1  0.4837120000000  0.4836940000000  0.5167470000000 1.0
C      1  0.4837120000000  0.5171520000000  0.4832890000000 1.0
C      1  0.5171700000000  0.4836940000000  0.4832890000000 1.0
C      1  0.5171700000000  0.5171520000000  0.5167470000000 1.0
END
