TITL C-862131-2149-702 0.00865003790141589 125000 -596.290561012612 0 0 104 (C1) n - 1
REM
REM in /home/nfs/bkarasulu/CARBON/AIRSS/Generating-Clusters/TERSOFF/Higher-Symm/FIRE-HFTN
REM
REM
REM
REM
REM
REM ./C.cell (b20cbc046b6831c77cfcea5457e17084)
REM AIRSS Version 0.9.1 bugfix July 2018 build 013d7b7c2542+ Fri, 06 Jul 2018 19:26:36 +0100
REM compiler GCC version 9.2.1 20190827 (Red Hat 9.2.1-1)
REM options -cpp -mtune=generic -march=x86-64 -g -O0 -fpre-include=/usr/include/finclude/math-vector-fortran.h
REM seed 803770195 1898486103 1567127440 1546771037 1174828421 -1706177287 1437610507 -21123096 -961787908 -567067446 1223157462 659645268 1651010944 981623886 -594418702 -2102215827 974238513 1149987645 -179712964 1721006074 43861182 971005305 -1795360856 -2016821305 -301377989 -944930547 -1510989559 -582708546 539923798 1217077262 1919925967 1671152252 40892325
REM
CELL 1.54180   50.00000   50.00000   50.00000   90.00000   90.00000   90.00000
LATT -1
SFAC C  
C      1  0.5854610000000  0.4617590000000  0.5126680000000 1.0
C      1  0.5341090000000  0.4460800000000  0.4806030000000 1.0
C      1  0.4967260000000  0.5011430000000  0.3968220000000 1.0
C      1  0.5292260000000  0.5203780000000  0.5274570000000 1.0
C      1  0.4419090000000  0.5005480000000  0.4399840000000 1.0
C      1  0.4711840000000  0.5079620000000  0.5133010000000 1.0
C      1  0.4983730000000  0.5528650000000  0.4016620000000 1.0
C      1  0.4439890000000  0.5750200000000  0.4761420000000 1.0
C      1  0.4095260000000  0.5231950000000  0.5433540000000 1.0
C      1  0.4625800000000  0.4299200000000  0.5465190000000 1.0
C      1  0.4341750000000  0.5240590000000  0.4586500000000 1.0
C      1  0.5523620000000  0.4253760000000  0.5240530000000 1.0
C      1  0.5411940000000  0.4430820000000  0.5732840000000 1.0
C      1  0.5225170000000  0.4223290000000  0.5167010000000 1.0
C      1  0.5615830000000  0.4374140000000  0.4746040000000 1.0
C      1  0.4879690000000  0.4492450000000  0.4153030000000 1.0
C      1  0.5155780000000  0.4237490000000  0.4857360000000 1.0
C      1  0.4787700000000  0.5336010000000  0.5593640000000 1.0
C      1  0.5703380000000  0.5458520000000  0.5342810000000 1.0
C      1  0.5643940000000  0.4593460000000  0.4547310000000 1.0
C      1  0.5767420000000  0.5052540000000  0.5575920000000 1.0
C      1  0.4965980000000  0.5407900000000  0.4951020000000 1.0
C      1  0.4167200000000  0.5164360000000  0.4822760000000 1.0
C      1  0.5881140000000  0.5214070000000  0.5354250000000 1.0
C      1  0.5826420000000  0.4809460000000  0.4652910000000 1.0
C      1  0.4844670000000  0.5616480000000  0.5549490000000 1.0
C      1  0.5474350000000  0.5391110000000  0.4792230000000 1.0
C      1  0.5936550000000  0.5130710000000  0.5059990000000 1.0
C      1  0.5550770000000  0.5124760000000  0.4629840000000 1.0
C      1  0.4313850000000  0.5408630000000  0.5514560000000 1.0
C      1  0.5269390000000  0.4670690000000  0.5825400000000 1.0
C      1  0.5703020000000  0.5596830000000  0.5078190000000 1.0
C      1  0.5305060000000  0.4720750000000  0.4953590000000 1.0
C      1  0.5164500000000  0.5149050000000  0.6256790000000 1.0
C      1  0.4886940000000  0.4685950000000  0.4939410000000 1.0
C      1  0.4663990000000  0.4349550000000  0.4823650000000 1.0
C      1  0.4424060000000  0.4553570000000  0.4671640000000 1.0
C      1  0.5006160000000  0.5022200000000  0.5765100000000 1.0
C      1  0.4438010000000  0.4279340000000  0.4477180000000 1.0
C      1  0.4215210000000  0.4942960000000  0.5020290000000 1.0
C      1  0.4453450000000  0.5164610000000  0.5958220000000 1.0
C      1  0.4759500000000  0.5338900000000  0.4367530000000 1.0
C      1  0.4607870000000  0.4085280000000  0.5270910000000 1.0
C      1  0.4695220000000  0.4132750000000  0.4465800000000 1.0
C      1  0.4893960000000  0.5696290000000  0.5046780000000 1.0
C      1  0.5068090000000  0.5846220000000  0.4426390000000 1.0
C      1  0.5136890000000  0.4823030000000  0.4515990000000 1.0
C      1  0.5585770000000  0.4419480000000  0.5493510000000 1.0
C      1  0.4592840000000  0.5015440000000  0.4158010000000 1.0
C      1  0.5721330000000  0.4365800000000  0.5023510000000 1.0
C      1  0.5250540000000  0.5641280000000  0.5440060000000 1.0
C      1  0.5348250000000  0.4629690000000  0.4413410000000 1.0
C      1  0.4374660000000  0.5550080000000  0.4529310000000 1.0
C      1  0.4557670000000  0.4124490000000  0.4987510000000 1.0
C      1  0.5273850000000  0.4932460000000  0.5671010000000 1.0
C      1  0.4572920000000  0.5260030000000  0.4956590000000 1.0
C      1  0.5023950000000  0.4672220000000  0.6030030000000 1.0
C      1  0.4134330000000  0.4967920000000  0.5313650000000 1.0
C      1  0.5495480000000  0.5142010000000  0.5673700000000 1.0
C      1  0.4955810000000  0.5274760000000  0.4552830000000 1.0
C      1  0.5415030000000  0.5205930000000  0.4345360000000 1.0
C      1  0.4516590000000  0.5291790000000  0.5695480000000 1.0
C      1  0.4803100000000  0.5284590000000  0.4069170000000 1.0
C      1  0.5778980000000  0.4634290000000  0.5415460000000 1.0
C      1  0.5463570000000  0.5068210000000  0.4093230000000 1.0
C      1  0.4577660000000  0.5715260000000  0.4360960000000 1.0
C      1  0.5194790000000  0.5756160000000  0.5169680000000 1.0
C      1  0.5000550000000  0.4995150000000  0.6074550000000 1.0
C      1  0.4931040000000  0.4276830000000  0.4637150000000 1.0
C      1  0.4710400000000  0.5701400000000  0.5306980000000 1.0
C      1  0.4640020000000  0.4711750000000  0.5388960000000 1.0
C      1  0.5231880000000  0.5275230000000  0.4992530000000 1.0
C      1  0.5884710000000  0.4854260000000  0.4946760000000 1.0
C      1  0.4532860000000  0.4890640000000  0.6039540000000 1.0
C      1  0.5337920000000  0.4997420000000  0.4840330000000 1.0
C      1  0.4894330000000  0.4404770000000  0.5521220000000 1.0
C      1  0.4395470000000  0.4701260000000  0.4961550000000 1.0
C      1  0.4796210000000  0.5841980000000  0.4517530000000 1.0
C      1  0.4424730000000  0.5587190000000  0.5291920000000 1.0
C      1  0.4907760000000  0.4715150000000  0.4654060000000 1.0
C      1  0.5279970000000  0.5853210000000  0.4631860000000 1.0
C      1  0.5432930000000  0.5400590000000  0.5465350000000 1.0
C      1  0.4313030000000  0.4490050000000  0.5154710000000 1.0
C      1  0.4402420000000  0.4517680000000  0.5440350000000 1.0
C      1  0.4794150000000  0.4768060000000  0.4057850000000 1.0
C      1  0.4728080000000  0.5838930000000  0.4817920000000 1.0
C      1  0.4671160000000  0.4793880000000  0.5099520000000 1.0
C      1  0.4307550000000  0.4745580000000  0.4466080000000 1.0
C      1  0.4382120000000  0.5448200000000  0.5045500000000 1.0
C      1  0.5252870000000  0.4999520000000  0.3907410000000 1.0
C      1  0.5162130000000  0.5100500000000  0.4473370000000 1.0
C      1  0.4771400000000  0.4852390000000  0.5624180000000 1.0
C      1  0.4731390000000  0.4725910000000  0.5897330000000 1.0
C      1  0.5874820000000  0.5394250000000  0.4913610000000 1.0
C      1  0.5161940000000  0.5648810000000  0.4215890000000 1.0
C      1  0.5062910000000  0.4431810000000  0.4383180000000 1.0
C      1  0.5101810000000  0.4444890000000  0.5319320000000 1.0
C      1  0.5197370000000  0.4707660000000  0.5221270000000 1.0
C      1  0.5230550000000  0.4939770000000  0.5383350000000 1.0
C      1  0.5460140000000  0.5622380000000  0.4603830000000 1.0
C      1  0.5449770000000  0.5753580000000  0.5002670000000 1.0
C      1  0.5402960000000  0.5505720000000  0.4332520000000 1.0
C      1  0.4879540000000  0.5169020000000  0.5364730000000 1.0
C      1  0.4184680000000  0.4735470000000  0.5494620000000 1.0
END
