TITL C-862134-6730-389 -0.0383675496041693 125000 -400.691558044951 0 0 73 (C3) n - 1
REM
REM in /home/nfs/bkarasulu/CARBON/AIRSS/Generating-Clusters/TERSOFF/Higher-Symm/FIRE-HFTN
REM
REM
REM
REM
REM
REM ./C.cell (b20cbc046b6831c77cfcea5457e17084)
REM AIRSS Version 0.9.1 bugfix July 2018 build 013d7b7c2542+ Fri, 06 Jul 2018 19:26:36 +0100
REM compiler GCC version 9.2.1 20190827 (Red Hat 9.2.1-1)
REM options -cpp -mtune=generic -march=x86-64 -g -O0 -fpre-include=/usr/include/finclude/math-vector-fortran.h
REM seed -1992494411 1523771513 -2051954438 2132887139 1248191106 -580643493 -372470575 890698700 1434478565 1989012251 -900652482 1106838346 1277072882 66679558 1470308299 -1970993836 552322567 1288390053 -1549720961 -1683746940 87927000 1641055366 873656338 -759363098 -649679033 -1335343209 -794490670 -1959442222 120042435 1931405546 54788183 -1943853042 423116660
REM
CELL 1.54180   50.00000   50.00000   50.00000   90.00000   90.00000   90.00000
LATT -1
SFAC C  
C      1  0.5165510000000  0.5489260000000  0.4386430000000 1.0
C      1  0.5450340000000  0.5489260000000  0.5451390000000 1.0
C      1  0.4385640000000  0.5489260000000  0.5165580000000 1.0
C      1  0.4876190000000  0.4840900000000  0.5252730000000 1.0
C      1  0.4844760000000  0.4840900000000  0.4767670000000 1.0
C      1  0.5280550000000  0.4840900000000  0.4982980000000 1.0
C      1  0.5590950000000  0.4825880000000  0.5004620000000 1.0
C      1  0.4702250000000  0.4825880000000  0.5510730000000 1.0
C      1  0.4708300000000  0.4825880000000  0.4488030000000 1.0
C      1  0.5069870000000  0.5093410000000  0.5526630000000 1.0
C      1  0.4510720000000  0.5093420000000  0.4798460000000 1.0
C      1  0.5420910000000  0.5093420000000  0.4678300000000 1.0
C      1  0.4519470000000  0.4600750000000  0.5121860000000 1.0
C      1  0.5136460000000  0.4600750000000  0.4524170000000 1.0
C      1  0.5345570000000  0.4600750000000  0.5357350000000 1.0
C      1  0.5045690000000  0.5523130000000  0.5344260000000 1.0
C      1  0.4680740000000  0.5523130000000  0.4868700000000 1.0
C      1  0.5275070000000  0.5523130000000  0.4790430000000 1.0
C      1  0.4945230000000  0.4609380000000  0.5596090000000 1.0
C      1  0.4512880000000  0.4609390000000  0.4655780000000 1.0
C      1  0.5543390000000  0.4609390000000  0.4751510000000 1.0
C      1  0.4692350000000  0.5220320000000  0.5043880000000 1.0
C      1  0.5117550000000  0.5220320000000  0.4712890000000 1.0
C      1  0.5191590000000  0.5220320000000  0.5246620000000 1.0
C      1  0.5697150000000  0.5133300000000  0.5424710000000 1.0
C      1  0.4285340000000  0.5133290000000  0.5392650000000 1.0
C      1  0.5019010000000  0.5133300000000  0.4186020000000 1.0
C      1  0.4770690000000  0.4204520000000  0.5274460000000 1.0
C      1  0.4878690000000  0.4204530000000  0.4665440000000 1.0
C      1  0.5352120000000  0.4204530000000  0.5063480000000 1.0
C      1  0.5598510000000  0.5572060000000  0.5204960000000 1.0
C      1  0.4524970000000  0.5572060000000  0.5417110000000 1.0
C      1  0.4878010000000  0.5572060000000  0.4381330000000 1.0
C      1  0.4909360000000  0.5125560000000  0.4466080000000 1.0
C      1  0.5509440000000  0.5125560000000  0.5189720000000 1.0
C      1  0.4582700000000  0.5125560000000  0.5347580000000 1.0
C      1  0.5384220000000  0.4931450000000  0.4231320000000 1.0
C      1  0.5475310000000  0.4931440000000  0.5718340000000 1.0
C      1  0.4141970000000  0.4931440000000  0.5053720000000 1.0
C      1  0.5292660000000  0.5278480000000  0.4196360000000 1.0
C      1  0.5551370000000  0.5278480000000  0.5656530000000 1.0
C      1  0.4157470000000  0.5278480000000  0.5150490000000 1.0
C      1  0.4722240000000  0.5164320000000  0.5899790000000 1.0
C      1  0.4361370000000  0.5164330000000  0.4310810000000 1.0
C      1  0.5917900000000  0.5164330000000  0.4792780000000 1.0
C      1  0.5475080000000  0.4848930000000  0.4518920000000 1.0
C      1  0.5180820000000  0.4848930000000  0.5653230000000 1.0
C      1  0.4345600000000  0.4848930000000  0.4831240000000 1.0
C      1  0.4944000000000  0.4676880000000  0.4314600000000 1.0
C      1  0.5623290000000  0.4676880000000  0.5295460000000 1.0
C      1  0.4434200000000  0.4676880000000  0.5393320000000 1.0
C      1  0.5141640000000  0.4329350000000  0.4612390000000 1.0
C      1  0.5266580000000  0.4329340000000  0.5317720000000 1.0
C      1  0.4593280000000  0.4329340000000  0.5073260000000 1.0
C      1  0.4715950000000  0.4801930000000  0.5022520000000 1.0
C      1  0.5124250000000  0.4801930000000  0.4744000000000 1.0
C      1  0.5161300000000  0.4801930000000  0.5236860000000 1.0
C      1  0.5132780000000  0.5766360000000  0.4858010000000 1.0
C      1  0.5058310000000  0.5766360000000  0.5187250000000 1.0
C      1  0.4810410000000  0.5766360000000  0.4958130000000 1.0
C      1  0.4666730000000  0.5483140000000  0.4572610000000 1.0
C      1  0.5538490000000  0.5483140000000  0.4926340000000 1.0
C      1  0.4796270000000  0.5483130000000  0.5504440000000 1.0
C      1  0.4989520000000  0.4346550000000  0.5420410000000 1.0
C      1  0.4642880000000  0.4346550000000  0.4781970000000 1.0
C      1  0.5369100000000  0.4346550000000  0.4801000000000 1.0
C      1  0.4849760000000  0.5238890000000  0.5650880000000 1.0
C      1  0.4513160000000  0.5238890000000  0.4545710000000 1.0
C      1  0.5638570000000  0.5238900000000  0.4806790000000 1.0
C      1  0.5723790000000  0.4841880000000  0.5518510000000 1.0
C      1  0.4190790000000  0.4841880000000  0.5368830000000 1.0
C      1  0.5086920000000  0.4841890000000  0.4116050000000 1.0
C      1  0.5000500000000  0.5178040000000  0.5001130000000 1.0
END
