TITL C-862129-6180-1043 10.1110025977586 125000 -866.684109056806 0 0 145 (C3) n - 1
REM
REM in /home/nfs/bkarasulu/CARBON/AIRSS/Generating-Clusters/TERSOFF/Higher-Symm/FIRE-HFTN
REM
REM
REM
REM
REM
REM ./C.cell (b20cbc046b6831c77cfcea5457e17084)
REM AIRSS Version 0.9.1 bugfix July 2018 build 013d7b7c2542+ Fri, 06 Jul 2018 19:26:36 +0100
REM compiler GCC version 9.2.1 20190827 (Red Hat 9.2.1-1)
REM options -cpp -mtune=generic -march=x86-64 -g -O0 -fpre-include=/usr/include/finclude/math-vector-fortran.h
REM seed -291604400 525607632 -446071316 -1698104756 -1292599883 1890464649 -912798760 114130827 -1571786437 68805104 1536952265 1024391595 549029706 72092197 2031859291 1524738209 -517999919 -1403524972 894779992 -1524105076 638156391 284892380 843345905 1476561509 -580041163 1219643616 -327233030 1351354979 226070318 62509320 172753656 -1824278048 -1662751064
REM
CELL 1.54180   50.00000   50.00000   50.00000   90.00000   90.00000   90.00000
LATT -1
SFAC C  
C      1  0.4581130000000  0.5443530000000  0.5198060000000 1.0
C      1  0.4821460000000  0.4411890000000  0.5198060000000 1.0
C      1  0.5594730000000  0.5135840000000  0.5198060000000 1.0
C      1  0.4826420000000  0.4353730000000  0.4307110000000 1.0
C      1  0.5642610000000  0.5169210000000  0.4307110000000 1.0
C      1  0.4528290000000  0.5468320000000  0.4307110000000 1.0
C      1  0.5486860000000  0.4075620000000  0.4347340000000 1.0
C      1  0.5553240000000  0.5880230000000  0.4347340000000 1.0
C      1  0.3957220000000  0.5035410000000  0.4347340000000 1.0
C      1  0.5438390000000  0.4594420000000  0.4141670000000 1.0
C      1  0.5128180000000  0.5578850000000  0.4141670000000 1.0
C      1  0.4430750000000  0.4817980000000  0.4141670000000 1.0
C      1  0.4794090000000  0.4342660000000  0.5720380000000 1.0
C      1  0.5668360000000  0.5146750000000  0.5720380000000 1.0
C      1  0.4534870000000  0.5501840000000  0.5720380000000 1.0
C      1  0.4813160000000  0.5578280000000  0.5333540000000 1.0
C      1  0.4588740000000  0.4545460000000  0.5333540000000 1.0
C      1  0.5595410000000  0.4867520000000  0.5333540000000 1.0
C      1  0.5014330000000  0.4175510000000  0.5597760000000 1.0
C      1  0.5702990000000  0.5421060000000  0.5597750000000 1.0
C      1  0.4279990000000  0.5394680000000  0.5597750000000 1.0
C      1  0.5087390000000  0.5937800000000  0.5778430000000 1.0
C      1  0.4140280000000  0.4603180000000  0.5778430000000 1.0
C      1  0.5769650000000  0.4450270000000  0.5778430000000 1.0
C      1  0.4591470000000  0.5184180000000  0.4419300000000 1.0
C      1  0.5040890000000  0.4550520000000  0.4419300000000 1.0
C      1  0.5364950000000  0.5256560000000  0.4419300000000 1.0
C      1  0.4380830000000  0.5658910000000  0.4743230000000 1.0
C      1  0.4735080000000  0.4130730000000  0.4743230000000 1.0
C      1  0.5881400000000  0.5201610000000  0.4743230000000 1.0
C      1  0.5300420000000  0.4216920000000  0.5702710000000 1.0
C      1  0.5524090000000  0.5648110000000  0.5702710000000 1.0
C      1  0.4172810000000  0.5126220000000  0.5702710000000 1.0
C      1  0.5239820000000  0.5418930000000  0.5154530000000 1.0
C      1  0.4513420000000  0.4994630000000  0.5154530000000 1.0
C      1  0.5244080000000  0.4577700000000  0.5154530000000 1.0
C      1  0.5383750000000  0.5178810000000  0.5012270000000 1.0
C      1  0.4649400000000  0.5239330000000  0.5012270000000 1.0
C      1  0.4964160000000  0.4573110000000  0.5012270000000 1.0
C      1  0.5928740000000  0.4210160000000  0.5197710000000 1.0
C      1  0.5215780000000  0.6195630000000  0.5197710000000 1.0
C      1  0.3852790000000  0.4585460000000  0.5197710000000 1.0
C      1  0.5083320000000  0.6268840000000  0.4942910000000 1.0
C      1  0.3855630000000  0.4434140000000  0.4942910000000 1.0
C      1  0.6058370000000  0.4288270000000  0.4942910000000 1.0
C      1  0.4637880000000  0.4858240000000  0.5400190000000 1.0
C      1  0.5299960000000  0.4753680000000  0.5400190000000 1.0
C      1  0.5059480000000  0.5379340000000  0.5400190000000 1.0
C      1  0.4315200000000  0.5443340000000  0.5314970000000 1.0
C      1  0.4954590000000  0.4181680000000  0.5314970000000 1.0
C      1  0.5727530000000  0.5366230000000  0.5314970000000 1.0
C      1  0.4863700000000  0.4855190000000  0.6254560000000 1.0
C      1  0.5189690000000  0.4950770000000  0.6254560000000 1.0
C      1  0.4943920000000  0.5185300000000  0.6254560000000 1.0
C      1  0.5241150000000  0.5008250000000  0.4039530000000 1.0
C      1  0.4868410000000  0.5201120000000  0.4039530000000 1.0
C      1  0.4887760000000  0.4781880000000  0.4039530000000 1.0
C      1  0.5701390000000  0.4707040000000  0.5096310000000 1.0
C      1  0.4899150000000  0.5750310000000  0.5096310000000 1.0
C      1  0.4396770000000  0.4533910000000  0.5096310000000 1.0
C      1  0.4051100000000  0.4788270000000  0.5293420000000 1.0
C      1  0.5653950000000  0.4280490000000  0.5293420000000 1.0
C      1  0.5292270000000  0.5922490000000  0.5293420000000 1.0
C      1  0.5036680000000  0.5334950000000  0.4284430000000 1.0
C      1  0.4687720000000  0.4860690000000  0.4284430000000 1.0
C      1  0.5272920000000  0.4795610000000  0.4284430000000 1.0
C      1  0.4439740000000  0.5856430000000  0.4950720000000 1.0
C      1  0.4534570000000  0.4082990000000  0.4950720000000 1.0
C      1  0.6023000000000  0.5051830000000  0.4950720000000 1.0
C      1  0.5334190000000  0.5697720000000  0.5108220000000 1.0
C      1  0.4224790000000  0.4936960000000  0.5108220000000 1.0
C      1  0.5438330000000  0.4356570000000  0.5108220000000 1.0
C      1  0.5306440000000  0.4128510000000  0.4124190000000 1.0
C      1  0.5597640000000  0.5697530000000  0.4124190000000 1.0
C      1  0.4093240000000  0.5165210000000  0.4124190000000 1.0
C      1  0.4644700000000  0.4995050000000  0.5714130000000 1.0
C      1  0.5178070000000  0.4691180000000  0.5714130000000 1.0
C      1  0.5174550000000  0.5305030000000  0.5714130000000 1.0
C      1  0.4316580000000  0.4268750000000  0.5011270000000 1.0
C      1  0.5971130000000  0.4770170000000  0.5011270000000 1.0
C      1  0.4709610000000  0.5952340000000  0.5011270000000 1.0
C      1  0.4140570000000  0.4311190000000  0.4547880000000 1.0
C      1  0.6022380000000  0.4596520000000  0.4547880000000 1.0
C      1  0.4834370000000  0.6083550000000  0.4547880000000 1.0
C      1  0.5877620000000  0.4385250000000  0.4420000000000 1.0
C      1  0.5089710000000  0.6063820000000  0.4420000000000 1.0
C      1  0.4029980000000  0.4542190000000  0.4420000000000 1.0
C      1  0.5447600000000  0.4442910000000  0.4697550000000 1.0
C      1  0.5254780000000  0.5662580000000  0.4697540000000 1.0
C      1  0.4294930000000  0.4885760000000  0.4697550000000 1.0
C      1  0.5299530000000  0.5534110000000  0.5870820000000 1.0
C      1  0.4383810000000  0.4988750000000  0.5870820000000 1.0
C      1  0.5313970000000  0.4468390000000  0.5870820000000 1.0
C      1  0.4086890000000  0.4285180000000  0.4836650000000 1.0
C      1  0.6071740000000  0.4563030000000  0.4836650000000 1.0
C      1  0.4838690000000  0.6143040000000  0.4836650000000 1.0
C      1  0.5001280000000  0.5599100000000  0.4859530000000 1.0
C      1  0.4476660000000  0.4697960000000  0.4859530000000 1.0
C      1  0.5519380000000  0.4694190000000  0.4859530000000 1.0
C      1  0.4578610000000  0.5248040000000  0.3953140000000 1.0
C      1  0.4992010000000  0.4507450000000  0.3953140000000 1.0
C      1  0.5426690000000  0.5235760000000  0.3953140000000 1.0
C      1  0.5356750000000  0.4907450000000  0.6026660000000 1.0
C      1  0.4897900000000  0.5351640000000  0.6026660000000 1.0
C      1  0.4742650000000  0.4732170000000  0.6026660000000 1.0
C      1  0.4854020000000  0.4754820000000  0.4531810000000 1.0
C      1  0.5281450000000  0.4992570000000  0.4531810000000 1.0
C      1  0.4861840000000  0.5243860000000  0.4531800000000 1.0
C      1  0.4761920000000  0.4684020000000  0.4797270000000 1.0
C      1  0.5388820000000  0.4948210000000  0.4797270000000 1.0
C      1  0.4846580000000  0.5359020000000  0.4797260000000 1.0
C      1  0.5676450000000  0.5399310000000  0.4807150000000 1.0
C      1  0.4312100000000  0.5382580000000  0.4807150000000 1.0
C      1  0.5008760000000  0.4209370000000  0.4807150000000 1.0
C      1  0.4540180000000  0.4372550000000  0.5565960000000 1.0
C      1  0.5769430000000  0.4911910000000  0.5565960000000 1.0
C      1  0.4687700000000  0.5706800000000  0.5565960000000 1.0
C      1  0.4347090000000  0.5067380000000  0.4022110000000 1.0
C      1  0.5264240000000  0.4397280000000  0.4022110000000 1.0
C      1  0.5385990000000  0.5526600000000  0.4022110000000 1.0
C      1  0.5599140000000  0.4275790000000  0.5582100000000 1.0
C      1  0.5323750000000  0.5877380000000  0.5582100000000 1.0
C      1  0.4074430000000  0.4838090000000  0.5582100000000 1.0
C      1  0.5620080000000  0.4286690000000  0.4506920000000 1.0
C      1  0.5303840000000  0.5890060000000  0.4506920000000 1.0
C      1  0.4073400000000  0.4814500000000  0.4506920000000 1.0
C      1  0.4400100000000  0.5149820000000  0.4649510000000 1.0
C      1  0.5166340000000  0.4401960000000  0.4649510000000 1.0
C      1  0.5430880000000  0.5439470000000  0.4649510000000 1.0
C      1  0.4643140000000  0.4196100000000  0.4477090000000 1.0
C      1  0.5870760000000  0.5089310000000  0.4477090000000 1.0
C      1  0.4483410000000  0.5705850000000  0.4477090000000 1.0
C      1  0.6040440000000  0.4858750000000  0.4415190000000 1.0
C      1  0.4598240000000  0.5968070000000  0.4415190000000 1.0
C      1  0.4358640000000  0.4164430000000  0.4415190000000 1.0
C      1  0.5908430000000  0.4686490000000  0.5682710000000 1.0
C      1  0.4813430000000  0.5939890000000  0.5682710000000 1.0
C      1  0.4275450000000  0.4364890000000  0.5682710000000 1.0
C      1  0.4888960000000  0.4604330000000  0.5808700000000 1.0
C      1  0.5394320000000  0.5098070000000  0.5808700000000 1.0
C      1  0.4714040000000  0.5288860000000  0.5808700000000 1.0
C      1  0.4287860000000  0.4742640000000  0.5991570000000 1.0
C      1  0.5575080000000  0.4508360000000  0.5991570000000 1.0
C      1  0.5134360000000  0.5740260000000  0.5991570000000 1.0
C      1  0.4999100000000  0.4997090000000  0.4568930000000 1.0
END
