TITL C-862500-986-132 0.00640308336978344 125000 -935.229903386872 0 0 168 (C1) n - 1
REM
REM in /home/nfs/bkarasulu/CARBON/AIRSS/Generating-Clusters/TERSOFF/Higher-Symm/FIRE-HFTN
REM
REM
REM
REM
REM
REM ./C.cell (b20cbc046b6831c77cfcea5457e17084)
REM AIRSS Version 0.9.1 bugfix July 2018 build 013d7b7c2542+ Fri, 06 Jul 2018 19:26:36 +0100
REM compiler GCC version 9.2.1 20190827 (Red Hat 9.2.1-1)
REM options -cpp -mtune=generic -march=x86-64 -g -O0 -fpre-include=/usr/include/finclude/math-vector-fortran.h
REM seed 647524232 35565435 -1703298321 -1826793027 969357507 1972644586 537728275 884673215 -63128318 402036088 -8134388 -1794838136 -1787693500 96229850 -1989160965 -2090422571 1420946977 282674629 1960930797 -119741235 1879344204 260439616 -710598107 -1746389758 528117277 -1456241028 -1845443758 729477627 -1459976641 -236897623 -1697853050 -366141856 634506733
REM
CELL 1.54180   50.00000   50.00000   50.00000   90.00000   90.00000   90.00000
LATT -1
SFAC C  
C      1  0.5372630000000  0.3981540000000  0.4498830000000 1.0
C      1  0.4760340000000  0.3985480000000  0.4422090000000 1.0
C      1  0.4372680000000  0.3966910000000  0.4928190000000 1.0
C      1  0.4621460000000  0.3981750000000  0.5496260000000 1.0
C      1  0.5241790000000  0.3982850000000  0.5575030000000 1.0
C      1  0.5625220000000  0.3961680000000  0.5078050000000 1.0
C      1  0.5381460000000  0.6020590000000  0.5503230000000 1.0
C      1  0.4746400000000  0.6009440000000  0.5587910000000 1.0
C      1  0.4372590000000  0.6027070000000  0.5073460000000 1.0
C      1  0.4617560000000  0.6005230000000  0.4486770000000 1.0
C      1  0.5239040000000  0.6032010000000  0.4419720000000 1.0
C      1  0.5632650000000  0.6011060000000  0.4933470000000 1.0
C      1  0.4885290000000  0.3935810000000  0.4710390000000 1.0
C      1  0.4689480000000  0.3914180000000  0.4948210000000 1.0
C      1  0.4805730000000  0.4001980000000  0.5225850000000 1.0
C      1  0.5113670000000  0.3935040000000  0.5288290000000 1.0
C      1  0.5308760000000  0.3912710000000  0.5051970000000 1.0
C      1  0.5192870000000  0.3998700000000  0.4772010000000 1.0
C      1  0.4891800000000  0.5997030000000  0.5291360000000 1.0
C      1  0.4690790000000  0.6059730000000  0.5053960000000 1.0
C      1  0.4799980000000  0.5995070000000  0.4762880000000 1.0
C      1  0.5103280000000  0.6058920000000  0.4707870000000 1.0
C      1  0.5304960000000  0.5999930000000  0.4950280000000 1.0
C      1  0.5200900000000  0.6057560000000  0.5241110000000 1.0
C      1  0.4730480000000  0.5667520000000  0.4852140000000 1.0
C      1  0.4728990000000  0.5567930000000  0.5157640000000 1.0
C      1  0.5007550000000  0.5667890000000  0.5305660000000 1.0
C      1  0.5272360000000  0.5567150000000  0.5151310000000 1.0
C      1  0.5261710000000  0.5672120000000  0.4838480000000 1.0
C      1  0.4998000000000  0.5569570000000  0.4685290000000 1.0
C      1  0.4737820000000  0.4327440000000  0.5144900000000 1.0
C      1  0.4735570000000  0.4435360000000  0.4842080000000 1.0
C      1  0.5027110000000  0.4440510000000  0.4681530000000 1.0
C      1  0.5264400000000  0.4323310000000  0.4856100000000 1.0
C      1  0.5266430000000  0.4431560000000  0.5159520000000 1.0
C      1  0.4975750000000  0.4440340000000  0.5320230000000 1.0
C      1  0.5682720000000  0.5900570000000  0.5190180000000 1.0
C      1  0.5506310000000  0.5937770000000  0.4485150000000 1.0
C      1  0.4829690000000  0.5913140000000  0.4321390000000 1.0
C      1  0.4300370000000  0.5924350000000  0.4810970000000 1.0
C      1  0.4498250000000  0.5917630000000  0.5484630000000 1.0
C      1  0.5191220000000  0.5923340000000  0.5699840000000 1.0
C      1  0.5699670000000  0.4065160000000  0.4816440000000 1.0
C      1  0.5495060000000  0.4090350000000  0.5497760000000 1.0
C      1  0.4806070000000  0.4097410000000  0.5682350000000 1.0
C      1  0.4302320000000  0.4074870000000  0.5189350000000 1.0
C      1  0.4507110000000  0.4090390000000  0.4501820000000 1.0
C      1  0.5195030000000  0.4105940000000  0.4311830000000 1.0
C      1  0.5753600000000  0.5307260000000  0.5610530000000 1.0
C      1  0.5902430000000  0.5318960000000  0.4651820000000 1.0
C      1  0.5148730000000  0.5314260000000  0.4043920000000 1.0
C      1  0.4247560000000  0.5300900000000  0.4392830000000 1.0
C      1  0.4097750000000  0.5318900000000  0.5349460000000 1.0
C      1  0.4849440000000  0.5310190000000  0.5958600000000 1.0
C      1  0.5753420000000  0.4684610000000  0.4386840000000 1.0
C      1  0.5900070000000  0.4684060000000  0.5342810000000 1.0
C      1  0.5151180000000  0.4683840000000  0.5960710000000 1.0
C      1  0.4244380000000  0.4692570000000  0.5615480000000 1.0
C      1  0.4100600000000  0.4678760000000  0.4659060000000 1.0
C      1  0.4846640000000  0.4688870000000  0.4035130000000 1.0
C      1  0.5492260000000  0.4461380000000  0.3967290000000 1.0
C      1  0.4353940000000  0.4471350000000  0.4062590000000 1.0
C      1  0.3868170000000  0.4468100000000  0.5096420000000 1.0
C      1  0.4502510000000  0.4474490000000  0.6037540000000 1.0
C      1  0.5645000000000  0.4469210000000  0.5935820000000 1.0
C      1  0.6137560000000  0.4473730000000  0.4907690000000 1.0
C      1  0.5492080000000  0.5508470000000  0.6034110000000 1.0
C      1  0.4355160000000  0.5527520000000  0.5947020000000 1.0
C      1  0.3858950000000  0.5509740000000  0.4907680000000 1.0
C      1  0.4502170000000  0.5515900000000  0.3969120000000 1.0
C      1  0.5649640000000  0.5508520000000  0.4051460000000 1.0
C      1  0.6135110000000  0.5538310000000  0.5088740000000 1.0
C      1  0.3994850000000  0.4577230000000  0.5382870000000 1.0
C      1  0.4824860000000  0.4574640000000  0.6069570000000 1.0
C      1  0.5826840000000  0.4574700000000  0.5678260000000 1.0
C      1  0.6006440000000  0.4569600000000  0.4616240000000 1.0
C      1  0.5174250000000  0.4579730000000  0.3929720000000 1.0
C      1  0.4171840000000  0.4569800000000  0.4323010000000 1.0
C      1  0.3993010000000  0.5411670000000  0.4622140000000 1.0
C      1  0.4824270000000  0.5430940000000  0.3938390000000 1.0
C      1  0.5833670000000  0.5428220000000  0.4315510000000 1.0
C      1  0.6006630000000  0.5424420000000  0.5381310000000 1.0
C      1  0.5176440000000  0.5417420000000  0.6062470000000 1.0
C      1  0.4166540000000  0.5440340000000  0.5682160000000 1.0
C      1  0.4716630000000  0.4814430000000  0.5641300000000 1.0
C      1  0.5399610000000  0.4807480000000  0.5546210000000 1.0
C      1  0.5676900000000  0.4794320000000  0.4914470000000 1.0
C      1  0.5285310000000  0.4827080000000  0.4354020000000 1.0
C      1  0.4597790000000  0.4806010000000  0.4451030000000 1.0
C      1  0.4320370000000  0.4809570000000  0.5083590000000 1.0
C      1  0.4721230000000  0.5197310000000  0.4368540000000 1.0
C      1  0.5406140000000  0.5214300000000  0.4456760000000 1.0
C      1  0.5696220000000  0.5181270000000  0.5072770000000 1.0
C      1  0.5267980000000  0.5197340000000  0.5622490000000 1.0
C      1  0.4589540000000  0.5205250000000  0.5562330000000 1.0
C      1  0.4327540000000  0.5196510000000  0.4924120000000 1.0
C      1  0.5654910000000  0.4872320000000  0.5221370000000 1.0
C      1  0.5533760000000  0.4884780000000  0.4532590000000 1.0
C      1  0.4871490000000  0.4876270000000  0.4314590000000 1.0
C      1  0.4343840000000  0.4867760000000  0.4777830000000 1.0
C      1  0.4466690000000  0.4889820000000  0.5467100000000 1.0
C      1  0.5128710000000  0.4871030000000  0.5685950000000 1.0
C      1  0.5666840000000  0.5123880000000  0.4769820000000 1.0
C      1  0.5520530000000  0.5124930000000  0.5448280000000 1.0
C      1  0.4863650000000  0.5117960000000  0.5691040000000 1.0
C      1  0.4346320000000  0.5135720000000  0.5229920000000 1.0
C      1  0.4473450000000  0.5109830000000  0.4542210000000 1.0
C      1  0.5131050000000  0.5132920000000  0.4321650000000 1.0
C      1  0.4265920000000  0.4246330000000  0.4807820000000 1.0
C      1  0.4429720000000  0.4234510000000  0.5556120000000 1.0
C      1  0.5191720000000  0.4253430000000  0.5738000000000 1.0
C      1  0.5737700000000  0.4246760000000  0.5193090000000 1.0
C      1  0.5574400000000  0.4223480000000  0.4448290000000 1.0
C      1  0.4808080000000  0.4261220000000  0.4264020000000 1.0
C      1  0.4249740000000  0.5751220000000  0.5190140000000 1.0
C      1  0.4425050000000  0.5761540000000  0.4444580000000 1.0
C      1  0.5210440000000  0.5749820000000  0.4253940000000 1.0
C      1  0.5764150000000  0.5778320000000  0.4775730000000 1.0
C      1  0.5536940000000  0.5738830000000  0.5548970000000 1.0
C      1  0.4808620000000  0.5766760000000  0.5773250000000 1.0
C      1  0.4367980000000  0.4453390000000  0.5765660000000 1.0
C      1  0.5343940000000  0.4445870000000  0.5922970000000 1.0
C      1  0.5970490000000  0.4446990000000  0.5158560000000 1.0
C      1  0.5628360000000  0.4443570000000  0.4239360000000 1.0
C      1  0.4655150000000  0.4449760000000  0.4075490000000 1.0
C      1  0.4032470000000  0.4442260000000  0.4844290000000 1.0
C      1  0.4366710000000  0.5539620000000  0.4239030000000 1.0
C      1  0.5350360000000  0.5544880000000  0.4069280000000 1.0
C      1  0.5970920000000  0.5558880000000  0.4833360000000 1.0
C      1  0.5627180000000  0.5540370000000  0.5766690000000 1.0
C      1  0.4657490000000  0.5549580000000  0.5930610000000 1.0
C      1  0.4020970000000  0.5547590000000  0.5159240000000 1.0
C      1  0.4965360000000  0.4769600000000  0.4650190000000 1.0
C      1  0.4681390000000  0.4767750000000  0.4875170000000 1.0
C      1  0.4730380000000  0.4833280000000  0.5222190000000 1.0
C      1  0.5031100000000  0.4768380000000  0.5349350000000 1.0
C      1  0.5318320000000  0.4763780000000  0.5128150000000 1.0
C      1  0.5273570000000  0.4801980000000  0.4772870000000 1.0
C      1  0.4944950000000  0.5179160000000  0.5340590000000 1.0
C      1  0.4685020000000  0.5242200000000  0.5137880000000 1.0
C      1  0.4735330000000  0.5174900000000  0.4787430000000 1.0
C      1  0.5040750000000  0.5244950000000  0.4659040000000 1.0
C      1  0.5327000000000  0.5204930000000  0.4874490000000 1.0
C      1  0.5273260000000  0.5241410000000  0.5205780000000 1.0
C      1  0.5748970000000  0.5426050000000  0.5208730000000 1.0
C      1  0.5556750000000  0.5454440000000  0.4457110000000 1.0
C      1  0.4806230000000  0.5442360000000  0.4248790000000 1.0
C      1  0.4254910000000  0.5436130000000  0.4789540000000 1.0
C      1  0.4444930000000  0.5449650000000  0.5544600000000 1.0
C      1  0.5190200000000  0.5438750000000  0.5751030000000 1.0
C      1  0.5744130000000  0.4551520000000  0.4784210000000 1.0
C      1  0.5548990000000  0.4565620000000  0.5538820000000 1.0
C      1  0.4801480000000  0.4570590000000  0.5759340000000 1.0
C      1  0.4258400000000  0.4565410000000  0.5216400000000 1.0
C      1  0.4451120000000  0.4562870000000  0.4460430000000 1.0
C      1  0.5196810000000  0.4582840000000  0.4239330000000 1.0
C      1  0.4939830000000  0.4359720000000  0.5616300000000 1.0
C      1  0.5500650000000  0.4351010000000  0.5347140000000 1.0
C      1  0.5567750000000  0.4324050000000  0.4735420000000 1.0
C      1  0.5061880000000  0.4368470000000  0.4383480000000 1.0
C      1  0.4501520000000  0.4350960000000  0.4653780000000 1.0
C      1  0.4436280000000  0.4336080000000  0.5266870000000 1.0
C      1  0.4958200000000  0.5648880000000  0.4387500000000 1.0
C      1  0.5516040000000  0.5678860000000  0.4636400000000 1.0
C      1  0.5553210000000  0.5637050000000  0.5264960000000 1.0
C      1  0.5053860000000  0.5665220000000  0.5626760000000 1.0
C      1  0.4491080000000  0.5652260000000  0.5341370000000 1.0
C      1  0.4430060000000  0.5663280000000  0.4732000000000 1.0
END
