TITL C-862129-6180-1308 1.01891844417443e-05 125000 -47.3365430282885 0 0 10 (C5v) n - 1
REM
REM in /home/nfs/bkarasulu/CARBON/AIRSS/Generating-Clusters/TERSOFF/Higher-Symm/FIRE-HFTN
REM
REM
REM
REM
REM
REM ./C.cell (b20cbc046b6831c77cfcea5457e17084)
REM AIRSS Version 0.9.1 bugfix July 2018 build 013d7b7c2542+ Fri, 06 Jul 2018 19:26:36 +0100
REM compiler GCC version 9.2.1 20190827 (Red Hat 9.2.1-1)
REM options -cpp -mtune=generic -march=x86-64 -g -O0 -fpre-include=/usr/include/finclude/math-vector-fortran.h
REM seed 1546655323 -630094546 -1433941424 -658869129 501980363 991759732 -640113152 1486236065 1819334661 1569744788 796108085 -812216916 -765008278 147919033 965847013 -104976309 1493766510 -997453912 2096484161 -1081625464 184414157 -863747021 -1740753727 -1757788747 410700247 -594435600 -1224514877 726177033 -1872828201 -1985799581 -1387868012 2014119058 450110536
REM
CELL 1.54180   50.00000   50.00000   50.00000   90.00000   90.00000   90.00000
LATT -1
SFAC C  
C      1  0.5137950000000  0.4785400000000  0.4965240000000 1.0
C      1  0.4838530000000  0.4802490000000  0.4965240000000 1.0
C      1  0.4762260000000  0.5092530000000  0.4965240000000 1.0
C      1  0.5014540000000  0.5254700000000  0.4965240000000 1.0
C      1  0.5246730000000  0.5064880000000  0.4965240000000 1.0
C      1  0.4660700000000  0.4584950000000  0.5034760000000 1.0
C      1  0.4500420000000  0.5194440000000  0.5034760000000 1.0
C      1  0.5030540000000  0.5535220000000  0.5034760000000 1.0
C      1  0.5518460000000  0.5136340000000  0.5034760000000 1.0
C      1  0.5289880000000  0.4549050000000  0.5034760000000 1.0
END
