TITL C-862507-1800-886 2.46427401242623e-06 125000 -355.822043627357 0 0 65 (C3h) n - 1
REM
REM in /home/nfs/bkarasulu/CARBON/AIRSS/Generating-Clusters/TERSOFF/Higher-Symm/FIRE-HFTN
REM
REM
REM
REM
REM
REM ./C.cell (b20cbc046b6831c77cfcea5457e17084)
REM AIRSS Version 0.9.1 bugfix July 2018 build 013d7b7c2542+ Fri, 06 Jul 2018 19:26:36 +0100
REM compiler GCC version 9.2.1 20190827 (Red Hat 9.2.1-1)
REM options -cpp -mtune=generic -march=x86-64 -g -O0 -fpre-include=/usr/include/finclude/math-vector-fortran.h
REM seed 1470428241 1085838916 -1206174457 996449560 -282863416 -2068144331 -1656650898 1852371099 -91347274 -634394569 1681946839 -915281239 -2040278175 -796740483 1999257912 -664033095 27815312 -1277238505 226694473 -1121726442 -253891498 -1501996287 -683241865 -780536873 894074637 851372545 -1658152135 -616003821 1491993721 -880142530 491877168 -401426505 -41191674
REM
CELL 1.54180   50.00000   50.00000   50.00000   90.00000   90.00000   90.00000
LATT -1
SFAC C  
C      1  0.4804250000000  0.5552740000000  0.4860070000000 1.0
C      1  0.5222140000000  0.5552740000000  0.4895090000000 1.0
C      1  0.4982860000000  0.5552740000000  0.5239470000000 1.0
C      1  0.4804250000000  0.4413180000000  0.4860070000000 1.0
C      1  0.5222140000000  0.4413180000000  0.4895090000000 1.0
C      1  0.4982860000000  0.4413180000000  0.5239470000000 1.0
C      1  0.5455160000000  0.5145940000000  0.5269010000000 1.0
C      1  0.4542530000000  0.5145940000000  0.5254320000000 1.0
C      1  0.5011560000000  0.5145940000000  0.4471300000000 1.0
C      1  0.5455160000000  0.4819980000000  0.5269010000000 1.0
C      1  0.4542530000000  0.4819980000000  0.5254320000000 1.0
C      1  0.5011560000000  0.4819980000000  0.4471300000000 1.0
C      1  0.5562210000000  0.5215130000000  0.5533240000000 1.0
C      1  0.4260170000000  0.5215130000000  0.5214910000000 1.0
C      1  0.5186870000000  0.5215130000000  0.4246470000000 1.0
C      1  0.5562210000000  0.4750790000000  0.5533240000000 1.0
C      1  0.4260170000000  0.4750790000000  0.5214910000000 1.0
C      1  0.5186870000000  0.4750790000000  0.4246470000000 1.0
C      1  0.4527520000000  0.5601350000000  0.4994000000000 1.0
C      1  0.5244510000000  0.5601350000000  0.4588460000000 1.0
C      1  0.5237220000000  0.5601350000000  0.5412170000000 1.0
C      1  0.4527520000000  0.4364570000000  0.4994000000000 1.0
C      1  0.5244510000000  0.4364570000000  0.4588460000000 1.0
C      1  0.5237220000000  0.4364570000000  0.5412170000000 1.0
C      1  0.5176780000000  0.5144600000000  0.4770270000000 1.0
C      1  0.5113640000000  0.5144600000000  0.5262600000000 1.0
C      1  0.4718840000000  0.5144600000000  0.4961760000000 1.0
C      1  0.5176780000000  0.4821310000000  0.4770270000000 1.0
C      1  0.5113640000000  0.4821310000000  0.5262600000000 1.0
C      1  0.4718840000000  0.4821310000000  0.4961760000000 1.0
C      1  0.4350190000000  0.5383630000000  0.4827560000000 1.0
C      1  0.5477320000000  0.5383630000000  0.4518110000000 1.0
C      1  0.5181740000000  0.5383630000000  0.5648960000000 1.0
C      1  0.4350190000000  0.4582280000000  0.4827560000000 1.0
C      1  0.5477320000000  0.4582280000000  0.4518110000000 1.0
C      1  0.5181740000000  0.4582280000000  0.5648960000000 1.0
C      1  0.4902670000000  0.4361250000000  0.4570380000000 1.0
C      1  0.5423800000000  0.4361250000000  0.5125160000000 1.0
C      1  0.4682780000000  0.4361250000000  0.5299090000000 1.0
C      1  0.4902670000000  0.5604670000000  0.4570380000000 1.0
C      1  0.5423800000000  0.5604670000000  0.5125160000000 1.0
C      1  0.4682780000000  0.5604670000000  0.5299090000000 1.0
C      1  0.5489680000000  0.5226840000000  0.4776870000000 1.0
C      1  0.4951470000000  0.5226840000000  0.5530290000000 1.0
C      1  0.4568100000000  0.5226840000000  0.4687470000000 1.0
C      1  0.5489680000000  0.4739080000000  0.4776870000000 1.0
C      1  0.4951470000000  0.4739080000000  0.5530290000000 1.0
C      1  0.4568100000000  0.4739080000000  0.4687470000000 1.0
C      1  0.4684950000000  0.5332080000000  0.5436660000000 1.0
C      1  0.4782440000000  0.5332080000000  0.4503480000000 1.0
C      1  0.5541850000000  0.5332080000000  0.5054490000000 1.0
C      1  0.4684950000000  0.4633840000000  0.5436660000000 1.0
C      1  0.4782440000000  0.4633840000000  0.4503480000000 1.0
C      1  0.5541850000000  0.4633840000000  0.5054490000000 1.0
C      1  0.4136980000000  0.4808140000000  0.4949830000000 1.0
C      1  0.5478040000000  0.4808140000000  0.4272330000000 1.0
C      1  0.5394240000000  0.4808140000000  0.5772470000000 1.0
C      1  0.4136980000000  0.5157780000000  0.4949830000000 1.0
C      1  0.5478040000000  0.5157780000000  0.4272330000000 1.0
C      1  0.5394240000000  0.5157780000000  0.5772470000000 1.0
C      1  0.5636780000000  0.4982960000000  0.4736930000000 1.0
C      1  0.4459960000000  0.4982960000000  0.4580050000000 1.0
C      1  0.4912510000000  0.4982960000000  0.5677640000000 1.0
C      1  0.5003080000000  0.4655520000000  0.4998210000000 1.0
C      1  0.5003080000000  0.5310400000000  0.4998210000000 1.0
END
