TITL C-862130-1496-1405 -0.24851613787002 125000 -814.169889614938 0 0 143 (C3) n - 1
REM
REM in /home/nfs/bkarasulu/CARBON/AIRSS/Generating-Clusters/TERSOFF/Higher-Symm/FIRE-HFTN
REM
REM
REM
REM
REM
REM ./C.cell (b20cbc046b6831c77cfcea5457e17084)
REM AIRSS Version 0.9.1 bugfix July 2018 build 013d7b7c2542+ Fri, 06 Jul 2018 19:26:36 +0100
REM compiler GCC version 9.2.1 20190827 (Red Hat 9.2.1-1)
REM options -cpp -mtune=generic -march=x86-64 -g -O0 -fpre-include=/usr/include/finclude/math-vector-fortran.h
REM seed 1471053217 291143216 -509690695 -251030634 -1100492758 1359675903 -991224248 1257866648 1617100873 -19011227 991132371 -295116320 -1981385104 1426232162 -717098843 -761436865 1147185717 -1511706069 -1136318434 -429851187 846606153 1230668314 694365389 -1506015806 240626589 -167612681 1806537488 -269047431 1349213483 26840549 -2101640996 -1006503646 452049877
REM
CELL 1.54180   50.00000   50.00000   50.00000   90.00000   90.00000   90.00000
LATT -1
SFAC C  
C      1  0.3616710000000  0.4895930000000  0.4878230000000 1.0
C      1  0.5585980000000  0.4895920000000  0.6255830000000 1.0
C      1  0.5794390000000  0.4895940000000  0.3861590000000 1.0
C      1  0.5453920000000  0.4451860000000  0.4269030000000 1.0
C      1  0.4139800000000  0.4451860000000  0.4969360000000 1.0
C      1  0.5403370000000  0.4451850000000  0.5757250000000 1.0
C      1  0.5331460000000  0.5432440000000  0.3946610000000 1.0
C      1  0.3921800000000  0.5432430000000  0.5236630000000 1.0
C      1  0.5743820000000  0.5432430000000  0.5812420000000 1.0
C      1  0.4491150000000  0.5910240000000  0.4401050000000 1.0
C      1  0.4735510000000  0.5910240000000  0.5737150000000 1.0
C      1  0.5770430000000  0.5910240000000  0.4857480000000 1.0
C      1  0.4862080000000  0.5291470000000  0.4080880000000 1.0
C      1  0.4272770000000  0.5291460000000  0.5575990000000 1.0
C      1  0.5862240000000  0.5291460000000  0.5338790000000 1.0
C      1  0.4683930000000  0.5064740000000  0.5821490000000 1.0
C      1  0.5869270000000  0.5064750000000  0.4859960000000 1.0
C      1  0.4443890000000  0.5064750000000  0.4314200000000 1.0
C      1  0.4563400000000  0.5625150000000  0.4356170000000 1.0
C      1  0.4660520000000  0.5625140000000  0.5697010000000 1.0
C      1  0.5773170000000  0.5625150000000  0.4942480000000 1.0
C      1  0.5859510000000  0.5409890000000  0.4752010000000 1.0
C      1  0.4355270000000  0.5409890000000  0.4376630000000 1.0
C      1  0.4782300000000  0.5409880000000  0.5867030000000 1.0
C      1  0.4602140000000  0.4970080000000  0.4820310000000 1.0
C      1  0.5043120000000  0.4970070000000  0.5431380000000 1.0
C      1  0.5351830000000  0.4970080000000  0.4743960000000 1.0
C      1  0.4787400000000  0.4730870000000  0.5785780000000 1.0
C      1  0.5786610000000  0.4730870000000  0.4788200000000 1.0
C      1  0.4423080000000  0.4730880000000  0.4421660000000 1.0
C      1  0.3943580000000  0.5241890000000  0.4696400000000 1.0
C      1  0.5265080000000  0.5241880000000  0.6063680000000 1.0
C      1  0.5788430000000  0.5241890000000  0.4235580000000 1.0
C      1  0.5973420000000  0.4327320000000  0.4829650000000 1.0
C      1  0.4365560000000  0.4327320000000  0.4239150000000 1.0
C      1  0.4658100000000  0.4327310000000  0.5926840000000 1.0
C      1  0.4451900000000  0.5545960000000  0.5494600000000 1.0
C      1  0.5702180000000  0.5545970000000  0.5224350000000 1.0
C      1  0.4843000000000  0.5545970000000  0.4276700000000 1.0
C      1  0.5460970000000  0.3858490000000  0.4507260000000 1.0
C      1  0.4342600000000  0.3858490000000  0.4844130000000 1.0
C      1  0.5193520000000  0.3858480000000  0.5644230000000 1.0
C      1  0.5443860000000  0.5534200000000  0.4448660000000 1.0
C      1  0.4300390000000  0.5534190000000  0.4888260000000 1.0
C      1  0.5252830000000  0.5534190000000  0.5658740000000 1.0
C      1  0.5031290000000  0.4423470000000  0.5353750000000 1.0
C      1  0.5290510000000  0.4423470000000  0.4793010000000 1.0
C      1  0.4675290000000  0.4423470000000  0.4848880000000 1.0
C      1  0.5766210000000  0.4296750000000  0.5056950000000 1.0
C      1  0.4666020000000  0.4296750000000  0.4304950000000 1.0
C      1  0.4564860000000  0.4296740000000  0.5633740000000 1.0
C      1  0.5450520000000  0.5365560000000  0.5301620000000 1.0
C      1  0.5035740000000  0.5365570000000  0.4456020000000 1.0
C      1  0.4510820000000  0.5365560000000  0.5238020000000 1.0
C      1  0.4221420000000  0.4339050000000  0.4695560000000 1.0
C      1  0.5125440000000  0.4339040000000  0.5823470000000 1.0
C      1  0.5650230000000  0.4339050000000  0.4476610000000 1.0
C      1  0.5864730000000  0.4305390000000  0.5347490000000 1.0
C      1  0.4868370000000  0.4305400000000  0.4074360000000 1.0
C      1  0.4263990000000  0.4305390000000  0.5573790000000 1.0
C      1  0.5248700000000  0.5025720000000  0.5000610000000 1.0
C      1  0.4875970000000  0.5025720000000  0.4781300000000 1.0
C      1  0.4872420000000  0.5025720000000  0.5213740000000 1.0
C      1  0.4857830000000  0.4777510000000  0.4200220000000 1.0
C      1  0.4378260000000  0.4777500000000  0.5520000000000 1.0
C      1  0.5761000000000  0.4777500000000  0.5275430000000 1.0
C      1  0.4414140000000  0.5045300000000  0.5661540000000 1.0
C      1  0.5865640000000  0.5045310000000  0.5173580000000 1.0
C      1  0.4717310000000  0.5045310000000  0.4160530000000 1.0
C      1  0.5339420000000  0.4720710000000  0.4318900000000 1.0
C      1  0.4240240000000  0.4720710000000  0.5043590000000 1.0
C      1  0.5417430000000  0.4720710000000  0.5633160000000 1.0
C      1  0.4263510000000  0.5205900000000  0.5147340000000 1.0
C      1  0.5495650000000  0.5205900000000  0.5561140000000 1.0
C      1  0.5237930000000  0.5205910000000  0.4287180000000 1.0
C      1  0.5112300000000  0.5343680000000  0.5830440000000 1.0
C      1  0.5662830000000  0.5343690000000  0.4484520000000 1.0
C      1  0.4221960000000  0.5343690000000  0.4680700000000 1.0
C      1  0.4565830000000  0.5973250000000  0.4924410000000 1.0
C      1  0.5151410000000  0.5973250000000  0.5410800000000 1.0
C      1  0.5279850000000  0.5973250000000  0.4660470000000 1.0
C      1  0.5249910000000  0.4777350000000  0.5410850000000 1.0
C      1  0.5230650000000  0.4777350000000  0.4575130000000 1.0
C      1  0.4516530000000  0.4777350000000  0.5009670000000 1.0
C      1  0.5548890000000  0.4101290000000  0.4640740000000 1.0
C      1  0.4414240000000  0.4101290000000  0.4701260000000 1.0
C      1  0.5033970000000  0.4101280000000  0.5653640000000 1.0
C      1  0.5906880000000  0.5279150000000  0.5628810000000 1.0
C      1  0.5090920000000  0.5279160000000  0.3897200000000 1.0
C      1  0.3999280000000  0.5279150000000  0.5469650000000 1.0
C      1  0.4084990000000  0.4964670000000  0.5072790000000 1.0
C      1  0.5520340000000  0.4964670000000  0.5753010000000 1.0
C      1  0.5391750000000  0.4964680000000  0.4169850000000 1.0
C      1  0.5284870000000  0.4080220000000  0.5102380000000 1.0
C      1  0.4946040000000  0.4080220000000  0.4699080000000 1.0
C      1  0.4766180000000  0.4080220000000  0.5194170000000 1.0
C      1  0.4615910000000  0.4606420000000  0.5582130000000 1.0
C      1  0.5695980000000  0.4606420000000  0.5038550000000 1.0
C      1  0.4685190000000  0.4606430000000  0.4374970000000 1.0
C      1  0.4974130000000  0.5288710000000  0.4733730000000 1.0
C      1  0.4782140000000  0.5288700000000  0.5152520000000 1.0
C      1  0.5240820000000  0.5288700000000  0.5109400000000 1.0
C      1  0.5460730000000  0.5030300000000  0.6031760000000 1.0
C      1  0.5662960000000  0.5030320000000  0.4082100000000 1.0
C      1  0.3873400000000  0.5030310000000  0.4881790000000 1.0
C      1  0.4678540000000  0.4120850000000  0.4557790000000 1.0
C      1  0.4777570000000  0.4120840000000  0.5496480000000 1.0
C      1  0.5540980000000  0.4120850000000  0.4941370000000 1.0
C      1  0.4291440000000  0.5755680000000  0.5315210000000 1.0
C      1  0.5627050000000  0.5755680000000  0.5453020000000 1.0
C      1  0.5078600000000  0.5755680000000  0.4227440000000 1.0
C      1  0.4423470000000  0.5986310000000  0.5192550000000 1.0
C      1  0.5454810000000  0.5986310000000  0.5400010000000 1.0
C      1  0.5118800000000  0.5986320000000  0.4403110000000 1.0
C      1  0.5144090000000  0.6144630000000  0.4861960000000 1.0
C      1  0.4808190000000  0.6144630000000  0.4941230000000 1.0
C      1  0.5044800000000  0.6144630000000  0.5192490000000 1.0
C      1  0.4409250000000  0.5088600000000  0.4639650000000 1.0
C      1  0.4983100000000  0.5088590000000  0.5688770000000 1.0
C      1  0.5604740000000  0.5088600000000  0.4667240000000 1.0
C      1  0.5262850000000  0.4248560000000  0.5333830000000 1.0
C      1  0.5157490000000  0.4248560000000  0.4602420000000 1.0
C      1  0.4576750000000  0.4248560000000  0.5059380000000 1.0
C      1  0.5579830000000  0.6029280000000  0.4665080000000 1.0
C      1  0.4419830000000  0.6029280000000  0.4662310000000 1.0
C      1  0.4997430000000  0.6029270000000  0.5668280000000 1.0
C      1  0.4154040000000  0.4578290000000  0.5528520000000 1.0
C      1  0.5880490000000  0.4578290000000  0.5465350000000 1.0
C      1  0.4962560000000  0.4578300000000  0.4001780000000 1.0
C      1  0.5234330000000  0.4260050000000  0.4323320000000 1.0
C      1  0.4296610000000  0.4260040000000  0.5132380000000 1.0
C      1  0.5466150000000  0.4260040000000  0.5539940000000 1.0
C      1  0.5875510000000  0.4502350000000  0.4599040000000 1.0
C      1  0.4214800000000  0.4502350000000  0.4439250000000 1.0
C      1  0.4906770000000  0.4502340000000  0.5957360000000 1.0
C      1  0.5332050000000  0.5608480000000  0.4178820000000 1.0
C      1  0.4122610000000  0.5608470000000  0.5120020000000 1.0
C      1  0.5542430000000  0.5608470000000  0.5696820000000 1.0
C      1  0.4556800000000  0.5675040000000  0.4874610000000 1.0
C      1  0.5112810000000  0.5675030000000  0.5443510000000 1.0
C      1  0.5327480000000  0.5675040000000  0.4677550000000 1.0
C      1  0.4999030000000  0.4016200000000  0.4998540000000 1.0
C      1  0.4999030000000  0.5461400000000  0.4998550000000 1.0
END
