TITL C-862133-5440-226 -0.0457066077123309 125000 -146.684952035052 0 0 27 (C1) n - 1
REM
REM in /home/nfs/bkarasulu/CARBON/AIRSS/Generating-Clusters/TERSOFF/Higher-Symm/FIRE-HFTN
REM
REM
REM
REM
REM
REM ./C.cell (b20cbc046b6831c77cfcea5457e17084)
REM AIRSS Version 0.9.1 bugfix July 2018 build 013d7b7c2542+ Fri, 06 Jul 2018 19:26:36 +0100
REM compiler GCC version 9.2.1 20190827 (Red Hat 9.2.1-1)
REM options -cpp -mtune=generic -march=x86-64 -g -O0 -fpre-include=/usr/include/finclude/math-vector-fortran.h
REM seed -1139171651 -1702564533 1699994511 1236344943 -2098967667 863390577 -247257075 1096290446 1546676618 435021867 -112882345 2016357360 883571284 -481308429 -441321879 -143882511 913544464 703127438 1112413016 1287052619 1151213785 907673119 -317264445 -1828643158 176731218 372643148 -1534777425 722757671 -1422136703 -1594889478 2098283390 -2137005589 1940927018
REM
CELL 1.54180   50.00000   50.00000   50.00000   90.00000   90.00000   90.00000
LATT -1
SFAC C  
C      1  0.4737950000000  0.5204480000000  0.5779650000000 1.0
C      1  0.5314850000000  0.5191040000000  0.5762310000000 1.0
C      1  0.4886490000000  0.5007140000000  0.4406160000000 1.0
C      1  0.5198680000000  0.5097200000000  0.4347960000000 1.0
C      1  0.4959620000000  0.4656310000000  0.4460070000000 1.0
C      1  0.5230850000000  0.4779740000000  0.4330840000000 1.0
C      1  0.5163450000000  0.5079380000000  0.5539150000000 1.0
C      1  0.4870220000000  0.5085340000000  0.5548310000000 1.0
C      1  0.4725530000000  0.4964520000000  0.5323880000000 1.0
C      1  0.5288420000000  0.4964980000000  0.5299810000000 1.0
C      1  0.5242350000000  0.5133410000000  0.4829390000000 1.0
C      1  0.4614500000000  0.5090060000000  0.4831480000000 1.0
C      1  0.5221500000000  0.4619030000000  0.4902150000000 1.0
C      1  0.4727030000000  0.4586700000000  0.4945790000000 1.0
C      1  0.4689970000000  0.5179000000000  0.4553750000000 1.0
C      1  0.5327590000000  0.5241230000000  0.4572420000000 1.0
C      1  0.5092810000000  0.4889690000000  0.4806150000000 1.0
C      1  0.4797600000000  0.4865590000000  0.4829250000000 1.0
C      1  0.4848020000000  0.4708810000000  0.5215560000000 1.0
C      1  0.5152390000000  0.4712770000000  0.5194690000000 1.0
C      1  0.5377410000000  0.5152660000000  0.5087160000000 1.0
C      1  0.4589920000000  0.5141100000000  0.5127000000000 1.0
C      1  0.4891150000000  0.5315130000000  0.5999680000000 1.0
C      1  0.5180490000000  0.5308280000000  0.5991050000000 1.0
C      1  0.4578110000000  0.5418950000000  0.4435000000000 1.0
C      1  0.5513920000000  0.5460470000000  0.4540650000000 1.0
C      1  0.4969350000000  0.4495690000000  0.4730980000000 1.0
END
