TITL C-862131-2149-386 2.0072479441924 125000 -1172.49140278455 0 0 196 (C1) n - 1
REM
REM in /home/nfs/bkarasulu/CARBON/AIRSS/Generating-Clusters/TERSOFF/Higher-Symm/FIRE-HFTN
REM
REM
REM
REM
REM
REM ./C.cell (b20cbc046b6831c77cfcea5457e17084)
REM AIRSS Version 0.9.1 bugfix July 2018 build 013d7b7c2542+ Fri, 06 Jul 2018 19:26:36 +0100
REM compiler GCC version 9.2.1 20190827 (Red Hat 9.2.1-1)
REM options -cpp -mtune=generic -march=x86-64 -g -O0 -fpre-include=/usr/include/finclude/math-vector-fortran.h
REM seed -414464820 1455018602 -906270449 1246564054 -1387447908 1640968420 -737245866 -1591621159 -733998077 1093915460 -1992993441 -1335332344 -1007303722 463924001 -243177993 -599809925 -196063802 535536280 846494865 -316371048 -1009972264 1315833111 737565307 811942100 -1146764739 -1889955789 2025536978 -858790138 -1081111731 1915487449 -93489266 1728941124 659245833
REM
CELL 1.54180   50.00000   50.00000   50.00000   90.00000   90.00000   90.00000
LATT -1
SFAC C  
C      1  0.4685470000000  0.5422960000000  0.5114600000000 1.0
C      1  0.5610310000000  0.4149170000000  0.4982760000000 1.0
C      1  0.5670020000000  0.5746730000000  0.4527830000000 1.0
C      1  0.5023420000000  0.5388400000000  0.3705600000000 1.0
C      1  0.5117410000000  0.6201020000000  0.4604370000000 1.0
C      1  0.5597150000000  0.4564700000000  0.6004180000000 1.0
C      1  0.4769010000000  0.3850600000000  0.4923710000000 1.0
C      1  0.4433050000000  0.5623140000000  0.5708270000000 1.0
C      1  0.5204960000000  0.4891500000000  0.6321410000000 1.0
C      1  0.4264190000000  0.4920290000000  0.5874630000000 1.0
C      1  0.5231950000000  0.4840220000000  0.4499330000000 1.0
C      1  0.5506850000000  0.5269230000000  0.5203850000000 1.0
C      1  0.4725310000000  0.3915170000000  0.5569980000000 1.0
C      1  0.4786270000000  0.4818160000000  0.4325920000000 1.0
C      1  0.5710180000000  0.5394170000000  0.4303300000000 1.0
C      1  0.5030460000000  0.4728440000000  0.3900110000000 1.0
C      1  0.3819620000000  0.4720860000000  0.5181170000000 1.0
C      1  0.5580570000000  0.4500060000000  0.4342490000000 1.0
C      1  0.4384180000000  0.4503060000000  0.4163510000000 1.0
C      1  0.3804300000000  0.4824600000000  0.4750890000000 1.0
C      1  0.4752360000000  0.5065130000000  0.4464430000000 1.0
C      1  0.5151410000000  0.5223360000000  0.4193160000000 1.0
C      1  0.5968340000000  0.4319250000000  0.4733080000000 1.0
C      1  0.4360950000000  0.4034730000000  0.4647850000000 1.0
C      1  0.5715770000000  0.4996940000000  0.4612830000000 1.0
C      1  0.5239910000000  0.3850940000000  0.4704940000000 1.0
C      1  0.4517640000000  0.5466170000000  0.4076730000000 1.0
C      1  0.5247050000000  0.5246680000000  0.6274720000000 1.0
C      1  0.4208220000000  0.5051430000000  0.4715570000000 1.0
C      1  0.5245790000000  0.4939450000000  0.5882200000000 1.0
C      1  0.5102590000000  0.4082840000000  0.5847260000000 1.0
C      1  0.5861350000000  0.4742060000000  0.5982070000000 1.0
C      1  0.5391780000000  0.5630280000000  0.4617220000000 1.0
C      1  0.5587910000000  0.4299930000000  0.5836590000000 1.0
C      1  0.5812690000000  0.4230140000000  0.5405730000000 1.0
C      1  0.3747710000000  0.4681780000000  0.4267490000000 1.0
C      1  0.4239410000000  0.5397230000000  0.5753860000000 1.0
C      1  0.4793560000000  0.6225240000000  0.5452980000000 1.0
C      1  0.4367940000000  0.4658880000000  0.4407670000000 1.0
C      1  0.5210050000000  0.4923530000000  0.3778020000000 1.0
C      1  0.5125990000000  0.5413590000000  0.5354510000000 1.0
C      1  0.5446820000000  0.4269040000000  0.4768000000000 1.0
C      1  0.5754440000000  0.4799680000000  0.5354670000000 1.0
C      1  0.5858990000000  0.5379190000000  0.5509770000000 1.0
C      1  0.5817010000000  0.5213930000000  0.4775560000000 1.0
C      1  0.4784780000000  0.4840470000000  0.4035830000000 1.0
C      1  0.4932150000000  0.3868060000000  0.5759250000000 1.0
C      1  0.4966590000000  0.5263270000000  0.4461810000000 1.0
C      1  0.5294030000000  0.4123320000000  0.4274700000000 1.0
C      1  0.4180810000000  0.5691740000000  0.4715370000000 1.0
C      1  0.4754440000000  0.4275210000000  0.5215140000000 1.0
C      1  0.4768640000000  0.4454450000000  0.5934700000000 1.0
C      1  0.5647280000000  0.4729250000000  0.5621090000000 1.0
C      1  0.4094060000000  0.5941460000000  0.5301740000000 1.0
C      1  0.5021360000000  0.4028490000000  0.4220840000000 1.0
C      1  0.4896410000000  0.5852120000000  0.5810160000000 1.0
C      1  0.4044100000000  0.5356900000000  0.4699690000000 1.0
C      1  0.4090030000000  0.5302380000000  0.5485690000000 1.0
C      1  0.4834530000000  0.4935640000000  0.5529910000000 1.0
C      1  0.5745960000000  0.4911880000000  0.4119790000000 1.0
C      1  0.4414020000000  0.5709850000000  0.5444380000000 1.0
C      1  0.5282260000000  0.4827930000000  0.5267130000000 1.0
C      1  0.4804780000000  0.5186790000000  0.5952060000000 1.0
C      1  0.6098090000000  0.5322550000000  0.4711070000000 1.0
C      1  0.4314370000000  0.4498320000000  0.5248720000000 1.0
C      1  0.4543170000000  0.4069310000000  0.4412770000000 1.0
C      1  0.5406970000000  0.5132040000000  0.6042710000000 1.0
C      1  0.4642660000000  0.5578590000000  0.4630860000000 1.0
C      1  0.5557220000000  0.4777870000000  0.4756980000000 1.0
C      1  0.4940190000000  0.5291510000000  0.5164620000000 1.0
C      1  0.4878380000000  0.5545530000000  0.4456100000000 1.0
C      1  0.4448790000000  0.4215350000000  0.4171700000000 1.0
C      1  0.4718160000000  0.5616940000000  0.5781130000000 1.0
C      1  0.5518120000000  0.4519280000000  0.4628580000000 1.0
C      1  0.4303000000000  0.5566890000000  0.4271450000000 1.0
C      1  0.4536210000000  0.4917050000000  0.3908410000000 1.0
C      1  0.6002520000000  0.4362170000000  0.5237890000000 1.0
C      1  0.4665480000000  0.4181730000000  0.5478920000000 1.0
C      1  0.5337220000000  0.3732820000000  0.4951780000000 1.0
C      1  0.5097200000000  0.6071230000000  0.4872270000000 1.0
C      1  0.5725990000000  0.5774660000000  0.5182800000000 1.0
C      1  0.4974530000000  0.5763890000000  0.4023810000000 1.0
C      1  0.6160580000000  0.5091860000000  0.4982270000000 1.0
C      1  0.4573390000000  0.6164990000000  0.5256730000000 1.0
C      1  0.5767930000000  0.5286440000000  0.5076210000000 1.0
C      1  0.4100450000000  0.5362120000000  0.4364120000000 1.0
C      1  0.5394820000000  0.3925410000000  0.5416250000000 1.0
C      1  0.4368380000000  0.4563700000000  0.5533930000000 1.0
C      1  0.3796740000000  0.5337760000000  0.5386080000000 1.0
C      1  0.5029590000000  0.4667100000000  0.4389930000000 1.0
C      1  0.4793950000000  0.4718900000000  0.6058060000000 1.0
C      1  0.5021630000000  0.4615060000000  0.4937060000000 1.0
C      1  0.6060020000000  0.4220080000000  0.4990310000000 1.0
C      1  0.4617050000000  0.5675380000000  0.5247840000000 1.0
C      1  0.4560690000000  0.4991650000000  0.5471580000000 1.0
C      1  0.5284760000000  0.4327320000000  0.5374020000000 1.0
C      1  0.5142650000000  0.5719850000000  0.4476180000000 1.0
C      1  0.4230530000000  0.4909910000000  0.4978370000000 1.0
C      1  0.4574250000000  0.4293680000000  0.4989910000000 1.0
C      1  0.4942740000000  0.4941730000000  0.5934860000000 1.0
C      1  0.5195370000000  0.5210300000000  0.3869290000000 1.0
C      1  0.5818480000000  0.5220260000000  0.5758930000000 1.0
C      1  0.4396460000000  0.4678410000000  0.5027720000000 1.0
C      1  0.5362890000000  0.4737060000000  0.5701730000000 1.0
C      1  0.3999060000000  0.4319720000000  0.4918790000000 1.0
C      1  0.4809230000000  0.4623370000000  0.4744720000000 1.0
C      1  0.5079110000000  0.5801340000000  0.6051790000000 1.0
C      1  0.5230270000000  0.5848360000000  0.4208500000000 1.0
C      1  0.5176760000000  0.4552940000000  0.5582950000000 1.0
C      1  0.5194240000000  0.5921320000000  0.5347980000000 1.0
C      1  0.4185290000000  0.5107880000000  0.4244530000000 1.0
C      1  0.4172360000000  0.4256340000000  0.5156050000000 1.0
C      1  0.5254950000000  0.5547660000000  0.6076210000000 1.0
C      1  0.4027270000000  0.4917970000000  0.5191970000000 1.0
C      1  0.5471710000000  0.5320900000000  0.3810620000000 1.0
C      1  0.5176840000000  0.4386550000000  0.6235240000000 1.0
C      1  0.5561330000000  0.4157760000000  0.5272160000000 1.0
C      1  0.3905500000000  0.4793320000000  0.4483450000000 1.0
C      1  0.4924010000000  0.4774990000000  0.6323860000000 1.0
C      1  0.6106350000000  0.4970130000000  0.5507520000000 1.0
C      1  0.5591620000000  0.6040500000000  0.4506720000000 1.0
C      1  0.3828530000000  0.5128510000000  0.4877160000000 1.0
C      1  0.4693250000000  0.5916990000000  0.5135120000000 1.0
C      1  0.4558870000000  0.5214830000000  0.6099220000000 1.0
C      1  0.6094510000000  0.4779440000000  0.4968960000000 1.0
C      1  0.5113760000000  0.5374410000000  0.5634760000000 1.0
C      1  0.4517820000000  0.6316750000000  0.5009890000000 1.0
C      1  0.4914900000000  0.3830210000000  0.5189130000000 1.0
C      1  0.5008080000000  0.5670640000000  0.3753910000000 1.0
C      1  0.5908090000000  0.5629700000000  0.4712340000000 1.0
C      1  0.5213420000000  0.3788750000000  0.5210950000000 1.0
C      1  0.4185380000000  0.4885030000000  0.4447520000000 1.0
C      1  0.4466260000000  0.3898790000000  0.4901910000000 1.0
C      1  0.4399340000000  0.5685850000000  0.4518330000000 1.0
C      1  0.4591440000000  0.6180350000000  0.4527700000000 1.0
C      1  0.4938970000000  0.3874480000000  0.4680310000000 1.0
C      1  0.5317240000000  0.6097050000000  0.4408030000000 1.0
C      1  0.5421750000000  0.4569630000000  0.5242490000000 1.0
C      1  0.5338890000000  0.5058700000000  0.4344080000000 1.0
C      1  0.5576280000000  0.5564960000000  0.3919810000000 1.0
C      1  0.4859710000000  0.5375710000000  0.5761980000000 1.0
C      1  0.4319240000000  0.3996230000000  0.5144180000000 1.0
C      1  0.5381670000000  0.5371680000000  0.4721710000000 1.0
C      1  0.4594130000000  0.5389850000000  0.4846090000000 1.0
C      1  0.4787660000000  0.5590550000000  0.4178110000000 1.0
C      1  0.5333710000000  0.4154960000000  0.5686290000000 1.0
C      1  0.4311910000000  0.6114850000000  0.5400510000000 1.0
C      1  0.5320280000000  0.5510910000000  0.5786400000000 1.0
C      1  0.5586040000000  0.6029640000000  0.5092010000000 1.0
C      1  0.5774660000000  0.4135700000000  0.4542390000000 1.0
C      1  0.5473840000000  0.4844770000000  0.3693600000000 1.0
C      1  0.5149660000000  0.4859270000000  0.5012930000000 1.0
C      1  0.5710730000000  0.4929460000000  0.3832920000000 1.0
C      1  0.4858820000000  0.6315460000000  0.4505310000000 1.0
C      1  0.5825920000000  0.4242170000000  0.5688200000000 1.0
C      1  0.4989680000000  0.4443780000000  0.5201090000000 1.0
C      1  0.5276520000000  0.5643950000000  0.5289590000000 1.0
C      1  0.5372580000000  0.4385080000000  0.4163830000000 1.0
C      1  0.4304720000000  0.5190570000000  0.5963880000000 1.0
C      1  0.4193050000000  0.5429350000000  0.5223490000000 1.0
C      1  0.4979320000000  0.6016680000000  0.5553390000000 1.0
C      1  0.5140300000000  0.5228480000000  0.4706460000000 1.0
C      1  0.5814100000000  0.4659040000000  0.4252980000000 1.0
C      1  0.5978240000000  0.4656500000000  0.5214200000000 1.0
C      1  0.5532640000000  0.5651480000000  0.4206570000000 1.0
C      1  0.5814210000000  0.5574640000000  0.4994730000000 1.0
C      1  0.4998050000000  0.4283510000000  0.6023420000000 1.0
C      1  0.4116150000000  0.5009680000000  0.5443910000000 1.0
C      1  0.4419030000000  0.6180970000000  0.4771530000000 1.0
C      1  0.4131490000000  0.5703980000000  0.5131490000000 1.0
C      1  0.5002440000000  0.4726200000000  0.5406320000000 1.0
C      1  0.6028120000000  0.5197180000000  0.5271850000000 1.0
C      1  0.5624260000000  0.5106900000000  0.4327580000000 1.0
C      1  0.5420890000000  0.5054580000000  0.5367770000000 1.0
C      1  0.5705360000000  0.5638140000000  0.5457950000000 1.0
C      1  0.5956830000000  0.4967070000000  0.5775080000000 1.0
C      1  0.5289790000000  0.6079810000000  0.5112790000000 1.0
C      1  0.4826300000000  0.3973500000000  0.4429600000000 1.0
C      1  0.4385300000000  0.4659920000000  0.3914340000000 1.0
C      1  0.3804670000000  0.4567870000000  0.4933830000000 1.0
C      1  0.4549010000000  0.4533920000000  0.4820370000000 1.0
C      1  0.6032690000000  0.4625200000000  0.4710660000000 1.0
C      1  0.5912420000000  0.4782800000000  0.4507230000000 1.0
C      1  0.5131320000000  0.4554300000000  0.4136160000000 1.0
C      1  0.5494830000000  0.5707150000000  0.5648780000000 1.0
C      1  0.4103020000000  0.4196180000000  0.4666320000000 1.0
C      1  0.5635000000000  0.5292840000000  0.5958660000000 1.0
C      1  0.4406070000000  0.5153490000000  0.4045140000000 1.0
C      1  0.4325440000000  0.4851380000000  0.5597940000000 1.0
C      1  0.5043400000000  0.5113180000000  0.4947630000000 1.0
C      1  0.5361690000000  0.4622410000000  0.6204310000000 1.0
C      1  0.4582800000000  0.4389730000000  0.5674710000000 1.0
C      1  0.4853810000000  0.5921610000000  0.4901080000000 1.0
C      1  0.4180450000000  0.5988180000000  0.4802710000000 1.0
C      1  0.5422880000000  0.4050880000000  0.4542150000000 1.0
C      1  0.3682220000000  0.5210840000000  0.5133140000000 1.0
END
