TITL C-862133-5440-236 2.70745739402421e-05 125000 -166.45158728067 0 0 30 (C1) n - 1
REM
REM in /home/nfs/bkarasulu/CARBON/AIRSS/Generating-Clusters/TERSOFF/Higher-Symm/FIRE-HFTN
REM
REM
REM
REM
REM
REM ./C.cell (b20cbc046b6831c77cfcea5457e17084)
REM AIRSS Version 0.9.1 bugfix July 2018 build 013d7b7c2542+ Fri, 06 Jul 2018 19:26:36 +0100
REM compiler GCC version 9.2.1 20190827 (Red Hat 9.2.1-1)
REM options -cpp -mtune=generic -march=x86-64 -g -O0 -fpre-include=/usr/include/finclude/math-vector-fortran.h
REM seed -1707096782 1159480652 829248925 1596026090 1958923491 90365102 1846788373 1459954278 -1009033030 1799815509 -261369039 170077347 1436347450 351581666 1991302885 -511723733 -1461996397 -1749342329 1203528099 -1401271407 587275189 316321470 1978104596 -219703727 928709678 -1479119375 -2078691240 198255536 1574035938 378923128 -241516045 -2084066628 836235279
REM
CELL 1.54180   50.00000   50.00000   50.00000   90.00000   90.00000   90.00000
LATT -1
SFAC C  
C      1  0.5211530000000  0.4737060000000  0.5350450000000 1.0
C      1  0.4696330000000  0.5002610000000  0.4830770000000 1.0
C      1  0.4962850000000  0.5403730000000  0.4622020000000 1.0
C      1  0.5453660000000  0.5262860000000  0.4626610000000 1.0
C      1  0.4570300000000  0.4714250000000  0.4820990000000 1.0
C      1  0.5424490000000  0.4572390000000  0.5239820000000 1.0
C      1  0.5289080000000  0.5014590000000  0.5423180000000 1.0
C      1  0.4609860000000  0.4617150000000  0.5110400000000 1.0
C      1  0.4914260000000  0.4537310000000  0.4538160000000 1.0
C      1  0.5360350000000  0.4544240000000  0.4763820000000 1.0
C      1  0.5148040000000  0.5250230000000  0.5280470000000 1.0
C      1  0.5536440000000  0.4626010000000  0.4976230000000 1.0
C      1  0.4770430000000  0.4932750000000  0.5397910000000 1.0
C      1  0.4981630000000  0.4874400000000  0.4937870000000 1.0
C      1  0.4907230000000  0.5198700000000  0.5464190000000 1.0
C      1  0.5221200000000  0.5532070000000  0.5242710000000 1.0
C      1  0.4466730000000  0.5058830000000  0.5311790000000 1.0
C      1  0.4925090000000  0.5614470000000  0.4823890000000 1.0
C      1  0.4513990000000  0.5144990000000  0.5023860000000 1.0
C      1  0.5098000000000  0.4660810000000  0.4725370000000 1.0
C      1  0.4768710000000  0.5181920000000  0.4602890000000 1.0
C      1  0.4911150000000  0.4725380000000  0.5215610000000 1.0
C      1  0.5223990000000  0.5377750000000  0.4496320000000 1.0
C      1  0.5127760000000  0.5696950000000  0.5020470000000 1.0
C      1  0.4637000000000  0.4546700000000  0.4597640000000 1.0
C      1  0.5436870000000  0.5108310000000  0.4870500000000 1.0
C      1  0.4616780000000  0.5318500000000  0.5458850000000 1.0
C      1  0.5629190000000  0.4898630000000  0.4930460000000 1.0
C      1  0.4409100000000  0.4750550000000  0.5286090000000 1.0
C      1  0.5177950000000  0.5095890000000  0.5010670000000 1.0
END
