TITL C-862500-986-561 45017.045798249 125000 -931.227698211157 0 0 165 (C1) n - 1
REM
REM in /home/nfs/bkarasulu/CARBON/AIRSS/Generating-Clusters/TERSOFF/Higher-Symm/FIRE-HFTN
REM
REM
REM
REM
REM
REM ./C.cell (b20cbc046b6831c77cfcea5457e17084)
REM AIRSS Version 0.9.1 bugfix July 2018 build 013d7b7c2542+ Fri, 06 Jul 2018 19:26:36 +0100
REM compiler GCC version 9.2.1 20190827 (Red Hat 9.2.1-1)
REM options -cpp -mtune=generic -march=x86-64 -g -O0 -fpre-include=/usr/include/finclude/math-vector-fortran.h
REM seed 2071806399 1669031672 380854969 -1362010125 -47886665 -556691555 157303631 1027910166 399207942 -879403976 1321672357 812411934 999039725 -364431034 -1550422390 1465207489 178007239 1832344164 -400205747 258345961 285384076 -396217041 1972359413 -806335988 -1174443359 -503964383 1304693180 -2127619616 -825602344 -1170034753 -882574336 -1039526772 1782161174
REM
CELL 1.54180   50.00000   50.00000   50.00000   90.00000   90.00000   90.00000
LATT -1
SFAC C  
C      1  0.5460210000000  0.4860740000000  0.5888400000000 1.0
C      1  0.4503180000000  0.4858910000000  0.5921150000000 1.0
C      1  0.5412380000000  0.5198090000000  0.5396830000000 1.0
C      1  0.4516550000000  0.5200220000000  0.5438080000000 1.0
C      1  0.5301990000000  0.4645030000000  0.5780160000000 1.0
C      1  0.4666310000000  0.4630640000000  0.5844730000000 1.0
C      1  0.4024720000000  0.4491660000000  0.4804150000000 1.0
C      1  0.5978310000000  0.4506900000000  0.4810070000000 1.0
C      1  0.4452150000000  0.6225270000000  0.4872000000000 1.0
C      1  0.5746200000000  0.6108350000000  0.4488690000000 1.0
C      1  0.4697570000000  0.4852360000000  0.4921040000000 1.0
C      1  0.5246710000000  0.4801280000000  0.4930630000000 1.0
C      1  0.5588540000000  0.4189870000000  0.4321510000000 1.0
C      1  0.4453300000000  0.4218450000000  0.4331800000000 1.0
C      1  0.4491580000000  0.4150610000000  0.4910630000000 1.0
C      1  0.5551110000000  0.4150250000000  0.4890940000000 1.0
C      1  0.4575960000000  0.5501570000000  0.5005280000000 1.0
C      1  0.5437190000000  0.5511120000000  0.4946410000000 1.0
C      1  0.5243030000000  0.5176830000000  0.4623400000000 1.0
C      1  0.4730460000000  0.5192050000000  0.4624290000000 1.0
C      1  0.4660740000000  0.5956570000000  0.5346380000000 1.0
C      1  0.5285630000000  0.5933710000000  0.5312480000000 1.0
C      1  0.4751980000000  0.5982920000000  0.4540190000000 1.0
C      1  0.5258750000000  0.5984420000000  0.4452060000000 1.0
C      1  0.4702620000000  0.5257850000000  0.5677270000000 1.0
C      1  0.5237920000000  0.5249170000000  0.5651230000000 1.0
C      1  0.4624720000000  0.5121760000000  0.5932780000000 1.0
C      1  0.5340250000000  0.5122240000000  0.5903990000000 1.0
C      1  0.5924720000000  0.4704900000000  0.4551260000000 1.0
C      1  0.4051470000000  0.4701120000000  0.4532660000000 1.0
C      1  0.5656060000000  0.5097960000000  0.4142950000000 1.0
C      1  0.4319650000000  0.5112730000000  0.4133370000000 1.0
C      1  0.4777450000000  0.5205800000000  0.6167880000000 1.0
C      1  0.5206000000000  0.5207720000000  0.6149310000000 1.0
C      1  0.4539750000000  0.4762270000000  0.4335200000000 1.0
C      1  0.5435630000000  0.4718820000000  0.4331740000000 1.0
C      1  0.4314380000000  0.4852860000000  0.3992610000000 1.0
C      1  0.5682540000000  0.4834570000000  0.4009720000000 1.0
C      1  0.6023530000000  0.4978010000000  0.4483300000000 1.0
C      1  0.3943700000000  0.4973460000000  0.4462070000000 1.0
C      1  0.6004820000000  0.5385930000000  0.5316690000000 1.0
C      1  0.3936550000000  0.5390550000000  0.5312440000000 1.0
C      1  0.4393220000000  0.4812970000000  0.4850510000000 1.0
C      1  0.5572070000000  0.4786810000000  0.4870650000000 1.0
C      1  0.5658010000000  0.5787190000000  0.5637550000000 1.0
C      1  0.4289050000000  0.5797820000000  0.5674970000000 1.0
C      1  0.4521200000000  0.5270770000000  0.4820570000000 1.0
C      1  0.5467130000000  0.5263050000000  0.4790430000000 1.0
C      1  0.5698000000000  0.4351980000000  0.4530880000000 1.0
C      1  0.4330410000000  0.4369130000000  0.4540210000000 1.0
C      1  0.5408930000000  0.5706190000000  0.5442500000000 1.0
C      1  0.4532150000000  0.5720140000000  0.5471530000000 1.0
C      1  0.4085940000000  0.4848910000000  0.5462610000000 1.0
C      1  0.5919940000000  0.4833250000000  0.5476960000000 1.0
C      1  0.4081340000000  0.5476980000000  0.4406100000000 1.0
C      1  0.5875190000000  0.5472470000000  0.4419060000000 1.0
C      1  0.4184640000000  0.4644520000000  0.5000120000000 1.0
C      1  0.5803780000000  0.4632280000000  0.5014830000000 1.0
C      1  0.5760090000000  0.5684650000000  0.4257960000000 1.0
C      1  0.4173120000000  0.5693650000000  0.4236010000000 1.0
C      1  0.4741840000000  0.5393180000000  0.3999850000000 1.0
C      1  0.5250610000000  0.5411750000000  0.4010420000000 1.0
C      1  0.5672170000000  0.5058190000000  0.4866060000000 1.0
C      1  0.4291540000000  0.5079620000000  0.4865590000000 1.0
C      1  0.4583410000000  0.5233860000000  0.4186140000000 1.0
C      1  0.5383900000000  0.5210610000000  0.4178110000000 1.0
C      1  0.3971260000000  0.5529170000000  0.4675390000000 1.0
C      1  0.5994060000000  0.5525340000000  0.4684680000000 1.0
C      1  0.4674750000000  0.4105850000000  0.5672970000000 1.0
C      1  0.5323980000000  0.4115310000000  0.5613170000000 1.0
C      1  0.5424030000000  0.4405530000000  0.4969470000000 1.0
C      1  0.4617770000000  0.4390820000000  0.5035140000000 1.0
C      1  0.3995810000000  0.5115110000000  0.4930090000000 1.0
C      1  0.5965210000000  0.5103540000000  0.4931910000000 1.0
C      1  0.5954070000000  0.4813660000000  0.5763170000000 1.0
C      1  0.4022170000000  0.4826380000000  0.5744210000000 1.0
C      1  0.4461630000000  0.5659390000000  0.5881040000000 1.0
C      1  0.5493790000000  0.5648760000000  0.5849770000000 1.0
C      1  0.4216890000000  0.4828100000000  0.5958150000000 1.0
C      1  0.5739140000000  0.4821150000000  0.5955000000000 1.0
C      1  0.3907260000000  0.5127950000000  0.5204770000000 1.0
C      1  0.6048220000000  0.5127090000000  0.5206970000000 1.0
C      1  0.5857060000000  0.4611730000000  0.5303070000000 1.0
C      1  0.4145330000000  0.4625700000000  0.5288440000000 1.0
C      1  0.5836220000000  0.4221640000000  0.4766120000000 1.0
C      1  0.4210810000000  0.4225520000000  0.4775780000000 1.0
C      1  0.5430370000000  0.3969000000000  0.4428740000000 1.0
C      1  0.4615430000000  0.3997230000000  0.4432080000000 1.0
C      1  0.4481780000000  0.4874440000000  0.5324540000000 1.0
C      1  0.5469930000000  0.4885620000000  0.5276450000000 1.0
C      1  0.4753550000000  0.4576300000000  0.4848040000000 1.0
C      1  0.5250790000000  0.4548670000000  0.4743710000000 1.0
C      1  0.4147120000000  0.5550910000000  0.5195310000000 1.0
C      1  0.5801040000000  0.5545820000000  0.5188850000000 1.0
C      1  0.5840800000000  0.5672010000000  0.4901310000000 1.0
C      1  0.4130130000000  0.5670060000000  0.4893140000000 1.0
C      1  0.4686680000000  0.3979990000000  0.4721910000000 1.0
C      1  0.5361360000000  0.3967000000000  0.4718720000000 1.0
C      1  0.5246500000000  0.4674760000000  0.3862130000000 1.0
C      1  0.4773860000000  0.4711510000000  0.3882330000000 1.0
C      1  0.6114760000000  0.5279650000000  0.4765630000000 1.0
C      1  0.3845670000000  0.5288460000000  0.4762030000000 1.0
C      1  0.4436570000000  0.5479750000000  0.5279250000000 1.0
C      1  0.5500550000000  0.5475430000000  0.5253310000000 1.0
C      1  0.4542450000000  0.5974990000000  0.4753550000000 1.0
C      1  0.5519140000000  0.5954600000000  0.4587740000000 1.0
C      1  0.5540800000000  0.4321230000000  0.4065180000000 1.0
C      1  0.4489410000000  0.4351060000000  0.4074430000000 1.0
C      1  0.5613450000000  0.4648170000000  0.4556150000000 1.0
C      1  0.4364070000000  0.4671990000000  0.4551540000000 1.0
C      1  0.4518380000000  0.4349310000000  0.5570280000000 1.0
C      1  0.5471100000000  0.4366650000000  0.5515060000000 1.0
C      1  0.5865210000000  0.5185590000000  0.4332220000000 1.0
C      1  0.4099910000000  0.5189140000000  0.4316660000000 1.0
C      1  0.4551020000000  0.4520640000000  0.5315270000000 1.0
C      1  0.5446600000000  0.4536650000000  0.5256650000000 1.0
C      1  0.5472890000000  0.4611770000000  0.4042310000000 1.0
C      1  0.4538000000000  0.4645940000000  0.4047660000000 1.0
C      1  0.4716790000000  0.5553840000000  0.5732160000000 1.0
C      1  0.5230920000000  0.5548640000000  0.5711070000000 1.0
C      1  0.4423790000000  0.5718190000000  0.4849850000000 1.0
C      1  0.5563780000000  0.5769350000000  0.4823210000000 1.0
C      1  0.4973520000000  0.5712250000000  0.4307710000000 1.0
C      1  0.5069090000000  0.4945080000000  0.4260310000000 1.0
C      1  0.4961670000000  0.5743090000000  0.4842320000000 1.0
C      1  0.5021070000000  0.6000570000000  0.4987670000000 1.0
C      1  0.5016050000000  0.3879550000000  0.4477330000000 1.0
C      1  0.5012080000000  0.4542970000000  0.6066360000000 1.0
C      1  0.4969110000000  0.4590990000000  0.4635000000000 1.0
C      1  0.5089350000000  0.6141420000000  0.5799560000000 1.0
C      1  0.4981150000000  0.5922490000000  0.5955500000000 1.0
C      1  0.4965280000000  0.5129690000000  0.5614440000000 1.0
C      1  0.4857590000000  0.5565410000000  0.5043830000000 1.0
C      1  0.5060360000000  0.6242350000000  0.4831100000000 1.0
C      1  0.4921990000000  0.4845000000000  0.4485500000000 1.0
C      1  0.5000040000000  0.4715900000000  0.6301730000000 1.0
C      1  0.4955810000000  0.5660850000000  0.5303850000000 1.0
C      1  0.4989760000000  0.5448300000000  0.6116500000000 1.0
C      1  0.5006210000000  0.5608720000000  0.4578520000000 1.0
C      1  0.5020360000000  0.6112210000000  0.4569330000000 1.0
C      1  0.4890750000000  0.4786920000000  0.5288050000000 1.0
C      1  0.5030110000000  0.4359870000000  0.5105670000000 1.0
C      1  0.5064360000000  0.4045490000000  0.3994800000000 1.0
C      1  0.4970940000000  0.4211760000000  0.3777200000000 1.0
C      1  0.4989700000000  0.3830910000000  0.5633140000000 1.0
C      1  0.5031900000000  0.3940200000000  0.4786910000000 1.0
C      1  0.4952320000000  0.3935870000000  0.5359470000000 1.0
C      1  0.5013830000000  0.4114570000000  0.5797630000000 1.0
C      1  0.4992110000000  0.4372250000000  0.5605880000000 1.0
C      1  0.4994180000000  0.4082770000000  0.4272010000000 1.0
C      1  0.4988370000000  0.5535630000000  0.4073690000000 1.0
C      1  0.4981220000000  0.4982110000000  0.4887800000000 1.0
C      1  0.4979330000000  0.5636870000000  0.5870260000000 1.0
C      1  0.5016220000000  0.6201180000000  0.5526780000000 1.0
C      1  0.4992360000000  0.4501480000000  0.3768700000000 1.0
C      1  0.4995580000000  0.4233170000000  0.4851800000000 1.0
C      1  0.4998780000000  0.5011680000000  0.6296270000000 1.0
C      1  0.5029610000000  0.4248100000000  0.6073030000000 1.0
C      1  0.4948360000000  0.4859000000000  0.5549480000000 1.0
C      1  0.5033030000000  0.4857380000000  0.3987900000000 1.0
C      1  0.4978500000000  0.4646560000000  0.5756960000000 1.0
C      1  0.5063820000000  0.4643930000000  0.5122580000000 1.0
C      1  0.4965160000000  0.4228280000000  0.5342150000000 1.0
C      1  0.4977800000000  0.5990910000000  0.5306630000000 1.0
C      1  0.4993690000000  0.5321590000000  0.4597960000000 1.0
END
