TITL C-862129-6180-620 -0.00337550146518632 125000 -416.862194111722 0 0 72 (C1) n - 1
REM
REM in /home/nfs/bkarasulu/CARBON/AIRSS/Generating-Clusters/TERSOFF/Higher-Symm/FIRE-HFTN
REM
REM
REM
REM
REM
REM ./C.cell (b20cbc046b6831c77cfcea5457e17084)
REM AIRSS Version 0.9.1 bugfix July 2018 build 013d7b7c2542+ Fri, 06 Jul 2018 19:26:36 +0100
REM compiler GCC version 9.2.1 20190827 (Red Hat 9.2.1-1)
REM options -cpp -mtune=generic -march=x86-64 -g -O0 -fpre-include=/usr/include/finclude/math-vector-fortran.h
REM seed -688739652 -687705307 1144521412 -1220362012 544083332 -1331722281 -1253272538 -1238163278 -1190920422 1443273376 -1061660943 1140711423 -900275003 761051397 1754733934 -1750187929 1689114127 -1084974065 989904501 -787923574 1785933436 -153828530 -926177984 -2122992421 1045155853 584183991 1729158378 1745489570 177006377 356117995 757667287 1439930637 1371594412
REM
CELL 1.54180   50.00000   50.00000   50.00000   90.00000   90.00000   90.00000
LATT -1
SFAC C  
C      1  0.5703890000000  0.4640860000000  0.4797930000000 1.0
C      1  0.5321970000000  0.5119870000000  0.4679150000000 1.0
C      1  0.4507860000000  0.5084460000000  0.4457850000000 1.0
C      1  0.5683510000000  0.5101970000000  0.5026100000000 1.0
C      1  0.5313770000000  0.5868060000000  0.4999670000000 1.0
C      1  0.5274050000000  0.5230530000000  0.4211710000000 1.0
C      1  0.4854860000000  0.5787550000000  0.5134060000000 1.0
C      1  0.5224070000000  0.4628510000000  0.5021700000000 1.0
C      1  0.4666120000000  0.4840820000000  0.4409620000000 1.0
C      1  0.5357500000000  0.4453880000000  0.5498300000000 1.0
C      1  0.5460850000000  0.5273140000000  0.4905200000000 1.0
C      1  0.4521730000000  0.4521250000000  0.4845280000000 1.0
C      1  0.5009580000000  0.5652630000000  0.4680240000000 1.0
C      1  0.5736130000000  0.4435110000000  0.5005030000000 1.0
C      1  0.4838650000000  0.5436860000000  0.5482920000000 1.0
C      1  0.5414990000000  0.4620140000000  0.4777920000000 1.0
C      1  0.4788870000000  0.4796080000000  0.5155470000000 1.0
C      1  0.4807500000000  0.5796650000000  0.4843400000000 1.0
C      1  0.5355650000000  0.5390640000000  0.5430370000000 1.0
C      1  0.5069280000000  0.4421800000000  0.4377430000000 1.0
C      1  0.5505150000000  0.5516260000000  0.4733940000000 1.0
C      1  0.4607560000000  0.5237200000000  0.5589900000000 1.0
C      1  0.4674840000000  0.5627740000000  0.5299370000000 1.0
C      1  0.4621770000000  0.5351770000000  0.4508900000000 1.0
C      1  0.5307270000000  0.4850500000000  0.5218340000000 1.0
C      1  0.5137070000000  0.4671910000000  0.4258770000000 1.0
C      1  0.5404060000000  0.4788440000000  0.4314800000000 1.0
C      1  0.4449050000000  0.5579060000000  0.4567120000000 1.0
C      1  0.5434730000000  0.5070840000000  0.4406260000000 1.0
C      1  0.5145790000000  0.4815110000000  0.5771360000000 1.0
C      1  0.4940580000000  0.4415400000000  0.5473950000000 1.0
C      1  0.4881570000000  0.4911890000000  0.4762780000000 1.0
C      1  0.4981150000000  0.5271010000000  0.5223480000000 1.0
C      1  0.4710060000000  0.4538780000000  0.5319850000000 1.0
C      1  0.4968340000000  0.4420960000000  0.4641700000000 1.0
C      1  0.4588920000000  0.4572540000000  0.4545710000000 1.0
C      1  0.5302720000000  0.5724320000000  0.4743000000000 1.0
C      1  0.5169480000000  0.4369800000000  0.5240410000000 1.0
C      1  0.5274760000000  0.4203710000000  0.4847700000000 1.0
C      1  0.5697290000000  0.5053920000000  0.5323170000000 1.0
C      1  0.5146340000000  0.4525320000000  0.5713940000000 1.0
C      1  0.5552080000000  0.4196130000000  0.4973450000000 1.0
C      1  0.5812240000000  0.4906550000000  0.4849260000000 1.0
C      1  0.4461530000000  0.5447420000000  0.5156130000000 1.0
C      1  0.4174540000000  0.5299920000000  0.5061500000000 1.0
C      1  0.5254580000000  0.5408130000000  0.5131140000000 1.0
C      1  0.4537000000000  0.5794110000000  0.4737540000000 1.0
C      1  0.4297700000000  0.4695620000000  0.4978580000000 1.0
C      1  0.5516180000000  0.4681780000000  0.5394620000000 1.0
C      1  0.4174510000000  0.5087330000000  0.5316240000000 1.0
C      1  0.4201590000000  0.5157700000000  0.4813140000000 1.0
C      1  0.5143470000000  0.5744720000000  0.5218500000000 1.0
C      1  0.4909270000000  0.5378590000000  0.4582620000000 1.0
C      1  0.5493340000000  0.5143200000000  0.5518400000000 1.0
C      1  0.4966840000000  0.4930510000000  0.5581610000000 1.0
C      1  0.4383850000000  0.4937780000000  0.4831350000000 1.0
C      1  0.4676610000000  0.4949710000000  0.5611870000000 1.0
C      1  0.5005770000000  0.5135260000000  0.4146650000000 1.0
C      1  0.4368680000000  0.5303880000000  0.5433430000000 1.0
C      1  0.5040040000000  0.5132460000000  0.4668570000000 1.0
C      1  0.5090260000000  0.5019030000000  0.5342800000000 1.0
C      1  0.4712220000000  0.4387980000000  0.5042390000000 1.0
C      1  0.5002370000000  0.4223180000000  0.5010320000000 1.0
C      1  0.5405120000000  0.4973940000000  0.5757300000000 1.0
C      1  0.5753650000000  0.4569350000000  0.5264550000000 1.0
C      1  0.4285140000000  0.4808980000000  0.5278750000000 1.0
C      1  0.5129170000000  0.5576160000000  0.5538660000000 1.0
C      1  0.4712030000000  0.5256720000000  0.5058580000000 1.0
C      1  0.4998370000000  0.4647690000000  0.4823140000000 1.0
C      1  0.4656280000000  0.4988980000000  0.4935770000000 1.0
C      1  0.4915650000000  0.4868690000000  0.4236500000000 1.0
C      1  0.4510580000000  0.4731250000000  0.5462870000000 1.0
END
