TITL C-862501-1041-48 8.56278913071024e-06 125000 -228.294546913705 0 0 39 (D3h) n - 1
REM
REM in /home/nfs/bkarasulu/CARBON/AIRSS/Generating-Clusters/TERSOFF/Higher-Symm/FIRE-HFTN
REM
REM
REM
REM
REM
REM ./C.cell (b20cbc046b6831c77cfcea5457e17084)
REM AIRSS Version 0.9.1 bugfix July 2018 build 013d7b7c2542+ Fri, 06 Jul 2018 19:26:36 +0100
REM compiler GCC version 9.2.1 20190827 (Red Hat 9.2.1-1)
REM options -cpp -mtune=generic -march=x86-64 -g -O0 -fpre-include=/usr/include/finclude/math-vector-fortran.h
REM seed -1585684480 -399741694 223994614 -583767607 -327090482 1517150352 -244786860 -1437751769 323652191 1286937077 -1960144607 -1123750616 566089835 234620169 -1174985877 -333446116 -1462271151 578368936 -1465678132 -489495831 516039374 -499308591 1608635002 141380375 -788009231 771415052 268031480 -1390477886 -1099956698 -776952934 -1947032385 1066593705 -388936999
REM
CELL 1.54180   50.00000   50.00000   50.00000   90.00000   90.00000   90.00000
LATT -1
SFAC C  
C      1  0.4326120000000  0.5220930000000  0.4797030000000 1.0
C      1  0.5528280000000  0.5473130000000  0.4797030000000 1.0
C      1  0.5145610000000  0.4305930000000  0.4797030000000 1.0
C      1  0.4326120000000  0.5220930000000  0.5216430000000 1.0
C      1  0.5528280000000  0.5473130000000  0.5216430000000 1.0
C      1  0.5145610000000  0.4305930000000  0.5216430000000 1.0
C      1  0.5673880000000  0.5220930000000  0.4797030000000 1.0
C      1  0.4471720000000  0.5473130000000  0.4797030000000 1.0
C      1  0.4854390000000  0.4305930000000  0.4797030000000 1.0
C      1  0.5673880000000  0.5220930000000  0.5216430000000 1.0
C      1  0.4471720000000  0.5473130000000  0.5216430000000 1.0
C      1  0.4854390000000  0.4305930000000  0.5216430000000 1.0
C      1  0.4474490000000  0.4971430000000  0.5251460000000 1.0
C      1  0.5238010000000  0.5469390000000  0.5251460000000 1.0
C      1  0.5287500000000  0.4559180000000  0.5251460000000 1.0
C      1  0.4474490000000  0.4971430000000  0.4762000000000 1.0
C      1  0.5238010000000  0.5469390000000  0.4762000000000 1.0
C      1  0.5287500000000  0.4559180000000  0.4762000000000 1.0
C      1  0.5525510000000  0.4971430000000  0.5251460000000 1.0
C      1  0.4761990000000  0.5469390000000  0.5251460000000 1.0
C      1  0.4712500000000  0.4559180000000  0.5251460000000 1.0
C      1  0.5525510000000  0.4971430000000  0.4762000000000 1.0
C      1  0.4761990000000  0.5469390000000  0.4762000000000 1.0
C      1  0.4712500000000  0.4559180000000  0.4762000000000 1.0
C      1  0.4856580000000  0.5252080000000  0.4586150000000 1.0
C      1  0.5290010000000  0.4998160000000  0.4586150000000 1.0
C      1  0.4853400000000  0.4749760000000  0.4586150000000 1.0
C      1  0.4856580000000  0.5252080000000  0.5427310000000 1.0
C      1  0.5290010000000  0.4998160000000  0.5427310000000 1.0
C      1  0.4853400000000  0.4749760000000  0.5427310000000 1.0
C      1  0.5143420000000  0.5252080000000  0.4586150000000 1.0
C      1  0.4709990000000  0.4998160000000  0.4586150000000 1.0
C      1  0.5146600000000  0.4749760000000  0.4586150000000 1.0
C      1  0.5143420000000  0.5252080000000  0.5427310000000 1.0
C      1  0.4709990000000  0.4998160000000  0.5427310000000 1.0
C      1  0.5146600000000  0.4749760000000  0.5427310000000 1.0
C      1  0.5489780000000  0.4717220000000  0.5006730000000 1.0
C      1  0.4510220000000  0.4717220000000  0.5006730000000 1.0
C      1  0.5000000000000  0.5565550000000  0.5006730000000 1.0
END
