TITL C-862501-1041-278 6.26404771157897e-05 125000 -485.309758697862 0 0 85 (Cs) n - 1
REM
REM in /home/nfs/bkarasulu/CARBON/AIRSS/Generating-Clusters/TERSOFF/Higher-Symm/FIRE-HFTN
REM
REM
REM
REM
REM
REM ./C.cell (b20cbc046b6831c77cfcea5457e17084)
REM AIRSS Version 0.9.1 bugfix July 2018 build 013d7b7c2542+ Fri, 06 Jul 2018 19:26:36 +0100
REM compiler GCC version 9.2.1 20190827 (Red Hat 9.2.1-1)
REM options -cpp -mtune=generic -march=x86-64 -g -O0 -fpre-include=/usr/include/finclude/math-vector-fortran.h
REM seed -950411640 1506681546 517039967 -131597680 1409372686 -764926234 -1123791604 -831276845 -558114924 252982328 901469224 1350064975 -1289280111 1256811497 -1679601903 -1799535279 1161128346 89560518 -2081581634 1436650893 1546167760 -857657808 -1737104201 -1450871729 -1969704518 1997983761 547755368 1774317274 -437053311 860243828 -1236219166 1497397447 -1474242801
REM
CELL 1.54180   50.00000   50.00000   50.00000   90.00000   90.00000   90.00000
LATT -1
SFAC C  
C      1  0.5898810000000  0.4816900000000  0.5158170000000 1.0
C      1  0.5085190000000  0.5681910000000  0.4854540000000 1.0
C      1  0.4872890000000  0.5171470000000  0.5640220000000 1.0
C      1  0.4368770000000  0.5081030000000  0.5170180000000 1.0
C      1  0.4158730000000  0.4849460000000  0.4845530000000 1.0
C      1  0.5896400000000  0.5134030000000  0.4842040000000 1.0
C      1  0.4840040000000  0.4479240000000  0.4833530000000 1.0
C      1  0.4864500000000  0.5505220000000  0.5235230000000 1.0
C      1  0.5139740000000  0.4547200000000  0.5163090000000 1.0
C      1  0.5142240000000  0.4854630000000  0.5585020000000 1.0
C      1  0.5140690000000  0.5109830000000  0.4217260000000 1.0
C      1  0.4819800000000  0.4885070000000  0.4465470000000 1.0
C      1  0.5898820000000  0.4816890000000  0.4841170000000 1.0
C      1  0.5085180000000  0.5681920000000  0.5144700000000 1.0
C      1  0.4872920000000  0.5171440000000  0.4359030000000 1.0
C      1  0.4368780000000  0.5081020000000  0.4829050000000 1.0
C      1  0.4158720000000  0.4849460000000  0.5153690000000 1.0
C      1  0.5896390000000  0.5134040000000  0.5157270000000 1.0
C      1  0.4840030000000  0.4479250000000  0.5165760000000 1.0
C      1  0.4864510000000  0.5505200000000  0.4764000000000 1.0
C      1  0.5139750000000  0.4547200000000  0.4836210000000 1.0
C      1  0.5142270000000  0.4854600000000  0.4414270000000 1.0
C      1  0.5140650000000  0.5109870000000  0.5782020000000 1.0
C      1  0.4819770000000  0.4885100000000  0.5533790000000 1.0
C      1  0.5313010000000  0.4633880000000  0.5696450000000 1.0
C      1  0.5689010000000  0.5279170000000  0.4698010000000 1.0
C      1  0.4651150000000  0.5673470000000  0.5364900000000 1.0
C      1  0.4641680000000  0.5323610000000  0.5746100000000 1.0
C      1  0.4675960000000  0.4667070000000  0.4325550000000 1.0
C      1  0.5343790000000  0.5293390000000  0.4308790000000 1.0
C      1  0.4282210000000  0.4649670000000  0.4676390000000 1.0
C      1  0.4282850000000  0.5321670000000  0.5319060000000 1.0
C      1  0.5693100000000  0.4669240000000  0.5302920000000 1.0
C      1  0.5297350000000  0.4326650000000  0.5299680000000 1.0
C      1  0.5321940000000  0.5645220000000  0.4692760000000 1.0
C      1  0.4680250000000  0.4291860000000  0.4666180000000 1.0
C      1  0.5313050000000  0.4633840000000  0.4302850000000 1.0
C      1  0.5688990000000  0.5279190000000  0.5301290000000 1.0
C      1  0.4651170000000  0.5673450000000  0.4634310000000 1.0
C      1  0.4641720000000  0.5323570000000  0.4253130000000 1.0
C      1  0.4675920000000  0.4667110000000  0.5673720000000 1.0
C      1  0.5343750000000  0.5293430000000  0.5690480000000 1.0
C      1  0.4282190000000  0.4649690000000  0.5322850000000 1.0
C      1  0.4282870000000  0.5321650000000  0.4680150000000 1.0
C      1  0.5693120000000  0.4669230000000  0.4696410000000 1.0
C      1  0.5297360000000  0.4326640000000  0.4699640000000 1.0
C      1  0.5321920000000  0.5645230000000  0.5306500000000 1.0
C      1  0.4680230000000  0.4291880000000  0.5333110000000 1.0
C      1  0.4405750000000  0.5160030000000  0.5581020000000 1.0
C      1  0.5550940000000  0.4447260000000  0.5157060000000 1.0
C      1  0.5217700000000  0.5555390000000  0.4409380000000 1.0
C      1  0.5556670000000  0.4807900000000  0.5535480000000 1.0
C      1  0.5550920000000  0.5138860000000  0.4471810000000 1.0
C      1  0.4410260000000  0.4799090000000  0.4432660000000 1.0
C      1  0.4411160000000  0.5562600000000  0.5179970000000 1.0
C      1  0.4424450000000  0.4420130000000  0.4822990000000 1.0
C      1  0.5554080000000  0.5510000000000  0.4836990000000 1.0
C      1  0.4822010000000  0.4404950000000  0.4414540000000 1.0
C      1  0.4862100000000  0.5591160000000  0.5645550000000 1.0
C      1  0.5158080000000  0.4396180000000  0.5576370000000 1.0
C      1  0.4405780000000  0.5159990000000  0.4418210000000 1.0
C      1  0.5550950000000  0.4447260000000  0.4842270000000 1.0
C      1  0.5217660000000  0.5555420000000  0.5589880000000 1.0
C      1  0.5556700000000  0.4807880000000  0.4463830000000 1.0
C      1  0.5550890000000  0.5138890000000  0.5527480000000 1.0
C      1  0.4410230000000  0.4799120000000  0.5566580000000 1.0
C      1  0.4411170000000  0.5562590000000  0.4819230000000 1.0
C      1  0.4424440000000  0.4420140000000  0.5176280000000 1.0
C      1  0.5554070000000  0.5510010000000  0.5162290000000 1.0
C      1  0.4821980000000  0.4404980000000  0.5584750000000 1.0
C      1  0.4862140000000  0.5591120000000  0.4353680000000 1.0
C      1  0.5158110000000  0.4396150000000  0.4422940000000 1.0
C      1  0.5270400000000  0.5247030000000  0.4999640000000 1.0
C      1  0.4981290000000  0.5277560000000  0.5383100000000 1.0
C      1  0.5187180000000  0.5139520000000  0.5243320000000 1.0
C      1  0.4689920000000  0.4710230000000  0.4999630000000 1.0
C      1  0.4780030000000  0.5354620000000  0.4999620000000 1.0
C      1  0.5387940000000  0.4843870000000  0.4999650000000 1.0
C      1  0.5227680000000  0.4841770000000  0.5277160000000 1.0
C      1  0.4981310000000  0.5277540000000  0.4616150000000 1.0
C      1  0.5187190000000  0.5139510000000  0.4755950000000 1.0
C      1  0.5227700000000  0.4841760000000  0.4722130000000 1.0
C      1  0.4665050000000  0.5022570000000  0.4722130000000 1.0
C      1  0.4665030000000  0.5022580000000  0.5277120000000 1.0
C      1  0.4812150000000  0.5027790000000  0.4999630000000 1.0
END
