TITL C-862129-6180-230 0.0426087064205379 125000 -1008.55457620557 0 0 176 (C3) n - 1
REM
REM in /home/nfs/bkarasulu/CARBON/AIRSS/Generating-Clusters/TERSOFF/Higher-Symm/FIRE-HFTN
REM
REM
REM
REM
REM
REM ./C.cell (b20cbc046b6831c77cfcea5457e17084)
REM AIRSS Version 0.9.1 bugfix July 2018 build 013d7b7c2542+ Fri, 06 Jul 2018 19:26:36 +0100
REM compiler GCC version 9.2.1 20190827 (Red Hat 9.2.1-1)
REM options -cpp -mtune=generic -march=x86-64 -g -O0 -fpre-include=/usr/include/finclude/math-vector-fortran.h
REM seed -1665370951 1126829349 328447767 -1201355194 1724314654 1655608704 -1817898469 1206346657 1719200483 1855379173 2035297435 -428030970 -275916606 143494060 411765733 1559199964 -1586269411 -1335252561 -332674883 -1788595223 -1660141312 -43190663 -615205092 -1762970113 1694066197 1111778356 -209076182 1055031179 -2012889751 245353845 487905907 -1528219941 -395368597
REM
CELL 1.54180   50.00000   50.00000   50.00000   90.00000   90.00000   90.00000
LATT -1
SFAC C  
C      1  0.4839960000000  0.5256470000000  0.4043820000000 1.0
C      1  0.5301560000000  0.5009340000000  0.4043820000000 1.0
C      1  0.4856740000000  0.4733140000000  0.4043820000000 1.0
C      1  0.4847000000000  0.4738650000000  0.5944270000000 1.0
C      1  0.5301660000000  0.4998150000000  0.5944270000000 1.0
C      1  0.4849600000000  0.5262150000000  0.5944270000000 1.0
C      1  0.5157790000000  0.4741960000000  0.5944780000000 1.0
C      1  0.4697070000000  0.4991330000000  0.5944780000000 1.0
C      1  0.5143390000000  0.5265640000000  0.5944780000000 1.0
C      1  0.5150520000000  0.5261120000000  0.4044570000000 1.0
C      1  0.4697430000000  0.4999770000000  0.4044560000000 1.0
C      1  0.5150310000000  0.4738050000000  0.4044560000000 1.0
C      1  0.4442610000000  0.4502970000000  0.4120600000000 1.0
C      1  0.4847690000000  0.5730190000000  0.4120600000000 1.0
C      1  0.5707950000000  0.4765780000000  0.4120600000000 1.0
C      1  0.4429080000000  0.5481580000000  0.5864800000000 1.0
C      1  0.4867220000000  0.4264750000000  0.5864800000000 1.0
C      1  0.5701960000000  0.5252600000000  0.5864800000000 1.0
C      1  0.5559190000000  0.5494250000000  0.5865970000000 1.0
C      1  0.5147870000000  0.4267570000000  0.5865970000000 1.0
C      1  0.4291200000000  0.5237120000000  0.5865970000000 1.0
C      1  0.5571220000000  0.4520610000000  0.4122640000000 1.0
C      1  0.5128380000000  0.5734360000000  0.4122640000000 1.0
C      1  0.4298660000000  0.4743970000000  0.4122640000000 1.0
C      1  0.3997890000000  0.5241740000000  0.5052510000000 1.0
C      1  0.5709840000000  0.5745950000000  0.5052510000000 1.0
C      1  0.5290520000000  0.4011260000000  0.5052510000000 1.0
C      1  0.3998210000000  0.4758750000000  0.4951540000000 1.0
C      1  0.5708640000000  0.4253030000000  0.4951540000000 1.0
C      1  0.5291400000000  0.5987170000000  0.4951540000000 1.0
C      1  0.5998850000000  0.4758330000000  0.4943260000000 1.0
C      1  0.4290720000000  0.4254770000000  0.4943260000000 1.0
C      1  0.4708690000000  0.5985840000000  0.4943260000000 1.0
C      1  0.6001550000000  0.5241870000000  0.5042670000000 1.0
C      1  0.4288580000000  0.5746410000000  0.5042670000000 1.0
C      1  0.4708130000000  0.4010660000000  0.5042670000000 1.0
C      1  0.4854840000000  0.4282140000000  0.5394970000000 1.0
C      1  0.4450330000000  0.5483620000000  0.5394970000000 1.0
C      1  0.5693090000000  0.5233190000000  0.5394970000000 1.0
C      1  0.4851770000000  0.5711260000000  0.4597580000000 1.0
C      1  0.4456970000000  0.4515980000000  0.4597580000000 1.0
C      1  0.5689510000000  0.4771710000000  0.4597580000000 1.0
C      1  0.5144380000000  0.5708300000000  0.4606000000000 1.0
C      1  0.5540650000000  0.4519780000000  0.4606000000000 1.0
C      1  0.4313230000000  0.4770860000000  0.4606000000000 1.0
C      1  0.5147560000000  0.4278600000000  0.5403470000000 1.0
C      1  0.5549800000000  0.5488460000000  0.5403480000000 1.0
C      1  0.4300900000000  0.5231880000000  0.5403470000000 1.0
C      1  0.5496660000000  0.3840620000000  0.4939670000000 1.0
C      1  0.3747050000000  0.5148530000000  0.4939670000000 1.0
C      1  0.5754540000000  0.6009790000000  0.4939670000000 1.0
C      1  0.5502530000000  0.6154590000000  0.5056730000000 1.0
C      1  0.3747650000000  0.4857880000000  0.5056730000000 1.0
C      1  0.5748080000000  0.3986470000000  0.5056730000000 1.0
C      1  0.4501820000000  0.6158720000000  0.5051450000000 1.0
C      1  0.6252010000000  0.4851050000000  0.5051450000000 1.0
C      1  0.4244430000000  0.3989180000000  0.5051450000000 1.0
C      1  0.4496940000000  0.3846410000000  0.4933590000000 1.0
C      1  0.6249400000000  0.5141110000000  0.4933590000000 1.0
C      1  0.4251920000000  0.6011430000000  0.4933590000000 1.0
C      1  0.4853540000000  0.4215300000000  0.4849030000000 1.0
C      1  0.4393090000000  0.5518150000000  0.4849030000000 1.0
C      1  0.5751620000000  0.5265490000000  0.4849040000000 1.0
C      1  0.4847640000000  0.5777440000000  0.5137730000000 1.0
C      1  0.4401710000000  0.4479310000000  0.5137720000000 1.0
C      1  0.5748900000000  0.4742190000000  0.5137730000000 1.0
C      1  0.5146650000000  0.5785540000000  0.5150820000000 1.0
C      1  0.5606400000000  0.4479200000000  0.5150820000000 1.0
C      1  0.4245200000000  0.4734210000000  0.5150820000000 1.0
C      1  0.5151390000000  0.4223060000000  0.4863510000000 1.0
C      1  0.5595980000000  0.5519560000000  0.4863520000000 1.0
C      1  0.4250890000000  0.5256330000000  0.4863510000000 1.0
C      1  0.5263730000000  0.5497060000000  0.4252330000000 1.0
C      1  0.5298030000000  0.4522040000000  0.4252330000000 1.0
C      1  0.4436490000000  0.4979850000000  0.4252330000000 1.0
C      1  0.5280310000000  0.4509730000000  0.5735530000000 1.0
C      1  0.5283260000000  0.5487860000000  0.5735530000000 1.0
C      1  0.4434690000000  0.5001350000000  0.5735530000000 1.0
C      1  0.4731880000000  0.4503250000000  0.5736000000000 1.0
C      1  0.4703290000000  0.5479540000000  0.5736000000000 1.0
C      1  0.5563080000000  0.5016150000000  0.5736000000000 1.0
C      1  0.4716290000000  0.5487900000000  0.4252910000000 1.0
C      1  0.4718140000000  0.4510330000000  0.4252910000000 1.0
C      1  0.5563820000000  0.5000720000000  0.4252910000000 1.0
C      1  0.4210290000000  0.5976630000000  0.4639500000000 1.0
C      1  0.6240080000000  0.5194560000000  0.4639500000000 1.0
C      1  0.4547890000000  0.3827750000000  0.4639490000000 1.0
C      1  0.4204190000000  0.4037570000000  0.5345000000000 1.0
C      1  0.6230220000000  0.4792000000000  0.5345000000000 1.0
C      1  0.4563850000000  0.6169370000000  0.5345000000000 1.0
C      1  0.5791510000000  0.4022880000000  0.5350800000000 1.0
C      1  0.3757470000000  0.4802060000000  0.5350790000000 1.0
C      1  0.5449280000000  0.6174000000000  0.5350800000000 1.0
C      1  0.5793360000000  0.5956510000000  0.4646480000000 1.0
C      1  0.3773780000000  0.5208790000000  0.4646470000000 1.0
C      1  0.5431120000000  0.3833650000000  0.4646470000000 1.0
C      1  0.5583730000000  0.5018860000000  0.4715440000000 1.0
C      1  0.4723910000000  0.4484010000000  0.4715440000000 1.0
C      1  0.4690620000000  0.5496070000000  0.4715440000000 1.0
C      1  0.5581750000000  0.4998340000000  0.5259980000000 1.0
C      1  0.4709390000000  0.5504620000000  0.5259980000000 1.0
C      1  0.4707110000000  0.4495990000000  0.5259980000000 1.0
C      1  0.4409010000000  0.4981680000000  0.5293360000000 1.0
C      1  0.5279070000000  0.5519940000000  0.5293370000000 1.0
C      1  0.5310180000000  0.4497320000000  0.5293360000000 1.0
C      1  0.4419880000000  0.5001840000000  0.4750270000000 1.0
C      1  0.5287290000000  0.4496660000000  0.4750270000000 1.0
C      1  0.5291080000000  0.5500450000000  0.4750270000000 1.0
C      1  0.4306160000000  0.5721440000000  0.5340180000000 1.0
C      1  0.5971140000000  0.5239130000000  0.5340180000000 1.0
C      1  0.4720960000000  0.4038370000000  0.5340180000000 1.0
C      1  0.4308000000000  0.4281730000000  0.4647510000000 1.0
C      1  0.5966860000000  0.4759820000000  0.4647510000000 1.0
C      1  0.4723400000000  0.5957390000000  0.4647510000000 1.0
C      1  0.5687020000000  0.4281890000000  0.4654380000000 1.0
C      1  0.4034020000000  0.4763040000000  0.4654380000000 1.0
C      1  0.5277210000000  0.5954010000000  0.4654380000000 1.0
C      1  0.5696980000000  0.5723130000000  0.5348650000000 1.0
C      1  0.4024080000000  0.5242010000000  0.5348650000000 1.0
C      1  0.5277190000000  0.4033800000000  0.5348650000000 1.0
C      1  0.4837580000000  0.3963320000000  0.4473880000000 1.0
C      1  0.4182850000000  0.5657960000000  0.4473880000000 1.0
C      1  0.5977820000000  0.5377660000000  0.4473880000000 1.0
C      1  0.4854230000000  0.6011150000000  0.5486390000000 1.0
C      1  0.4196030000000  0.4368160000000  0.5486390000000 1.0
C      1  0.5948000000000  0.4619640000000  0.5486390000000 1.0
C      1  0.5159200000000  0.6033300000000  0.5511220000000 1.0
C      1  0.5814690000000  0.4344440000000  0.5511220000000 1.0
C      1  0.4024360000000  0.4621200000000  0.5511220000000 1.0
C      1  0.5139910000000  0.3996070000000  0.4510600000000 1.0
C      1  0.5798300000000  0.5623100000000  0.4510600000000 1.0
C      1  0.4060050000000  0.5379770000000  0.4510600000000 1.0
C      1  0.5843970000000  0.4867580000000  0.5663940000000 1.0
C      1  0.4462770000000  0.4334280000000  0.5663940000000 1.0
C      1  0.4691520000000  0.5797080000000  0.5663940000000 1.0
C      1  0.5865140000000  0.5125830000000  0.4308940000000 1.0
C      1  0.4457290000000  0.5686290000000  0.4308940000000 1.0
C      1  0.4675840000000  0.4186830000000  0.4308940000000 1.0
C      1  0.4161380000000  0.5132440000000  0.4329940000000 1.0
C      1  0.5533440000000  0.5659010000000  0.4329940000000 1.0
C      1  0.5303440000000  0.4207490000000  0.4329940000000 1.0
C      1  0.4135630000000  0.4871350000000  0.5679400000000 1.0
C      1  0.5542420000000  0.4315730000000  0.5679400000000 1.0
C      1  0.5320200000000  0.5811860000000  0.5679400000000 1.0
C      1  0.5566680000000  0.5931730000000  0.5512480000000 1.0
C      1  0.5522990000000  0.4042340000000  0.5512480000000 1.0
C      1  0.3908580000000  0.5024870000000  0.5512480000000 1.0
C      1  0.5551280000000  0.4077290000000  0.4488050000000 1.0
C      1  0.5522270000000  0.5938750000000  0.4488050000000 1.0
C      1  0.3924700000000  0.4982900000000  0.4488050000000 1.0
C      1  0.4432010000000  0.4072130000000  0.4480930000000 1.0
C      1  0.4479870000000  0.5954800000000  0.4480930000000 1.0
C      1  0.6086380000000  0.4972020000000  0.4480930000000 1.0
C      1  0.4443320000000  0.5926630000000  0.5504710000000 1.0
C      1  0.4474680000000  0.4054560000000  0.5504710000000 1.0
C      1  0.6080260000000  0.5017760000000  0.5504710000000 1.0
C      1  0.4877820000000  0.4666070000000  0.5119270000000 1.0
C      1  0.4771330000000  0.5271740000000  0.5119270000000 1.0
C      1  0.5349100000000  0.5061130000000  0.5119270000000 1.0
C      1  0.4847450000000  0.5303890000000  0.4845530000000 1.0
C      1  0.4811920000000  0.4715920000000  0.4845530000000 1.0
C      1  0.5338890000000  0.4979130000000  0.4845530000000 1.0
C      1  0.5121430000000  0.5334370000000  0.4896080000000 1.0
C      1  0.5228290000000  0.4726620000000  0.4896080000000 1.0
C      1  0.4648540000000  0.4937950000000  0.4896080000000 1.0
C      1  0.5152790000000  0.4693690000000  0.5169820000000 1.0
C      1  0.5187700000000  0.5285450000000  0.5169820000000 1.0
C      1  0.4657760000000  0.5019800000000  0.5169820000000 1.0
C      1  0.4993200000000  0.5330940000000  0.4427170000000 1.0
C      1  0.5289440000000  0.4839380000000  0.4427170000000 1.0
C      1  0.5003820000000  0.4667860000000  0.5561650000000 1.0
C      1  0.5284550000000  0.5169350000000  0.5561650000000 1.0
C      1  0.4709890000000  0.5161730000000  0.5561650000000 1.0
C      1  0.4715620000000  0.4828620000000  0.4427170000000 1.0
C      1  0.4999420000000  0.4999650000000  0.5535520000000 1.0
C      1  0.4999420000000  0.4999650000000  0.4453330000000 1.0
END
