TITL C-862128-1543-377 -388238.222221168 125000 -934.116323870127 0 0 162 (Ci) n - 1
REM
REM in /home/nfs/bkarasulu/CARBON/AIRSS/Generating-Clusters/TERSOFF/Higher-Symm/FIRE-HFTN
REM
REM
REM
REM
REM
REM ./C.cell (b20cbc046b6831c77cfcea5457e17084)
REM AIRSS Version 0.9.1 bugfix July 2018 build 013d7b7c2542+ Fri, 06 Jul 2018 19:26:36 +0100
REM compiler GCC version 9.2.1 20190827 (Red Hat 9.2.1-1)
REM options -cpp -mtune=generic -march=x86-64 -g -O0 -fpre-include=/usr/include/finclude/math-vector-fortran.h
REM seed -765995618 -1378516371 1102258663 -128998844 1021243644 -1755584848 491153223 979528053 189413516 265757535 1620697262 1895040556 -1224443316 -1098328441 -1439671048 -1209121934 -1153261274 1172250492 -1278309721 1224031191 -587317814 685306093 1692406641 882000958 1794848292 386321261 -233966445 1879799554 411264568 1077161257 -493814665 21178204 922659189
REM
CELL 1.54180   50.00000   50.00000   50.00000   90.00000   90.00000   90.00000
LATT -1
SFAC C  
C      1  0.4369130000000  0.5511240000000  0.4252800000000 1.0
C      1  0.5630840000000  0.4488770000000  0.5747200000000 1.0
C      1  0.4529900000000  0.5113060000000  0.4832610000000 1.0
C      1  0.5470090000000  0.4886930000000  0.5167390000000 1.0
C      1  0.4633280000000  0.5108100000000  0.3749990000000 1.0
C      1  0.5366730000000  0.4891910000000  0.6250010000000 1.0
C      1  0.5294480000000  0.5075210000000  0.5573120000000 1.0
C      1  0.4705520000000  0.4924780000000  0.4426870000000 1.0
C      1  0.4526010000000  0.4912590000000  0.3961590000000 1.0
C      1  0.5474000000000  0.5087410000000  0.6038400000000 1.0
C      1  0.4729140000000  0.5476810000000  0.5376160000000 1.0
C      1  0.5270860000000  0.4523170000000  0.4623850000000 1.0
C      1  0.5492080000000  0.5096400000000  0.3979950000000 1.0
C      1  0.4507930000000  0.4903610000000  0.6020050000000 1.0
C      1  0.4375260000000  0.5281590000000  0.6299490000000 1.0
C      1  0.5624760000000  0.4718430000000  0.3700500000000 1.0
C      1  0.5088500000000  0.5511710000000  0.5020540000000 1.0
C      1  0.4911490000000  0.4488290000000  0.4979470000000 1.0
C      1  0.5399520000000  0.4976880000000  0.4528970000000 1.0
C      1  0.4600480000000  0.5023110000000  0.5471030000000 1.0
C      1  0.4830390000000  0.4154930000000  0.4706900000000 1.0
C      1  0.5169610000000  0.5845070000000  0.5293100000000 1.0
C      1  0.5299100000000  0.5370570000000  0.5152930000000 1.0
C      1  0.4700900000000  0.4629430000000  0.4847070000000 1.0
C      1  0.4942940000000  0.5118540000000  0.5041970000000 1.0
C      1  0.5057010000000  0.4881480000000  0.4958070000000 1.0
C      1  0.4740110000000  0.3922330000000  0.5153050000000 1.0
C      1  0.5259900000000  0.6077670000000  0.4846950000000 1.0
C      1  0.5849010000000  0.5563280000000  0.4245720000000 1.0
C      1  0.4150990000000  0.4436750000000  0.5754280000000 1.0
C      1  0.4270480000000  0.5073320000000  0.5857030000000 1.0
C      1  0.5729530000000  0.4926690000000  0.4142970000000 1.0
C      1  0.4824610000000  0.4511160000000  0.4065270000000 1.0
C      1  0.5175400000000  0.5488840000000  0.5934730000000 1.0
C      1  0.4080360000000  0.5171230000000  0.5103810000000 1.0
C      1  0.5919640000000  0.4828770000000  0.4896190000000 1.0
C      1  0.5047440000000  0.4736820000000  0.5602230000000 1.0
C      1  0.4952550000000  0.5263170000000  0.4397780000000 1.0
C      1  0.4315400000000  0.5622180000000  0.4993220000000 1.0
C      1  0.5684590000000  0.4377830000000  0.5006770000000 1.0
C      1  0.5444210000000  0.4240160000000  0.5140320000000 1.0
C      1  0.4555780000000  0.5759850000000  0.4859670000000 1.0
C      1  0.5334730000000  0.3746260000000  0.5069860000000 1.0
C      1  0.4665260000000  0.6253750000000  0.4930150000000 1.0
C      1  0.4838730000000  0.4529410000000  0.4378880000000 1.0
C      1  0.5161270000000  0.5470580000000  0.5621120000000 1.0
C      1  0.4574700000000  0.5065790000000  0.6274970000000 1.0
C      1  0.5425310000000  0.4934230000000  0.3725020000000 1.0
C      1  0.4841720000000  0.5082270000000  0.6394200000000 1.0
C      1  0.5158300000000  0.4917750000000  0.3605790000000 1.0
C      1  0.4511600000000  0.5088210000000  0.4544570000000 1.0
C      1  0.5488400000000  0.4911790000000  0.5455430000000 1.0
C      1  0.5293430000000  0.5281620000000  0.4107090000000 1.0
C      1  0.4706580000000  0.4718380000000  0.5892910000000 1.0
C      1  0.3843540000000  0.4719030000000  0.5102740000000 1.0
C      1  0.6156440000000  0.5280970000000  0.4897270000000 1.0
C      1  0.4121090000000  0.4743100000000  0.4240340000000 1.0
C      1  0.5878920000000  0.5256890000000  0.5759660000000 1.0
C      1  0.5985620000000  0.5423460000000  0.4713130000000 1.0
C      1  0.4014370000000  0.4576540000000  0.5286870000000 1.0
C      1  0.4475460000000  0.4041780000000  0.5206430000000 1.0
C      1  0.5524530000000  0.5958200000000  0.4793570000000 1.0
C      1  0.5024530000000  0.5407620000000  0.3759580000000 1.0
C      1  0.4975470000000  0.4592390000000  0.6240440000000 1.0
C      1  0.5343360000000  0.4050480000000  0.4672820000000 1.0
C      1  0.4656650000000  0.5949510000000  0.5327180000000 1.0
C      1  0.4200150000000  0.4465720000000  0.4147260000000 1.0
C      1  0.5799860000000  0.5534280000000  0.5852730000000 1.0
C      1  0.4895420000000  0.4249250000000  0.5749830000000 1.0
C      1  0.5104580000000  0.5750750000000  0.4250170000000 1.0
C      1  0.4838990000000  0.5587010000000  0.5139690000000 1.0
C      1  0.5161020000000  0.4413000000000  0.4860330000000 1.0
C      1  0.4233740000000  0.4282390000000  0.4815370000000 1.0
C      1  0.5766270000000  0.5717600000000  0.5184630000000 1.0
C      1  0.4760740000000  0.4916180000000  0.4153080000000 1.0
C      1  0.5239260000000  0.5083800000000  0.5846910000000 1.0
C      1  0.5795100000000  0.4714270000000  0.3936790000000 1.0
C      1  0.4204910000000  0.5285740000000  0.6063200000000 1.0
C      1  0.4327360000000  0.4262820000000  0.4323540000000 1.0
C      1  0.5672650000000  0.5737170000000  0.5676460000000 1.0
C      1  0.4580700000000  0.4613050000000  0.3924910000000 1.0
C      1  0.5419310000000  0.5386950000000  0.6075080000000 1.0
C      1  0.5616070000000  0.5632370000000  0.5421360000000 1.0
C      1  0.4383940000000  0.4367620000000  0.4578640000000 1.0
C      1  0.5120690000000  0.5672300000000  0.4761610000000 1.0
C      1  0.4879300000000  0.4327700000000  0.5238390000000 1.0
C      1  0.4872070000000  0.5022710000000  0.5624750000000 1.0
C      1  0.5127930000000  0.4977280000000  0.4375260000000 1.0
C      1  0.4663840000000  0.4431260000000  0.5820590000000 1.0
C      1  0.5336170000000  0.5568750000000  0.4179400000000 1.0
C      1  0.4306870000000  0.5237670000000  0.4370180000000 1.0
C      1  0.5693130000000  0.4762320000000  0.5629810000000 1.0
C      1  0.3920190000000  0.4962190000000  0.4969160000000 1.0
C      1  0.6079810000000  0.5037810000000  0.5030840000000 1.0
C      1  0.6047040000000  0.5454890000000  0.4429870000000 1.0
C      1  0.3952960000000  0.4545140000000  0.5570140000000 1.0
C      1  0.5438100000000  0.5151860000000  0.5019510000000 1.0
C      1  0.4561900000000  0.4848140000000  0.4980490000000 1.0
C      1  0.4894270000000  0.5429990000000  0.4657850000000 1.0
C      1  0.5105720000000  0.4570010000000  0.5342160000000 1.0
C      1  0.5037320000000  0.4869360000000  0.6390520000000 1.0
C      1  0.4962690000000  0.5130650000000  0.3609490000000 1.0
C      1  0.4562330000000  0.3944690000000  0.3996550000000 1.0
C      1  0.5437680000000  0.6055310000000  0.6003440000000 1.0
C      1  0.5466090000000  0.4299160000000  0.4556690000000 1.0
C      1  0.4533910000000  0.5700830000000  0.5443300000000 1.0
C      1  0.5412370000000  0.4308640000000  0.5652910000000 1.0
C      1  0.4587620000000  0.5691360000000  0.4347090000000 1.0
C      1  0.4382310000000  0.5178410000000  0.5574770000000 1.0
C      1  0.5617690000000  0.4821590000000  0.4425230000000 1.0
C      1  0.4854550000000  0.4153500000000  0.5484290000000 1.0
C      1  0.5145440000000  0.5846500000000  0.4515710000000 1.0
C      1  0.5235530000000  0.4656070000000  0.6088480000000 1.0
C      1  0.4764480000000  0.5343930000000  0.3911530000000 1.0
C      1  0.5992110000000  0.4995450000000  0.4351180000000 1.0
C      1  0.4007900000000  0.5004550000000  0.5648820000000 1.0
C      1  0.4820510000000  0.5744180000000  0.4159600000000 1.0
C      1  0.5179490000000  0.4255800000000  0.5840390000000 1.0
C      1  0.4919190000000  0.5334060000000  0.5538000000000 1.0
C      1  0.5080810000000  0.4665930000000  0.4462000000000 1.0
C      1  0.4620120000000  0.4533630000000  0.4591870000000 1.0
C      1  0.5379890000000  0.5466370000000  0.5408130000000 1.0
C      1  0.5254540000000  0.4667100000000  0.5801690000000 1.0
C      1  0.4745480000000  0.5332900000000  0.4198320000000 1.0
C      1  0.4677040000000  0.5638150000000  0.4620650000000 1.0
C      1  0.5322950000000  0.4361860000000  0.5379350000000 1.0
C      1  0.5581210000000  0.5647820000000  0.4335820000000 1.0
C      1  0.4418780000000  0.4352190000000  0.5664190000000 1.0
C      1  0.4952160000000  0.4071280000000  0.4986610000000 1.0
C      1  0.5047840000000  0.5928730000000  0.5013390000000 1.0
C      1  0.4113460000000  0.5245860000000  0.4611680000000 1.0
C      1  0.5886540000000  0.4754140000000  0.5388320000000 1.0
C      1  0.5037900000000  0.4803690000000  0.4068100000000 1.0
C      1  0.4962100000000  0.5196310000000  0.5931900000000 1.0
C      1  0.6051710000000  0.5003630000000  0.5333130000000 1.0
C      1  0.3948290000000  0.4996360000000  0.4666870000000 1.0
C      1  0.4533900000000  0.4820870000000  0.5271910000000 1.0
C      1  0.5466090000000  0.5179120000000  0.4728080000000 1.0
C      1  0.4772520000000  0.5264680000000  0.4879110000000 1.0
C      1  0.5227450000000  0.4735340000000  0.5120900000000 1.0
C      1  0.5462010000000  0.5939930000000  0.5738140000000 1.0
C      1  0.4538000000000  0.4060070000000  0.4261850000000 1.0
C      1  0.5275200000000  0.6026460000000  0.5511060000000 1.0
C      1  0.4724820000000  0.3973550000000  0.4488930000000 1.0
C      1  0.5721040000000  0.5506450000000  0.4793050000000 1.0
C      1  0.4278940000000  0.4493540000000  0.5206950000000 1.0
C      1  0.5706500000000  0.5955750000000  0.5025120000000 1.0
C      1  0.4293500000000  0.4044230000000  0.4974870000000 1.0
C      1  0.5709450000000  0.4332550000000  0.4717860000000 1.0
C      1  0.4290550000000  0.5667440000000  0.5282140000000 1.0
C      1  0.5802930000000  0.4639910000000  0.5100610000000 1.0
C      1  0.4197060000000  0.5360090000000  0.4899380000000 1.0
C      1  0.5888850000000  0.4800380000000  0.4598510000000 1.0
C      1  0.4111160000000  0.5199620000000  0.5401480000000 1.0
C      1  0.5270610000000  0.4020600000000  0.4971980000000 1.0
C      1  0.4729380000000  0.5979410000000  0.5028020000000 1.0
C      1  0.5716950000000  0.5019470000000  0.5847310000000 1.0
C      1  0.4283060000000  0.4980530000000  0.4152690000000 1.0
C      1  0.6063390000000  0.5224810000000  0.5528210000000 1.0
C      1  0.3936610000000  0.4775180000000  0.4471790000000 1.0
C      1  0.5559570000000  0.5695790000000  0.4639170000000 1.0
C      1  0.4440410000000  0.4304200000000  0.5360830000000 1.0
END
