TITL C-862501-1041-204 7.70645931275384e-06 125000 -238.264640848473 0 0 45 (C3) n - 1
REM
REM in /home/nfs/bkarasulu/CARBON/AIRSS/Generating-Clusters/TERSOFF/Higher-Symm/FIRE-HFTN
REM
REM
REM
REM
REM
REM ./C.cell (b20cbc046b6831c77cfcea5457e17084)
REM AIRSS Version 0.9.1 bugfix July 2018 build 013d7b7c2542+ Fri, 06 Jul 2018 19:26:36 +0100
REM compiler GCC version 9.2.1 20190827 (Red Hat 9.2.1-1)
REM options -cpp -mtune=generic -march=x86-64 -g -O0 -fpre-include=/usr/include/finclude/math-vector-fortran.h
REM seed -853377982 1297232003 -1583391146 1900224241 1857718698 -999783817 -318275345 -521712784 1368928179 -1458824607 153388647 -2083193397 -731927440 783790288 -862964964 -740044272 1388712919 -200456341 -1947133980 672947927 -1168290311 -1061358090 -716993369 -547276387 -1593819072 1464371452 862042658 -1772238250 -1572308759 533361024 -906313880 1986021640 -1899470851
REM
CELL 1.54180   50.00000   50.00000   50.00000   90.00000   90.00000   90.00000
LATT -1
SFAC C  
C      1  0.4542190000000  0.4630180000000  0.5450630000000 1.0
C      1  0.4542190000000  0.5575170000000  0.5094950000000 1.0
C      1  0.4542190000000  0.4794650000000  0.4454410000000 1.0
C      1  0.5089770000000  0.5365880000000  0.5453140000000 1.0
C      1  0.5089770000000  0.5209490000000  0.4456570000000 1.0
C      1  0.5089770000000  0.4424620000000  0.5090290000000 1.0
C      1  0.5454230000000  0.5174490000000  0.4704620000000 1.0
C      1  0.5454230000000  0.4656950000000  0.4996580000000 1.0
C      1  0.5454230000000  0.5168560000000  0.5298800000000 1.0
C      1  0.4774630000000  0.4473520000000  0.5362400000000 1.0
C      1  0.4774630000000  0.5577080000000  0.5274740000000 1.0
C      1  0.4774630000000  0.4949390000000  0.4362860000000 1.0
C      1  0.4553600000000  0.5419060000000  0.4595930000000 1.0
C      1  0.4553600000000  0.4440530000000  0.4839120000000 1.0
C      1  0.4553600000000  0.5140400000000  0.5564950000000 1.0
C      1  0.4736990000000  0.5184080000000  0.4953230000000 1.0
C      1  0.4736990000000  0.4867460000000  0.4863970000000 1.0
C      1  0.4736990000000  0.4948460000000  0.5182800000000 1.0
C      1  0.5050590000000  0.4789360000000  0.4332820000000 1.0
C      1  0.5050590000000  0.4527530000000  0.5516010000000 1.0
C      1  0.5050600000000  0.5683120000000  0.5151170000000 1.0
C      1  0.4799270000000  0.4353110000000  0.5019710000000 1.0
C      1  0.4799270000000  0.5340510000000  0.5550370000000 1.0
C      1  0.4799270000000  0.5306380000000  0.4429920000000 1.0
C      1  0.5489870000000  0.4901290000000  0.5434870000000 1.0
C      1  0.5489870000000  0.5425970000000  0.4868050000000 1.0
C      1  0.5489860000000  0.4672740000000  0.4697080000000 1.0
C      1  0.5174290000000  0.5195600000000  0.5242210000000 1.0
C      1  0.5174290000000  0.5111950000000  0.4709500000000 1.0
C      1  0.5174290000000  0.4692440000000  0.5048290000000 1.0
C      1  0.5184610000000  0.5617250000000  0.4866100000000 1.0
C      1  0.5184610000000  0.4575410000000  0.4532400000000 1.0
C      1  0.5184610000000  0.4807330000000  0.5601500000000 1.0
C      1  0.4534240000000  0.4912840000000  0.5381300000000 1.0
C      1  0.4534240000000  0.5373790000000  0.4884830000000 1.0
C      1  0.4534240000000  0.4713370000000  0.4733870000000 1.0
C      1  0.4967450000000  0.5048150000000  0.5697910000000 1.0
C      1  0.4967450000000  0.5580330000000  0.4609340000000 1.0
C      1  0.4967450000000  0.4371510000000  0.4692740000000 1.0
C      1  0.5613680000000  0.5343890000000  0.5126410000000 1.0
C      1  0.5613680000000  0.4937530000000  0.4638980000000 1.0
C      1  0.5613680000000  0.4718580000000  0.5234610000000 1.0
C      1  0.5034590000000  0.4917500000000  0.5227840000000 1.0
C      1  0.5034590000000  0.5238560000000  0.4957530000000 1.0
C      1  0.5034590000000  0.4843940000000  0.4814630000000 1.0
END
