TITL C-862129-6180-1392 0.00562456189033545 125000 -495.470662530226 0 0 87 (C1) n - 1
REM
REM in /home/nfs/bkarasulu/CARBON/AIRSS/Generating-Clusters/TERSOFF/Higher-Symm/FIRE-HFTN
REM
REM
REM
REM
REM
REM ./C.cell (b20cbc046b6831c77cfcea5457e17084)
REM AIRSS Version 0.9.1 bugfix July 2018 build 013d7b7c2542+ Fri, 06 Jul 2018 19:26:36 +0100
REM compiler GCC version 9.2.1 20190827 (Red Hat 9.2.1-1)
REM options -cpp -mtune=generic -march=x86-64 -g -O0 -fpre-include=/usr/include/finclude/math-vector-fortran.h
REM seed -1562174501 -1979979865 449560552 -12320716 281804061 -750585640 384159132 -58909223 304188183 60058007 994930712 1282345433 2109337633 -901955985 344137435 -4411008 1642234937 -175927506 -1206147281 180529574 1400785925 -98231038 1430878900 725902792 -2046094171 -2072638409 -1614709554 516715199 1658341236 -758876513 -507694638 -1540799034 1099925260
REM
CELL 1.54180   50.00000   50.00000   50.00000   90.00000   90.00000   90.00000
LATT -1
SFAC C  
C      1  0.5155770000000  0.4205010000000  0.4750780000000 1.0
C      1  0.5356730000000  0.4607060000000  0.4917350000000 1.0
C      1  0.6087040000000  0.5427940000000  0.4746750000000 1.0
C      1  0.4776670000000  0.4978820000000  0.5781230000000 1.0
C      1  0.4666960000000  0.4569490000000  0.5010640000000 1.0
C      1  0.4162880000000  0.4635420000000  0.4750150000000 1.0
C      1  0.4701280000000  0.5122980000000  0.5258340000000 1.0
C      1  0.5185610000000  0.5072820000000  0.4879050000000 1.0
C      1  0.4874200000000  0.5831900000000  0.4795430000000 1.0
C      1  0.4863320000000  0.4859150000000  0.4717850000000 1.0
C      1  0.4602910000000  0.5767710000000  0.4961040000000 1.0
C      1  0.5145360000000  0.5483210000000  0.4326190000000 1.0
C      1  0.4410150000000  0.5580200000000  0.4857190000000 1.0
C      1  0.5699500000000  0.4950000000000  0.5107880000000 1.0
C      1  0.4522720000000  0.4584500000000  0.4429020000000 1.0
C      1  0.4634130000000  0.5790380000000  0.5256410000000 1.0
C      1  0.4615100000000  0.5560240000000  0.5708500000000 1.0
C      1  0.4815240000000  0.5373870000000  0.4682450000000 1.0
C      1  0.4471520000000  0.5081690000000  0.4312550000000 1.0
C      1  0.5019110000000  0.5612000000000  0.4596010000000 1.0
C      1  0.4870470000000  0.4202120000000  0.4865880000000 1.0
C      1  0.5669460000000  0.4553560000000  0.4633540000000 1.0
C      1  0.5189350000000  0.5026400000000  0.5364800000000 1.0
C      1  0.4892770000000  0.5109030000000  0.4563370000000 1.0
C      1  0.4300400000000  0.5340400000000  0.5015020000000 1.0
C      1  0.5165410000000  0.4417800000000  0.4552940000000 1.0
C      1  0.4580610000000  0.4917740000000  0.4793290000000 1.0
C      1  0.4272800000000  0.4792540000000  0.5232260000000 1.0
C      1  0.4308780000000  0.4375020000000  0.4808270000000 1.0
C      1  0.5287180000000  0.4805180000000  0.4436840000000 1.0
C      1  0.4377880000000  0.4780860000000  0.4609470000000 1.0
C      1  0.5093220000000  0.5322660000000  0.5456690000000 1.0
C      1  0.4335170000000  0.5022120000000  0.5436850000000 1.0
C      1  0.4825220000000  0.5441690000000  0.5864280000000 1.0
C      1  0.5423440000000  0.4523920000000  0.4433160000000 1.0
C      1  0.5377250000000  0.4190620000000  0.4965920000000 1.0
C      1  0.4635980000000  0.4967270000000  0.5514370000000 1.0
C      1  0.5302550000000  0.5021200000000  0.4240570000000 1.0
C      1  0.5337210000000  0.4864800000000  0.4732660000000 1.0
C      1  0.4708800000000  0.4338530000000  0.5358770000000 1.0
C      1  0.5466750000000  0.5405690000000  0.5144760000000 1.0
C      1  0.4454070000000  0.4506730000000  0.5235290000000 1.0
C      1  0.4526030000000  0.5431190000000  0.4642950000000 1.0
C      1  0.4943200000000  0.5446890000000  0.4992660000000 1.0
C      1  0.5196180000000  0.4145660000000  0.5216600000000 1.0
C      1  0.5806440000000  0.5329680000000  0.4730740000000 1.0
C      1  0.5128480000000  0.5009620000000  0.5825730000000 1.0
C      1  0.4780570000000  0.4711050000000  0.4298020000000 1.0
C      1  0.4889480000000  0.5946480000000  0.5281060000000 1.0
C      1  0.4286410000000  0.4304500000000  0.5090100000000 1.0
C      1  0.5333210000000  0.5571940000000  0.4706590000000 1.0
C      1  0.4894500000000  0.4189890000000  0.5169290000000 1.0
C      1  0.4849810000000  0.5376790000000  0.5278650000000 1.0
C      1  0.5616240000000  0.4440870000000  0.4931590000000 1.0
C      1  0.5623740000000  0.4825840000000  0.5661400000000 1.0
C      1  0.5786940000000  0.5036170000000  0.4831990000000 1.0
C      1  0.5563550000000  0.4630930000000  0.5440800000000 1.0
C      1  0.5360130000000  0.5471630000000  0.5424060000000 1.0
C      1  0.5446940000000  0.5059080000000  0.5738600000000 1.0
C      1  0.5025770000000  0.5970080000000  0.5019520000000 1.0
C      1  0.4592270000000  0.5530220000000  0.5415140000000 1.0
C      1  0.4918800000000  0.4584830000000  0.5750670000000 1.0
C      1  0.4776260000000  0.4363580000000  0.5636590000000 1.0
C      1  0.5027900000000  0.5179470000000  0.4172270000000 1.0
C      1  0.5639100000000  0.4863290000000  0.4658460000000 1.0
C      1  0.5415160000000  0.5293430000000  0.4337080000000 1.0
C      1  0.5228610000000  0.5368790000000  0.4927430000000 1.0
C      1  0.5495550000000  0.5117500000000  0.5243420000000 1.0
C      1  0.5173210000000  0.4556870000000  0.5137220000000 1.0
C      1  0.5280100000000  0.4583670000000  0.5412610000000 1.0
C      1  0.4922630000000  0.4689990000000  0.5096820000000 1.0
C      1  0.4643760000000  0.4404890000000  0.4720100000000 1.0
C      1  0.4342710000000  0.5330730000000  0.5326360000000 1.0
C      1  0.5699280000000  0.4657780000000  0.5176500000000 1.0
C      1  0.5054120000000  0.4958440000000  0.5107390000000 1.0
C      1  0.5514520000000  0.5333900000000  0.5643990000000 1.0
C      1  0.5114580000000  0.4765870000000  0.5597550000000 1.0
C      1  0.4154250000000  0.5125750000000  0.4826890000000 1.0
C      1  0.6244650000000  0.5438750000000  0.4989270000000 1.0
C      1  0.5698700000000  0.5348450000000  0.4433930000000 1.0
C      1  0.4522850000000  0.5099380000000  0.5025820000000 1.0
C      1  0.5617920000000  0.5515130000000  0.4875820000000 1.0
C      1  0.4136480000000  0.4849790000000  0.4957820000000 1.0
C      1  0.4773830000000  0.5021430000000  0.4284570000000 1.0
C      1  0.5044780000000  0.5299890000000  0.5744380000000 1.0
C      1  0.4918120000000  0.4585510000000  0.4566690000000 1.0
C      1  0.4351270000000  0.5214110000000  0.4551070000000 1.0
END
