TITL C-862500-986-1057 0.85876300793176 125000 -327.639117370592 0 0 62 (C3) n - 1
REM
REM in /home/nfs/bkarasulu/CARBON/AIRSS/Generating-Clusters/TERSOFF/Higher-Symm/FIRE-HFTN
REM
REM
REM
REM
REM
REM ./C.cell (b20cbc046b6831c77cfcea5457e17084)
REM AIRSS Version 0.9.1 bugfix July 2018 build 013d7b7c2542+ Fri, 06 Jul 2018 19:26:36 +0100
REM compiler GCC version 9.2.1 20190827 (Red Hat 9.2.1-1)
REM options -cpp -mtune=generic -march=x86-64 -g -O0 -fpre-include=/usr/include/finclude/math-vector-fortran.h
REM seed 1091283947 -928964233 -1894167610 -1344217406 -1394203854 -1807968471 328540754 793717519 885190339 -1492084265 496294614 -308908900 -1243785229 1620886971 -369964663 1914216073 1539202584 -1599875539 225466807 18007051 906222746 -543639479 -665263520 -306352123 8766103 1798379439 -1433540969 -854912262 -1238692498 -279809791 1760218578 -1926370342 -871987408
REM
CELL 1.54180   50.00000   50.00000   50.00000   90.00000   90.00000   90.00000
LATT -1
SFAC C  
C      1  0.4336470000000  0.4922380000000  0.4503560000000 1.0
C      1  0.5391950000000  0.4457530000000  0.4503470000000 1.0
C      1  0.5266770000000  0.5604030000000  0.4503570000000 1.0
C      1  0.5660890000000  0.4960020000000  0.5466660000000 1.0
C      1  0.4637290000000  0.4438150000000  0.5466660000000 1.0
C      1  0.4697140000000  0.5585540000000  0.5466750000000 1.0
C      1  0.4400470000000  0.4807310000000  0.5551710000000 1.0
C      1  0.5459590000000  0.4570330000000  0.5551640000000 1.0
C      1  0.5135270000000  0.5606040000000  0.5551740000000 1.0
C      1  0.5577760000000  0.4838530000000  0.4459550000000 1.0
C      1  0.4573510000000  0.4570970000000  0.4459570000000 1.0
C      1  0.4843920000000  0.5574450000000  0.4459640000000 1.0
C      1  0.5486570000000  0.5005100000000  0.4249340000000 1.0
C      1  0.4745250000000  0.5412230000000  0.4249400000000 1.0
C      1  0.4763330000000  0.4566660000000  0.4249330000000 1.0
C      1  0.4513640000000  0.4987080000000  0.5739130000000 1.0
C      1  0.5234390000000  0.5418130000000  0.5739140000000 1.0
C      1  0.5247320000000  0.4578420000000  0.5739070000000 1.0
C      1  0.5418640000000  0.4671200000000  0.5281500000000 1.0
C      1  0.5068380000000  0.5520180000000  0.5281590000000 1.0
C      1  0.4508270000000  0.4792360000000  0.5281550000000 1.0
C      1  0.4629380000000  0.4707180000000  0.4713970000000 1.0
C      1  0.4933990000000  0.5457940000000  0.4714010000000 1.0
C      1  0.5431850000000  0.4818760000000  0.4713940000000 1.0
C      1  0.5376430000000  0.5637770000000  0.4907590000000 1.0
C      1  0.4252420000000  0.5000400000000  0.4907580000000 1.0
C      1  0.5366400000000  0.4345670000000  0.4907480000000 1.0
C      1  0.4637040000000  0.5687190000000  0.5063700000000 1.0
C      1  0.5778910000000  0.4961270000000  0.5063590000000 1.0
C      1  0.4579310000000  0.4335340000000  0.5063590000000 1.0
C      1  0.4393110000000  0.4745870000000  0.4880420000000 1.0
C      1  0.5516480000000  0.4594780000000  0.4880360000000 1.0
C      1  0.5085650000000  0.5643190000000  0.4880460000000 1.0
C      1  0.5656350000000  0.4700750000000  0.5105330000000 1.0
C      1  0.4414980000000  0.4571740000000  0.5105370000000 1.0
C      1  0.4923930000000  0.5711300000000  0.5105440000000 1.0
C      1  0.5100320000000  0.4695580000000  0.5154160000000 1.0
C      1  0.5206430000000  0.5232340000000  0.5154200000000 1.0
C      1  0.4688530000000  0.5055850000000  0.5154200000000 1.0
C      1  0.4966360000000  0.4730450000000  0.4839350000000 1.0
C      1  0.4785660000000  0.5154460000000  0.4839390000000 1.0
C      1  0.5243210000000  0.5098940000000  0.4839360000000 1.0
C      1  0.4907860000000  0.4554140000000  0.5365180000000 1.0
C      1  0.5425150000000  0.5136350000000  0.5365200000000 1.0
C      1  0.4662290000000  0.5293240000000  0.5365250000000 1.0
C      1  0.5119620000000  0.4562760000000  0.4598870000000 1.0
C      1  0.4563770000000  0.5105600000000  0.4598940000000 1.0
C      1  0.5311810000000  0.5315560000000  0.4598930000000 1.0
C      1  0.4742240000000  0.5142410000000  0.4346690000000 1.0
C      1  0.4998510000000  0.4698950000000  0.4346640000000 1.0
C      1  0.5254420000000  0.5142620000000  0.4346660000000 1.0
C      1  0.5246650000000  0.5154060000000  0.5625840000000 1.0
C      1  0.5012480000000  0.4699850000000  0.5625820000000 1.0
C      1  0.4736210000000  0.5129750000000  0.5625860000000 1.0
C      1  0.4504540000000  0.5428910000000  0.5096780000000 1.0
C      1  0.4869240000000  0.4349720000000  0.5096670000000 1.0
C      1  0.5621490000000  0.5205160000000  0.5096710000000 1.0
C      1  0.5543210000000  0.5390950000000  0.4866470000000 1.0
C      1  0.5069250000000  0.4324640000000  0.4866400000000 1.0
C      1  0.4382780000000  0.5268260000000  0.4866510000000 1.0
C      1  0.4998390000000  0.4994660000000  0.4330810000000 1.0
C      1  0.4998450000000  0.4994550000000  0.5638300000000 1.0
END
