TITL C-862131-2149-597 0.000303882616550138 125000 -141.23856064318 0 0 26 (C1) n - 1
REM
REM in /home/nfs/bkarasulu/CARBON/AIRSS/Generating-Clusters/TERSOFF/Higher-Symm/FIRE-HFTN
REM
REM
REM
REM
REM
REM ./C.cell (b20cbc046b6831c77cfcea5457e17084)
REM AIRSS Version 0.9.1 bugfix July 2018 build 013d7b7c2542+ Fri, 06 Jul 2018 19:26:36 +0100
REM compiler GCC version 9.2.1 20190827 (Red Hat 9.2.1-1)
REM options -cpp -mtune=generic -march=x86-64 -g -O0 -fpre-include=/usr/include/finclude/math-vector-fortran.h
REM seed 1233028110 1617338529 1745870146 670607053 -419813570 1488862202 982818042 -701783272 -995060707 1270543870 -923366065 1261086191 -1573274440 -497662283 1977295348 426551060 1627691864 -1350102537 -1717359996 -1696193308 1798149207 722195802 604230999 -21343020 42281193 1262759642 -1465573332 -696094884 1891627508 -482573404 1137724543 662333755 1947938972
REM
CELL 1.54180   50.00000   50.00000   50.00000   90.00000   90.00000   90.00000
LATT -1
SFAC C  
C      1  0.4524700000000  0.5100770000000  0.5094700000000 1.0
C      1  0.4750890000000  0.5762960000000  0.5281300000000 1.0
C      1  0.4765010000000  0.5354010000000  0.4702820000000 1.0
C      1  0.4560360000000  0.4837450000000  0.4969800000000 1.0
C      1  0.5334100000000  0.5047640000000  0.4692300000000 1.0
C      1  0.5228980000000  0.5226910000000  0.4928700000000 1.0
C      1  0.4688870000000  0.4909690000000  0.4499790000000 1.0
C      1  0.5500010000000  0.4575240000000  0.4692320000000 1.0
C      1  0.4826790000000  0.5275080000000  0.5418880000000 1.0
C      1  0.5208940000000  0.5036870000000  0.5657800000000 1.0
C      1  0.5394050000000  0.4458800000000  0.5441890000000 1.0
C      1  0.5002060000000  0.4355590000000  0.4775510000000 1.0
C      1  0.5013150000000  0.4651910000000  0.4805960000000 1.0
C      1  0.4658480000000  0.5352020000000  0.4979190000000 1.0
C      1  0.5052890000000  0.5359490000000  0.4700200000000 1.0
C      1  0.5273970000000  0.4761370000000  0.4661870000000 1.0
C      1  0.4839800000000  0.5494970000000  0.5199310000000 1.0
C      1  0.5159730000000  0.5014100000000  0.5150240000000 1.0
C      1  0.5147390000000  0.4728140000000  0.5079150000000 1.0
C      1  0.5365550000000  0.4547460000000  0.5167420000000 1.0
C      1  0.5548820000000  0.4466390000000  0.4955730000000 1.0
C      1  0.5067930000000  0.5107340000000  0.5414170000000 1.0
C      1  0.4746420000000  0.4780370000000  0.4751670000000 1.0
C      1  0.4574260000000  0.5126840000000  0.5384830000000 1.0
C      1  0.5124610000000  0.5476820000000  0.5096960000000 1.0
C      1  0.4642220000000  0.5191780000000  0.4497470000000 1.0
END
