TITL C-862129-6180-729 11.941122926694 125000 -792.02685522308 0 0 139 (S4) n - 1
REM
REM in /home/nfs/bkarasulu/CARBON/AIRSS/Generating-Clusters/TERSOFF/Higher-Symm/FIRE-HFTN
REM
REM
REM
REM
REM
REM ./C.cell (b20cbc046b6831c77cfcea5457e17084)
REM AIRSS Version 0.9.1 bugfix July 2018 build 013d7b7c2542+ Fri, 06 Jul 2018 19:26:36 +0100
REM compiler GCC version 9.2.1 20190827 (Red Hat 9.2.1-1)
REM options -cpp -mtune=generic -march=x86-64 -g -O0 -fpre-include=/usr/include/finclude/math-vector-fortran.h
REM seed -2018210808 844746473 -1336799953 -1130537141 1907559739 1640263751 497822869 600261659 -265358577 -285475687 -1202924975 -1318837152 717014446 -1443334574 -228599529 843614430 -1586402309 -1563430425 -22320445 -1406285167 1128733741 1374353944 1055134922 410639765 35071870 -1396882561 453391586 -624111093 937487497 -1288406468 587284999 167179625 -1112548210
REM
CELL 1.54180   50.00000   50.00000   50.00000   90.00000   90.00000   90.00000
LATT -1
SFAC C  
C      1  0.4819780000000  0.5586930000000  0.4679800000000 1.0
C      1  0.5177550000000  0.4680330000000  0.4418390000000 1.0
C      1  0.4819780000000  0.4418910000000  0.5324990000000 1.0
C      1  0.5177550000000  0.5325520000000  0.5586400000000 1.0
C      1  0.5058660000000  0.4367310000000  0.4872520000000 1.0
C      1  0.4938670000000  0.4873050000000  0.5638000000000 1.0
C      1  0.5058660000000  0.5638530000000  0.5132270000000 1.0
C      1  0.4938670000000  0.5132800000000  0.4366790000000 1.0
C      1  0.5911500000000  0.5262030000000  0.4379470000000 1.0
C      1  0.4085830000000  0.4379990000000  0.4743290000000 1.0
C      1  0.5911500000000  0.4743820000000  0.5625320000000 1.0
C      1  0.4085830000000  0.5625850000000  0.5261500000000 1.0
C      1  0.4521280000000  0.5881260000000  0.4606010000000 1.0
C      1  0.5476050000000  0.4606540000000  0.4124060000000 1.0
C      1  0.4521280000000  0.4124580000000  0.5398780000000 1.0
C      1  0.5476050000000  0.5399310000000  0.5880730000000 1.0
C      1  0.4086550000000  0.4816840000000  0.5108990000000 1.0
C      1  0.5910780000000  0.5109510000000  0.5188480000000 1.0
C      1  0.4086550000000  0.5189010000000  0.4895800000000 1.0
C      1  0.5910780000000  0.4896330000000  0.4816310000000 1.0
C      1  0.4777610000000  0.5114750000000  0.6151980000000 1.0
C      1  0.5219720000000  0.6152510000000  0.4890560000000 1.0
C      1  0.4777610000000  0.4891090000000  0.3852810000000 1.0
C      1  0.5219720000000  0.3853340000000  0.5114230000000 1.0
C      1  0.5191810000000  0.4606290000000  0.5271560000000 1.0
C      1  0.4805520000000  0.5272090000000  0.5399030000000 1.0
C      1  0.5191810000000  0.5399560000000  0.4733230000000 1.0
C      1  0.4805520000000  0.4733760000000  0.4605760000000 1.0
C      1  0.5288400000000  0.4051560000000  0.4519860000000 1.0
C      1  0.4708930000000  0.4520390000000  0.5953760000000 1.0
C      1  0.5288400000000  0.5954280000000  0.5484930000000 1.0
C      1  0.4708930000000  0.5485460000000  0.4051030000000 1.0
C      1  0.4895510000000  0.4257490000000  0.5082630000000 1.0
C      1  0.5101820000000  0.5083150000000  0.5747830000000 1.0
C      1  0.4895510000000  0.5748360000000  0.4922160000000 1.0
C      1  0.5101820000000  0.4922690000000  0.4256960000000 1.0
C      1  0.5431970000000  0.4665780000000  0.4563670000000 1.0
C      1  0.4565360000000  0.4564200000000  0.5339530000000 1.0
C      1  0.5431970000000  0.5340060000000  0.5441120000000 1.0
C      1  0.4565360000000  0.5441650000000  0.4665260000000 1.0
C      1  0.4400930000000  0.5651210000000  0.4856980000000 1.0
C      1  0.5596400000000  0.4857500000000  0.4354110000000 1.0
C      1  0.4400930000000  0.4354640000000  0.5147810000000 1.0
C      1  0.5596400000000  0.5148340000000  0.5650680000000 1.0
C      1  0.5461310000000  0.5595900000000  0.4386450000000 1.0
C      1  0.4536020000000  0.4386980000000  0.4409420000000 1.0
C      1  0.5461310000000  0.4409950000000  0.5618340000000 1.0
C      1  0.4536020000000  0.5618860000000  0.5595370000000 1.0
C      1  0.4537740000000  0.5274420000000  0.6085050000000 1.0
C      1  0.5459590000000  0.6085570000000  0.4730900000000 1.0
C      1  0.4537740000000  0.4731430000000  0.3919740000000 1.0
C      1  0.5459590000000  0.3920270000000  0.5273890000000 1.0
C      1  0.4814620000000  0.5996250000000  0.4588620000000 1.0
C      1  0.5182710000000  0.4589150000000  0.4009070000000 1.0
C      1  0.4814620000000  0.4009600000000  0.5416170000000 1.0
C      1  0.5182710000000  0.5416690000000  0.5995720000000 1.0
C      1  0.4952080000000  0.3972290000000  0.5151310000000 1.0
C      1  0.5045260000000  0.5151830000000  0.6033020000000 1.0
C      1  0.4952080000000  0.6033550000000  0.4853480000000 1.0
C      1  0.5045260000000  0.4854010000000  0.3971770000000 1.0
C      1  0.4778990000000  0.4036500000000  0.4648600000000 1.0
C      1  0.5218340000000  0.4649130000000  0.5968820000000 1.0
C      1  0.4778990000000  0.5969340000000  0.5356190000000 1.0
C      1  0.5218340000000  0.5356710000000  0.4035970000000 1.0
C      1  0.5042960000000  0.5574200000000  0.5738460000000 1.0
C      1  0.4954380000000  0.5738990000000  0.4431120000000 1.0
C      1  0.5042960000000  0.4431650000000  0.4266330000000 1.0
C      1  0.4954380000000  0.4266860000000  0.5573670000000 1.0
C      1  0.5049090000000  0.5833750000000  0.5358310000000 1.0
C      1  0.4948240000000  0.5358840000000  0.4171570000000 1.0
C      1  0.5049090000000  0.4172090000000  0.4646480000000 1.0
C      1  0.4948240000000  0.4647010000000  0.5833220000000 1.0
C      1  0.5249690000000  0.4551300000000  0.4999690000000 1.0
C      1  0.4747640000000  0.5000220000000  0.5454020000000 1.0
C      1  0.5249690000000  0.5454540000000  0.5005100000000 1.0
C      1  0.4747640000000  0.5005630000000  0.4550770000000 1.0
C      1  0.5860280000000  0.4605190000000  0.5372580000000 1.0
C      1  0.4137050000000  0.5373110000000  0.5400130000000 1.0
C      1  0.5860280000000  0.5400650000000  0.4632210000000 1.0
C      1  0.4137050000000  0.4632730000000  0.4604660000000 1.0
C      1  0.5749880000000  0.5760170000000  0.5393260000000 1.0
C      1  0.4247450000000  0.5393790000000  0.4245140000000 1.0
C      1  0.5749880000000  0.4245670000000  0.4611530000000 1.0
C      1  0.4247450000000  0.4612060000000  0.5759650000000 1.0
C      1  0.5476250000000  0.5383530000000  0.4181760000000 1.0
C      1  0.4521090000000  0.4182290000000  0.4621790000000 1.0
C      1  0.5476250000000  0.4622320000000  0.5823030000000 1.0
C      1  0.4521090000000  0.5823560000000  0.5383000000000 1.0
C      1  0.5844020000000  0.4746480000000  0.4573130000000 1.0
C      1  0.4153320000000  0.4573660000000  0.5258840000000 1.0
C      1  0.5844020000000  0.5259370000000  0.5431660000000 1.0
C      1  0.4153320000000  0.5432180000000  0.4745950000000 1.0
C      1  0.5530370000000  0.4197230000000  0.4435290000000 1.0
C      1  0.4466970000000  0.4435810000000  0.5808090000000 1.0
C      1  0.5530370000000  0.5808620000000  0.5569500000000 1.0
C      1  0.4466960000000  0.5570030000000  0.4196700000000 1.0
C      1  0.5137560000000  0.4984290000000  0.4705340000000 1.0
C      1  0.4859780000000  0.4705860000000  0.5021030000000 1.0
C      1  0.5137560000000  0.5021560000000  0.5299450000000 1.0
C      1  0.4859780000000  0.5299980000000  0.4983760000000 1.0
C      1  0.5427750000000  0.4719390000000  0.4852470000000 1.0
C      1  0.4569580000000  0.4853000000000  0.5285930000000 1.0
C      1  0.5427750000000  0.5286460000000  0.5152320000000 1.0
C      1  0.4569580000000  0.5152850000000  0.4718860000000 1.0
C      1  0.4316430000000  0.5774300000000  0.5155460000000 1.0
C      1  0.5680900000000  0.5155990000000  0.4231010000000 1.0
C      1  0.4316430000000  0.4231540000000  0.4849330000000 1.0
C      1  0.5680900000000  0.4849860000000  0.5773780000000 1.0
C      1  0.4788840000000  0.4521550000000  0.4414750000000 1.0
C      1  0.5208490000000  0.4415280000000  0.5483770000000 1.0
C      1  0.4788840000000  0.5484300000000  0.5590040000000 1.0
C      1  0.5208490000000  0.5590560000000  0.4521020000000 1.0
C      1  0.5927120000000  0.5538170000000  0.5433690000000 1.0
C      1  0.4070210000000  0.5434210000000  0.4467140000000 1.0
C      1  0.5927120000000  0.4467670000000  0.4571100000000 1.0
C      1  0.4070210000000  0.4571630000000  0.5537650000000 1.0
C      1  0.4620610000000  0.4533020000000  0.4924810000000 1.0
C      1  0.5376720000000  0.4925340000000  0.5472290000000 1.0
C      1  0.4620610000000  0.5472820000000  0.5079980000000 1.0
C      1  0.5376720000000  0.5080510000000  0.4532490000000 1.0
C      1  0.5824600000000  0.5207470000000  0.4870210000000 1.0
C      1  0.4172730000000  0.4870740000000  0.4797850000000 1.0
C      1  0.5824600000000  0.4798380000000  0.5134580000000 1.0
C      1  0.4172730000000  0.5135100000000  0.5206940000000 1.0
C      1  0.5553070000000  0.4327430000000  0.4176910000000 1.0
C      1  0.4444260000000  0.4177430000000  0.5677880000000 1.0
C      1  0.5553070000000  0.5678410000000  0.5827880000000 1.0
C      1  0.4444260000000  0.5828410000000  0.4326910000000 1.0
C      1  0.4321860000000  0.4586940000000  0.4372760000000 1.0
C      1  0.5675470000000  0.4373290000000  0.5418380000000 1.0
C      1  0.4321860000000  0.5418900000000  0.5632030000000 1.0
C      1  0.5675470000000  0.5632550000000  0.4586410000000 1.0
C      1  0.4358140000000  0.5228960000000  0.5853720000000 1.0
C      1  0.5639200000000  0.5854250000000  0.4776360000000 1.0
C      1  0.4358140000000  0.4776890000000  0.4151070000000 1.0
C      1  0.5639200000000  0.4151600000000  0.5228430000000 1.0
C      1  0.5550240000000  0.5002920000000  0.5002390000000 1.0
C      1  0.4447090000000  0.5002920000000  0.5002390000000 1.0
C      1  0.4998670000000  0.5002920000000  0.5002390000000 1.0
END
