TITL C-862130-1496-98 0.000131674690703206 125000 -193.283372617999 0 0 36 (C5) n - 1
REM
REM in /home/nfs/bkarasulu/CARBON/AIRSS/Generating-Clusters/TERSOFF/Higher-Symm/FIRE-HFTN
REM
REM
REM
REM
REM
REM ./C.cell (b20cbc046b6831c77cfcea5457e17084)
REM AIRSS Version 0.9.1 bugfix July 2018 build 013d7b7c2542+ Fri, 06 Jul 2018 19:26:36 +0100
REM compiler GCC version 9.2.1 20190827 (Red Hat 9.2.1-1)
REM options -cpp -mtune=generic -march=x86-64 -g -O0 -fpre-include=/usr/include/finclude/math-vector-fortran.h
REM seed -2045188303 -797937425 73184499 -1017723958 -756330110 655214679 2078096128 -1101833599 2065744107 1784383608 424277973 1044495377 -1380794328 -2020194982 -1910287984 1802323154 51237219 -918479512 -2004737948 1594792654 86953771 -397076247 1491507561 -625682592 -823828826 1439394290 -814858473 306909425 1664247374 -2113041420 1994855577 -695911537 -2115913678
REM
CELL 1.54180   50.00000   50.00000   50.00000   90.00000   90.00000   90.00000
LATT -1
SFAC C  
C      1  0.4973700000000  0.4985720000000  0.5592950000000 1.0
C      1  0.4435500000000  0.4985720000000  0.5170130000000 1.0
C      1  0.4671310000000  0.4985720000000  0.4527610000000 1.0
C      1  0.5355260000000  0.4985720000000  0.4553330000000 1.0
C      1  0.5542150000000  0.4985720000000  0.5211750000000 1.0
C      1  0.5261150000000  0.5487410000000  0.5016730000000 1.0
C      1  0.5072340000000  0.5487410000000  0.5265440000000 1.0
C      1  0.4777460000000  0.5487410000000  0.5162740000000 1.0
C      1  0.4784010000000  0.5487410000000  0.4850550000000 1.0
C      1  0.5082950000000  0.5487410000000  0.4760310000000 1.0
C      1  0.4828020000000  0.5103840000000  0.5325760000000 1.0
C      1  0.4644590000000  0.5103840000000  0.4949010000000 1.0
C      1  0.4946230000000  0.5103840000000  0.4658140000000 1.0
C      1  0.5316070000000  0.5103840000000  0.4855120000000 1.0
C      1  0.5243010000000  0.5103840000000  0.5267740000000 1.0
C      1  0.4789880000000  0.4605070000000  0.5170480000000 1.0
C      1  0.4780490000000  0.4605070000000  0.4864750000000 1.0
C      1  0.5068360000000  0.4605070000000  0.4761340000000 1.0
C      1  0.5255650000000  0.4605070000000  0.5003170000000 1.0
C      1  0.5083540000000  0.4605070000000  0.5256030000000 1.0
C      1  0.5175850000000  0.4758700000000  0.5497150000000 1.0
C      1  0.4589070000000  0.4758700000000  0.5332780000000 1.0
C      1  0.4564080000000  0.4758700000000  0.4723930000000 1.0
C      1  0.5135410000000  0.4758700000000  0.4512010000000 1.0
C      1  0.5513500000000  0.4758700000000  0.4989890000000 1.0
C      1  0.5519260000000  0.5285100000000  0.5009700000000 1.0
C      1  0.5158790000000  0.5285100000000  0.5508750000000 1.0
C      1  0.4572780000000  0.5285100000000  0.5320140000000 1.0
C      1  0.4571060000000  0.5285100000000  0.4704520000000 1.0
C      1  0.5156020000000  0.5285100000000  0.4512660000000 1.0
C      1  0.4892280000000  0.4826090000000  0.4348520000000 1.0
C      1  0.5593860000000  0.4826090000000  0.4708140000000 1.0
C      1  0.5468640000000  0.4826090000000  0.5486520000000 1.0
C      1  0.4689670000000  0.4826090000000  0.5607960000000 1.0
C      1  0.4333460000000  0.4826090000000  0.4904630000000 1.0
C      1  0.4995580000000  0.5062670000000  0.5011150000000 1.0
END
