TITL C-862131-2149-1477 -0.00305744115682744 125000 -80.7778972902174 0 0 15 (C1) n - 1
REM
REM in /home/nfs/bkarasulu/CARBON/AIRSS/Generating-Clusters/TERSOFF/Higher-Symm/FIRE-HFTN
REM
REM
REM
REM
REM
REM ./C.cell (b20cbc046b6831c77cfcea5457e17084)
REM AIRSS Version 0.9.1 bugfix July 2018 build 013d7b7c2542+ Fri, 06 Jul 2018 19:26:36 +0100
REM compiler GCC version 9.2.1 20190827 (Red Hat 9.2.1-1)
REM options -cpp -mtune=generic -march=x86-64 -g -O0 -fpre-include=/usr/include/finclude/math-vector-fortran.h
REM seed -1568997562 -1742251154 -1361643610 766324100 695517931 -1313999121 -674874229 396753640 1242960637 1057800031 1723170414 -1882048941 1847648501 -1463670578 -920107049 236651814 2023256791 628612668 -1074977577 866152202 537660626 -2036492418 -380345578 -409224864 -1011163609 2099609269 -1478606718 1759394931 -73644942 -1123862802 -679195285 1379070434 1485021317
REM
CELL 1.54180   50.00000   50.00000   50.00000   90.00000   90.00000   90.00000
LATT -1
SFAC C  
C      1  0.5268380000000  0.5135910000000  0.4701870000000 1.0
C      1  0.5466990000000  0.4977790000000  0.4556960000000 1.0
C      1  0.5419520000000  0.4698140000000  0.4500480000000 1.0
C      1  0.5172990000000  0.4574900000000  0.4588140000000 1.0
C      1  0.4972090000000  0.4730660000000  0.4732510000000 1.0
C      1  0.4689450000000  0.4693870000000  0.4680990000000 1.0
C      1  0.4511580000000  0.4901070000000  0.4583850000000 1.0
C      1  0.4598440000000  0.5153160000000  0.4467410000000 1.0
C      1  0.4700930000000  0.5379370000000  0.4618750000000 1.0
C      1  0.4952130000000  0.5515630000000  0.4564150000000 1.0
C      1  0.5214460000000  0.5411060000000  0.4629320000000 1.0
C      1  0.5013910000000  0.5032380000000  0.5611510000000 1.0
C      1  0.4960370000000  0.5079360000000  0.5103490000000 1.0
C      1  0.5065160000000  0.4983600000000  0.4850260000000 1.0
C      1  0.4955420000000  0.4925850000000  0.5348820000000 1.0
END
