TITL C-862500-986-796 -0.193067895367118 125000 -267.533116965211 0 0 52 (S4) n - 1
REM
REM in /home/nfs/bkarasulu/CARBON/AIRSS/Generating-Clusters/TERSOFF/Higher-Symm/FIRE-HFTN
REM
REM
REM
REM
REM
REM ./C.cell (b20cbc046b6831c77cfcea5457e17084)
REM AIRSS Version 0.9.1 bugfix July 2018 build 013d7b7c2542+ Fri, 06 Jul 2018 19:26:36 +0100
REM compiler GCC version 9.2.1 20190827 (Red Hat 9.2.1-1)
REM options -cpp -mtune=generic -march=x86-64 -g -O0 -fpre-include=/usr/include/finclude/math-vector-fortran.h
REM seed 881516761 -426450043 1654775235 -1662282889 1090390347 1000378526 1844966314 927877349 -231795187 1052133659 -1646863492 -1988890612 1747138872 457961095 962634580 1649750823 2077917567 722154165 -1530803401 1075368733 -131580756 -1237063397 -294289831 2105336589 1648869848 1603094346 1679651137 -895943481 -188912498 -196491958 2133816512 112089900 370849948
REM
CELL 1.54180   50.00000   50.00000   50.00000   90.00000   90.00000   90.00000
LATT -1
SFAC C  
C      1  0.5490330000000  0.4872750000000  0.4737420000000 1.0
C      1  0.4509670000000  0.4872750000000  0.5262580000000 1.0
C      1  0.5522930000000  0.5073910000000  0.5286510000000 1.0
C      1  0.4477070000000  0.5073920000000  0.4713490000000 1.0
C      1  0.4713490000000  0.4926080000000  0.5522930000000 1.0
C      1  0.5286510000000  0.4926090000000  0.4477060000000 1.0
C      1  0.5262580000000  0.5127240000000  0.5490330000000 1.0
C      1  0.4737420000000  0.5127260000000  0.4509680000000 1.0
C      1  0.4797660000000  0.4571440000000  0.5314250000000 1.0
C      1  0.5202340000000  0.4571450000000  0.4685730000000 1.0
C      1  0.5069710000000  0.5567410000000  0.4699530000000 1.0
C      1  0.4930290000000  0.5567400000000  0.5300490000000 1.0
C      1  0.5300480000000  0.4432600000000  0.5069700000000 1.0
C      1  0.4699520000000  0.4432600000000  0.4930280000000 1.0
C      1  0.4685740000000  0.5428560000000  0.4797670000000 1.0
C      1  0.5314260000000  0.5428550000000  0.5202350000000 1.0
C      1  0.5101330000000  0.5287800000000  0.4780820000000 1.0
C      1  0.4898670000000  0.5287790000000  0.5219190000000 1.0
C      1  0.4996830000000  0.4774070000000  0.5253380000000 1.0
C      1  0.5003170000000  0.4774080000000  0.4746610000000 1.0
C      1  0.4746610000000  0.5225920000000  0.4996830000000 1.0
C      1  0.5253390000000  0.5225920000000  0.5003170000000 1.0
C      1  0.5219180000000  0.4712200000000  0.5101320000000 1.0
C      1  0.4780820000000  0.4712210000000  0.4898670000000 1.0
C      1  0.4679000000000  0.4546370000000  0.4526520000000 1.0
C      1  0.5321000000000  0.4546360000000  0.5473460000000 1.0
C      1  0.4666480000000  0.5340710000000  0.5565110000000 1.0
C      1  0.5333530000000  0.5340720000000  0.4434910000000 1.0
C      1  0.4434900000000  0.4659290000000  0.4666470000000 1.0
C      1  0.5565100000000  0.4659280000000  0.5333520000000 1.0
C      1  0.5473470000000  0.5453640000000  0.4679010000000 1.0
C      1  0.4526530000000  0.5453630000000  0.5321010000000 1.0
C      1  0.5704690000000  0.4545010000000  0.5088230000000 1.0
C      1  0.4295310000000  0.4545010000000  0.4911760000000 1.0
C      1  0.5691040000000  0.5315140000000  0.4833710000000 1.0
C      1  0.4308960000000  0.5315130000000  0.5166300000000 1.0
C      1  0.5166290000000  0.4684850000000  0.5691040000000 1.0
C      1  0.4833710000000  0.4684880000000  0.4308950000000 1.0
C      1  0.4911760000000  0.5454980000000  0.5704700000000 1.0
C      1  0.5088240000000  0.5455000000000  0.4295320000000 1.0
C      1  0.5132380000000  0.4724850000000  0.4301110000000 1.0
C      1  0.4867620000000  0.4724830000000  0.5698880000000 1.0
C      1  0.5194130000000  0.5366370000000  0.5655480000000 1.0
C      1  0.4805870000000  0.5366390000000  0.4344540000000 1.0
C      1  0.4344530000000  0.4633620000000  0.5194130000000 1.0
C      1  0.5655470000000  0.4633630000000  0.4805860000000 1.0
C      1  0.5698880000000  0.5275160000000  0.5132380000000 1.0
C      1  0.4301120000000  0.5275160000000  0.4867630000000 1.0
C      1  0.5382590000000  0.4943330000000  0.5016570000000 1.0
C      1  0.4617410000000  0.4943330000000  0.4983430000000 1.0
C      1  0.4983430000000  0.5056660000000  0.5382590000000 1.0
C      1  0.5016570000000  0.5056680000000  0.4617410000000 1.0
END
