TITL C-862505-1648-292 0.144157084391829 125000 -114.043776711084 0 0 24 (C1) n - 1
REM
REM in /home/nfs/bkarasulu/CARBON/AIRSS/Generating-Clusters/TERSOFF/Higher-Symm/FIRE-HFTN
REM
REM
REM
REM
REM
REM ./C.cell (b20cbc046b6831c77cfcea5457e17084)
REM AIRSS Version 0.9.1 bugfix July 2018 build 013d7b7c2542+ Fri, 06 Jul 2018 19:26:36 +0100
REM compiler GCC version 9.2.1 20190827 (Red Hat 9.2.1-1)
REM options -cpp -mtune=generic -march=x86-64 -g -O0 -fpre-include=/usr/include/finclude/math-vector-fortran.h
REM seed -1639378949 1571751763 -722812637 2074990602 -254186844 -1693562023 -2082295152 1560437470 -689418395 1654058550 355450980 -1348348442 986132710 1558156730 -1744394815 1304152876 1580139098 -175444821 -1580558773 73619258 -718499121 779897260 -1971297578 101447064 1028053335 1409751582 1522032625 440670261 241078723 67847669 1435046379 1069996051 381379074
REM
CELL 1.54180   50.00000   50.00000   50.00000   90.00000   90.00000   90.00000
LATT -1
SFAC C  
C      1  0.5497460000000  0.4793100000000  0.5048090000000 1.0
C      1  0.5240350000000  0.4930970000000  0.4580490000000 1.0
C      1  0.4730760000000  0.4574440000000  0.4614840000000 1.0
C      1  0.4582300000000  0.4950770000000  0.5016030000000 1.0
C      1  0.4992680000000  0.4799370000000  0.5436620000000 1.0
C      1  0.5034360000000  0.4538080000000  0.5319170000000 1.0
C      1  0.5358270000000  0.4539690000000  0.5052320000000 1.0
C      1  0.5201290000000  0.4656040000000  0.4680630000000 1.0
C      1  0.4862180000000  0.4388170000000  0.4792210000000 1.0
C      1  0.4711430000000  0.4693320000000  0.5100440000000 1.0
C      1  0.4670720000000  0.5065100000000  0.4499220000000 1.0
C      1  0.4790540000000  0.5434270000000  0.5007330000000 1.0
C      1  0.5030960000000  0.5292780000000  0.5321240000000 1.0
C      1  0.5376340000000  0.5289320000000  0.5082720000000 1.0
C      1  0.5136900000000  0.5433890000000  0.4769860000000 1.0
C      1  0.4980610000000  0.5018020000000  0.5245670000000 1.0
C      1  0.5323110000000  0.5018100000000  0.4992040000000 1.0
C      1  0.5073380000000  0.5162700000000  0.4686920000000 1.0
C      1  0.4788070000000  0.4855860000000  0.4662750000000 1.0
C      1  0.4629660000000  0.5219300000000  0.5133150000000 1.0
C      1  0.5008630000000  0.4936290000000  0.4930650000000 1.0
C      1  0.5181700000000  0.5785710000000  0.5173300000000 1.0
C      1  0.5121360000000  0.5511200000000  0.5091170000000 1.0
C      1  0.5031920000000  0.4569460000000  0.4986640000000 1.0
END
