TITL C-862133-5440-1408 9.53629974200588 125000 -567.761824771434 0 0 101 (C1) n - 1
REM
REM in /home/nfs/bkarasulu/CARBON/AIRSS/Generating-Clusters/TERSOFF/Higher-Symm/FIRE-HFTN
REM
REM
REM
REM
REM
REM ./C.cell (b20cbc046b6831c77cfcea5457e17084)
REM AIRSS Version 0.9.1 bugfix July 2018 build 013d7b7c2542+ Fri, 06 Jul 2018 19:26:36 +0100
REM compiler GCC version 9.2.1 20190827 (Red Hat 9.2.1-1)
REM options -cpp -mtune=generic -march=x86-64 -g -O0 -fpre-include=/usr/include/finclude/math-vector-fortran.h
REM seed 1128233445 950424921 1381094410 1123410355 -2012030596 -2022596723 839561964 1376275246 -1263825108 -2036459827 2083091891 1817797879 -1766230412 -1919894957 1449962108 -1513807211 1231841429 -2133541900 -721332689 2139683003 810209609 -1726030144 735777407 274514924 -1607317225 1981975503 -828656865 1547081645 1837093856 64489619 -572679351 550174731 123509895
REM
CELL 1.54180   50.00000   50.00000   50.00000   90.00000   90.00000   90.00000
LATT -1
SFAC C  
C      1  0.4707040000000  0.4295650000000  0.5676590000000 1.0
C      1  0.4870040000000  0.4838320000000  0.4466660000000 1.0
C      1  0.4903250000000  0.5238670000000  0.4812300000000 1.0
C      1  0.4715850000000  0.5720930000000  0.4779340000000 1.0
C      1  0.4857740000000  0.5366800000000  0.5399550000000 1.0
C      1  0.5089000000000  0.5876840000000  0.4583140000000 1.0
C      1  0.4555480000000  0.4907050000000  0.5699590000000 1.0
C      1  0.5630960000000  0.5293600000000  0.5253250000000 1.0
C      1  0.5211830000000  0.5807890000000  0.4853280000000 1.0
C      1  0.5039910000000  0.5677430000000  0.4340890000000 1.0
C      1  0.5386190000000  0.4804220000000  0.6020710000000 1.0
C      1  0.4274960000000  0.4630310000000  0.5554270000000 1.0
C      1  0.4289230000000  0.5368100000000  0.4706880000000 1.0
C      1  0.4204230000000  0.4339640000000  0.5394210000000 1.0
C      1  0.4531950000000  0.5747770000000  0.4566020000000 1.0
C      1  0.4954080000000  0.4177460000000  0.5167370000000 1.0
C      1  0.4515880000000  0.5208200000000  0.5727540000000 1.0
C      1  0.5518810000000  0.4744630000000  0.4232090000000 1.0
C      1  0.5403770000000  0.4744280000000  0.4960030000000 1.0
C      1  0.5002090000000  0.4250290000000  0.5685890000000 1.0
C      1  0.5585680000000  0.4508070000000  0.4976300000000 1.0
C      1  0.5754510000000  0.4457190000000  0.5209500000000 1.0
C      1  0.4124360000000  0.4804330000000  0.4969510000000 1.0
C      1  0.4443720000000  0.5207250000000  0.5428070000000 1.0
C      1  0.5214990000000  0.5430650000000  0.4233950000000 1.0
C      1  0.5182790000000  0.4796500000000  0.5178460000000 1.0
C      1  0.5069150000000  0.4412350000000  0.5304440000000 1.0
C      1  0.5183170000000  0.4348670000000  0.5898440000000 1.0
C      1  0.4668790000000  0.4484930000000  0.5177020000000 1.0
C      1  0.5338000000000  0.4452470000000  0.4549390000000 1.0
C      1  0.5865820000000  0.4883070000000  0.5479730000000 1.0
C      1  0.4206150000000  0.4688340000000  0.5829360000000 1.0
C      1  0.4453680000000  0.5394370000000  0.4956190000000 1.0
C      1  0.5081450000000  0.5410650000000  0.3740350000000 1.0
C      1  0.5265990000000  0.5903750000000  0.5349590000000 1.0
C      1  0.4212100000000  0.4422300000000  0.4650080000000 1.0
C      1  0.4561710000000  0.5215090000000  0.4362740000000 1.0
C      1  0.5043480000000  0.4989880000000  0.4028590000000 1.0
C      1  0.5552480000000  0.4982370000000  0.4887580000000 1.0
C      1  0.4205150000000  0.5089070000000  0.4645240000000 1.0
C      1  0.4918780000000  0.4612050000000  0.5489600000000 1.0
C      1  0.4814400000000  0.4378850000000  0.4731640000000 1.0
C      1  0.4949090000000  0.4618860000000  0.4813040000000 1.0
C      1  0.5403610000000  0.4549450000000  0.5863780000000 1.0
C      1  0.4983760000000  0.4872110000000  0.5921650000000 1.0
C      1  0.5631890000000  0.5360100000000  0.4534650000000 1.0
C      1  0.4837860000000  0.5627710000000  0.5222060000000 1.0
C      1  0.5111260000000  0.4832970000000  0.4280360000000 1.0
C      1  0.4719230000000  0.4230710000000  0.4976750000000 1.0
C      1  0.4659780000000  0.5186120000000  0.4989230000000 1.0
C      1  0.4551040000000  0.5619380000000  0.4166600000000 1.0
C      1  0.4813080000000  0.5746500000000  0.4160420000000 1.0
C      1  0.4576910000000  0.5103400000000  0.4073920000000 1.0
C      1  0.5281940000000  0.5288670000000  0.5857650000000 1.0
C      1  0.4832240000000  0.4282530000000  0.4454140000000 1.0
C      1  0.5660930000000  0.5600940000000  0.5224330000000 1.0
C      1  0.4064870000000  0.4921910000000  0.5228460000000 1.0
C      1  0.4545710000000  0.4423740000000  0.5452130000000 1.0
C      1  0.5463780000000  0.5057490000000  0.5897710000000 1.0
C      1  0.5830230000000  0.4979710000000  0.4778480000000 1.0
C      1  0.5854390000000  0.5171500000000  0.4559540000000 1.0
C      1  0.4771910000000  0.4899400000000  0.3987080000000 1.0
C      1  0.5644270000000  0.5469440000000  0.5747000000000 1.0
C      1  0.5997380000000  0.5015030000000  0.5012020000000 1.0
C      1  0.4883480000000  0.4718800000000  0.5085460000000 1.0
C      1  0.4465830000000  0.4477170000000  0.4519070000000 1.0
C      1  0.4689830000000  0.4817550000000  0.5444340000000 1.0
C      1  0.5259890000000  0.4522720000000  0.4246490000000 1.0
C      1  0.4743340000000  0.4606290000000  0.4052140000000 1.0
C      1  0.5864920000000  0.5081740000000  0.5261140000000 1.0
C      1  0.4704550000000  0.5113610000000  0.5272050000000 1.0
C      1  0.5244430000000  0.4886190000000  0.5455010000000 1.0
C      1  0.5566390000000  0.5268520000000  0.5549380000000 1.0
C      1  0.4790500000000  0.5347480000000  0.5702560000000 1.0
C      1  0.5091190000000  0.4757080000000  0.5674920000000 1.0
C      1  0.5222000000000  0.4647140000000  0.4738480000000 1.0
C      1  0.4596060000000  0.5655320000000  0.5039360000000 1.0
C      1  0.5744090000000  0.4612150000000  0.5464090000000 1.0
C      1  0.5580700000000  0.4351490000000  0.4714730000000 1.0
C      1  0.5112840000000  0.5278770000000  0.3997400000000 1.0
C      1  0.5367100000000  0.4971220000000  0.4387270000000 1.0
C      1  0.5086240000000  0.5799480000000  0.5141170000000 1.0
C      1  0.4420510000000  0.5501450000000  0.4426030000000 1.0
C      1  0.4381050000000  0.4975710000000  0.4438160000000 1.0
C      1  0.5534210000000  0.5797390000000  0.5408270000000 1.0
C      1  0.5609610000000  0.5746940000000  0.5683990000000 1.0
C      1  0.5411630000000  0.5258980000000  0.4378500000000 1.0
C      1  0.4174480000000  0.5172880000000  0.5325860000000 1.0
C      1  0.5145260000000  0.5179820000000  0.5011100000000 1.0
C      1  0.4085400000000  0.4327080000000  0.5130690000000 1.0
C      1  0.4564800000000  0.4742150000000  0.4454110000000 1.0
C      1  0.5479350000000  0.5716540000000  0.4841730000000 1.0
C      1  0.4995720000000  0.5291660000000  0.5906390000000 1.0
C      1  0.4819430000000  0.5119760000000  0.4537650000000 1.0
C      1  0.5540680000000  0.5447320000000  0.4795030000000 1.0
C      1  0.4936690000000  0.4446480000000  0.4228200000000 1.0
C      1  0.5450000000000  0.5236270000000  0.4989690000000 1.0
C      1  0.4137710000000  0.4517590000000  0.4915760000000 1.0
C      1  0.5131250000000  0.4839510000000  0.6176580000000 1.0
C      1  0.5648820000000  0.4479430000000  0.5712310000000 1.0
C      1  0.4926240000000  0.5522380000000  0.4738520000000 1.0
END
