TITL C-862500-986-871 1.38574046745542 125000 -663.854999622204 0 0 114 (C1) n - 1
REM
REM in /home/nfs/bkarasulu/CARBON/AIRSS/Generating-Clusters/TERSOFF/Higher-Symm/FIRE-HFTN
REM
REM
REM
REM
REM
REM ./C.cell (b20cbc046b6831c77cfcea5457e17084)
REM AIRSS Version 0.9.1 bugfix July 2018 build 013d7b7c2542+ Fri, 06 Jul 2018 19:26:36 +0100
REM compiler GCC version 9.2.1 20190827 (Red Hat 9.2.1-1)
REM options -cpp -mtune=generic -march=x86-64 -g -O0 -fpre-include=/usr/include/finclude/math-vector-fortran.h
REM seed 1718600663 1880726597 -1625207464 1628574919 1974759033 -1694630536 1415839664 -1172370442 1884337548 1333138357 879953402 729708104 -2116465 -1734991660 -660459887 -556076067 1267251866 1609684053 -1019735334 1111000112 1468612163 80252660 292725632 -1904399925 1395030273 1922701816 -52457837 -1443743834 -1535598722 -281848525 530927276 -1996343172 -1179915905
REM
CELL 1.54180   50.00000   50.00000   50.00000   90.00000   90.00000   90.00000
LATT -1
SFAC C  
C      1  0.4443830000000  0.5114920000000  0.5284210000000 1.0
C      1  0.4687150000000  0.4789740000000  0.4753290000000 1.0
C      1  0.4677430000000  0.5208380000000  0.4726700000000 1.0
C      1  0.4698730000000  0.4784030000000  0.5242170000000 1.0
C      1  0.5552490000000  0.5654440000000  0.4699280000000 1.0
C      1  0.5557470000000  0.4345190000000  0.5291420000000 1.0
C      1  0.5548100000000  0.5647920000000  0.5288860000000 1.0
C      1  0.5555860000000  0.4348410000000  0.4701350000000 1.0
C      1  0.5913990000000  0.5145260000000  0.4485540000000 1.0
C      1  0.5913700000000  0.4855380000000  0.5508180000000 1.0
C      1  0.5910730000000  0.5143000000000  0.5508090000000 1.0
C      1  0.5914390000000  0.4857480000000  0.4485840000000 1.0
C      1  0.4616550000000  0.5933060000000  0.5140520000000 1.0
C      1  0.4599740000000  0.4050720000000  0.4857950000000 1.0
C      1  0.4621530000000  0.5943460000000  0.4847440000000 1.0
C      1  0.4607230000000  0.4048450000000  0.5151020000000 1.0
C      1  0.6038550000000  0.4761460000000  0.5263650000000 1.0
C      1  0.6037320000000  0.5240440000000  0.4730290000000 1.0
C      1  0.6038640000000  0.4762420000000  0.4729860000000 1.0
C      1  0.6034760000000  0.5239360000000  0.5264440000000 1.0
C      1  0.4031860000000  0.5194000000000  0.5405420000000 1.0
C      1  0.4052070000000  0.4844760000000  0.4640940000000 1.0
C      1  0.4049930000000  0.5160740000000  0.4645830000000 1.0
C      1  0.4069110000000  0.4886290000000  0.5319030000000 1.0
C      1  0.4215710000000  0.4355840000000  0.5181100000000 1.0
C      1  0.4223180000000  0.5647320000000  0.4819510000000 1.0
C      1  0.4215030000000  0.4370040000000  0.4859050000000 1.0
C      1  0.4223700000000  0.5629320000000  0.5136060000000 1.0
C      1  0.6042280000000  0.4477960000000  0.4763900000000 1.0
C      1  0.6035740000000  0.5523590000000  0.5230300000000 1.0
C      1  0.6042800000000  0.4477120000000  0.5228330000000 1.0
C      1  0.6038730000000  0.5524890000000  0.4764990000000 1.0
C      1  0.5261740000000  0.5237890000000  0.4768410000000 1.0
C      1  0.5248050000000  0.4782810000000  0.5209100000000 1.0
C      1  0.5292140000000  0.5221220000000  0.5247540000000 1.0
C      1  0.5240190000000  0.4787650000000  0.4789280000000 1.0
C      1  0.4650400000000  0.5143730000000  0.4217020000000 1.0
C      1  0.4653530000000  0.4848300000000  0.5760180000000 1.0
C      1  0.4651690000000  0.5136980000000  0.5767610000000 1.0
C      1  0.4653000000000  0.4852970000000  0.4225160000000 1.0
C      1  0.4479610000000  0.4263440000000  0.5307760000000 1.0
C      1  0.4485530000000  0.5735900000000  0.4687110000000 1.0
C      1  0.4471030000000  0.4272570000000  0.4710700000000 1.0
C      1  0.4481070000000  0.5711130000000  0.5282080000000 1.0
C      1  0.4635820000000  0.5520100000000  0.5459990000000 1.0
C      1  0.4628100000000  0.4448390000000  0.4516500000000 1.0
C      1  0.4636540000000  0.5556550000000  0.4496030000000 1.0
C      1  0.4639020000000  0.4446860000000  0.5485110000000 1.0
C      1  0.5029670000000  0.4308810000000  0.4749570000000 1.0
C      1  0.5025560000000  0.5672910000000  0.5234830000000 1.0
C      1  0.5033210000000  0.4304370000000  0.5247050000000 1.0
C      1  0.5026900000000  0.5686760000000  0.4742470000000 1.0
C      1  0.4841970000000  0.4701830000000  0.4062980000000 1.0
C      1  0.4838090000000  0.5283350000000  0.5937890000000 1.0
C      1  0.4838830000000  0.4696390000000  0.5926690000000 1.0
C      1  0.4840340000000  0.5288440000000  0.4050210000000 1.0
C      1  0.5643100000000  0.5240400000000  0.5604270000000 1.0
C      1  0.5647910000000  0.4757610000000  0.4390320000000 1.0
C      1  0.5647050000000  0.5244280000000  0.4388730000000 1.0
C      1  0.5648470000000  0.4752810000000  0.5605310000000 1.0
C      1  0.4017220000000  0.4620740000000  0.5161320000000 1.0
C      1  0.4033070000000  0.5381450000000  0.4855710000000 1.0
C      1  0.4006400000000  0.4625670000000  0.4841040000000 1.0
C      1  0.3999970000000  0.5394690000000  0.5190690000000 1.0
C      1  0.5810450000000  0.4327750000000  0.4849440000000 1.0
C      1  0.5803240000000  0.5670900000000  0.5142790000000 1.0
C      1  0.5811240000000  0.4326840000000  0.5142260000000 1.0
C      1  0.5805490000000  0.5673090000000  0.4850140000000 1.0
C      1  0.4950960000000  0.4453870000000  0.5491720000000 1.0
C      1  0.4948340000000  0.5549850000000  0.4488510000000 1.0
C      1  0.4942070000000  0.4460420000000  0.4507430000000 1.0
C      1  0.4945450000000  0.5531920000000  0.5484310000000 1.0
C      1  0.5075660000000  0.5267090000000  0.4545580000000 1.0
C      1  0.5070280000000  0.4742140000000  0.5433420000000 1.0
C      1  0.5092910000000  0.5258500000000  0.5458970000000 1.0
C      1  0.5060500000000  0.4750070000000  0.4565330000000 1.0
C      1  0.5315960000000  0.4272580000000  0.5146120000000 1.0
C      1  0.5309880000000  0.5729450000000  0.4842360000000 1.0
C      1  0.5314530000000  0.4275200000000  0.4847120000000 1.0
C      1  0.5307610000000  0.5723300000000  0.5142920000000 1.0
C      1  0.5127400000000  0.5246960000000  0.4053090000000 1.0
C      1  0.5126140000000  0.4741170000000  0.5938390000000 1.0
C      1  0.5125650000000  0.5240860000000  0.5943670000000 1.0
C      1  0.5128500000000  0.4747600000000  0.4057480000000 1.0
C      1  0.4213160000000  0.5285610000000  0.5611480000000 1.0
C      1  0.4229770000000  0.4744170000000  0.4435730000000 1.0
C      1  0.4223640000000  0.5264830000000  0.4432200000000 1.0
C      1  0.4240530000000  0.4752390000000  0.5527100000000 1.0
C      1  0.4533360000000  0.4727330000000  0.5517470000000 1.0
C      1  0.4518660000000  0.5279130000000  0.4446650000000 1.0
C      1  0.4521840000000  0.4728010000000  0.4460400000000 1.0
C      1  0.4505660000000  0.5274130000000  0.5550520000000 1.0
C      1  0.5059690000000  0.4338360000000  0.5742150000000 1.0
C      1  0.5058720000000  0.5675590000000  0.4244330000000 1.0
C      1  0.5048920000000  0.4347970000000  0.4254520000000 1.0
C      1  0.5028520000000  0.5676180000000  0.5730240000000 1.0
C      1  0.5538980000000  0.5513350000000  0.4440240000000 1.0
C      1  0.5542990000000  0.4483460000000  0.5551570000000 1.0
C      1  0.5531520000000  0.5507630000000  0.5548710000000 1.0
C      1  0.5541100000000  0.4488580000000  0.4442480000000 1.0
C      1  0.5257260000000  0.4998370000000  0.4129930000000 1.0
C      1  0.5257800000000  0.4992130000000  0.5869930000000 1.0
C      1  0.4873930000000  0.5638770000000  0.4987650000000 1.0
C      1  0.4878470000000  0.4330800000000  0.4999620000000 1.0
C      1  0.5480240000000  0.4999880000000  0.4319030000000 1.0
C      1  0.5479180000000  0.4994490000000  0.5677650000000 1.0
C      1  0.4984330000000  0.4999810000000  0.5551470000000 1.0
C      1  0.4977040000000  0.5007280000000  0.4442530000000 1.0
C      1  0.6079190000000  0.5001240000000  0.4997160000000 1.0
C      1  0.4351260000000  0.5000930000000  0.4890740000000 1.0
C      1  0.4920900000000  0.5151670000000  0.5064040000000 1.0
C      1  0.4111110000000  0.5010430000000  0.5036110000000 1.0
C      1  0.5217700000000  0.5030650000000  0.5001810000000 1.0
C      1  0.4638250000000  0.5008270000000  0.5016810000000 1.0
END
