TITL C-862128-1543-1187 0.000177681994149349 125000 -228.419609354511 0 0 47 (C3) n - 1
REM
REM in /home/nfs/bkarasulu/CARBON/AIRSS/Generating-Clusters/TERSOFF/Higher-Symm/FIRE-HFTN
REM
REM
REM
REM
REM
REM ./C.cell (b20cbc046b6831c77cfcea5457e17084)
REM AIRSS Version 0.9.1 bugfix July 2018 build 013d7b7c2542+ Fri, 06 Jul 2018 19:26:36 +0100
REM compiler GCC version 9.2.1 20190827 (Red Hat 9.2.1-1)
REM options -cpp -mtune=generic -march=x86-64 -g -O0 -fpre-include=/usr/include/finclude/math-vector-fortran.h
REM seed -830179514 -1245309409 -136865469 -1416516740 1680801472 255566561 -1567023682 -2029297852 -545701655 979782330 -1926258245 1531206405 -921776017 1968418388 -146813116 1342909826 2123477041 104077116 -583696145 -930837316 -1796844479 27085640 -1173974045 -1376136713 -1114375790 692022225 1861110089 -21610331 1959838861 80735114 -1327745358 -20843953 1333444013
REM
CELL 1.54180   50.00000   50.00000   50.00000   90.00000   90.00000   90.00000
LATT -1
SFAC C  
C      1  0.4747700000000  0.5312400000000  0.4387650000000 1.0
C      1  0.4592520000000  0.5312400000000  0.5502410000000 1.0
C      1  0.5635520000000  0.5312400000000  0.5079420000000 1.0
C      1  0.4505720000000  0.5068530000000  0.4682550000000 1.0
C      1  0.4968910000000  0.5068530000000  0.5564520000000 1.0
C      1  0.5501120000000  0.5068530000000  0.4722400000000 1.0
C      1  0.4679470000000  0.4616440000000  0.5577880000000 1.0
C      1  0.5657410000000  0.4616440000000  0.4966380000000 1.0
C      1  0.4638870000000  0.4616440000000  0.4425210000000 1.0
C      1  0.4847380000000  0.4806120000000  0.4286770000000 1.0
C      1  0.4455320000000  0.4806120000000  0.5466520000000 1.0
C      1  0.5673040000000  0.4806120000000  0.5216180000000 1.0
C      1  0.5168510000000  0.5007160000000  0.5172280000000 1.0
C      1  0.5061630000000  0.5007160000000  0.4745660000000 1.0
C      1  0.4745610000000  0.5007160000000  0.5051530000000 1.0
C      1  0.4894230000000  0.4897250000000  0.5307620000000 1.0
C      1  0.5315980000000  0.4897250000000  0.4915520000000 1.0
C      1  0.4765540000000  0.4897250000000  0.4746330000000 1.0
C      1  0.5366290000000  0.4654600000000  0.5285080000000 1.0
C      1  0.5060430000000  0.4654600000000  0.4517980000000 1.0
C      1  0.4549030000000  0.4654600000000  0.5166410000000 1.0
C      1  0.4838310000000  0.4519420000000  0.5133200000000 1.0
C      1  0.5192880000000  0.4519420000000  0.5051160000000 1.0
C      1  0.4944550000000  0.4519420000000  0.4785110000000 1.0
C      1  0.4653890000000  0.5439150000000  0.4993260000000 1.0
C      1  0.5163900000000  0.5439150000000  0.5280850000000 1.0
C      1  0.5157950000000  0.5439150000000  0.4695370000000 1.0
C      1  0.4657640000000  0.5058260000000  0.4279940000000 1.0
C      1  0.4544280000000  0.5058260000000  0.5634260000000 1.0
C      1  0.5773830000000  0.5058260000000  0.5055270000000 1.0
C      1  0.5437390000000  0.5305640000000  0.5294450000000 1.0
C      1  0.5032990000000  0.5305640000000  0.4451720000000 1.0
C      1  0.4505370000000  0.5305640000000  0.5223310000000 1.0
C      1  0.4947250000000  0.4608080000000  0.5435610000000 1.0
C      1  0.5400300000000  0.4608080000000  0.4805610000000 1.0
C      1  0.4628190000000  0.4608080000000  0.4728250000000 1.0
C      1  0.5436090000000  0.5351290000000  0.4711860000000 1.0
C      1  0.4529100000000  0.5351290000000  0.4744140000000 1.0
C      1  0.5010550000000  0.5351290000000  0.5513480000000 1.0
C      1  0.5226920000000  0.4816510000000  0.5547670000000 1.0
C      1  0.5357520000000  0.4816510000000  0.4507380000000 1.0
C      1  0.4391300000000  0.4816510000000  0.4914430000000 1.0
C      1  0.4354110000000  0.5024610000000  0.5197170000000 1.0
C      1  0.5490380000000  0.5024610000000  0.5438510000000 1.0
C      1  0.5131250000000  0.5024610000000  0.4333800000000 1.0
C      1  0.4991910000000  0.5480490000000  0.4989820000000 1.0
C      1  0.4991910000000  0.5184120000000  0.4989820000000 1.0
END
