TITL C-862501-1041-624 0.921937819594728 125000 -643.882113645188 0 0 114 (C1) n - 1
REM
REM in /home/nfs/bkarasulu/CARBON/AIRSS/Generating-Clusters/TERSOFF/Higher-Symm/FIRE-HFTN
REM
REM
REM
REM
REM
REM ./C.cell (b20cbc046b6831c77cfcea5457e17084)
REM AIRSS Version 0.9.1 bugfix July 2018 build 013d7b7c2542+ Fri, 06 Jul 2018 19:26:36 +0100
REM compiler GCC version 9.2.1 20190827 (Red Hat 9.2.1-1)
REM options -cpp -mtune=generic -march=x86-64 -g -O0 -fpre-include=/usr/include/finclude/math-vector-fortran.h
REM seed 753753062 -2020301961 -242046754 -1545310255 -402889563 -1002165230 -603864277 -10098436 1822399993 1056447484 1897366525 -777857450 -987141537 -1710624806 -1510235914 -1954222786 -1940445194 857375228 2096507195 1282199170 421716719 -746447633 1634785334 170473474 100814751 -1276293766 157786423 -1196966455 -203768479 -331997094 -1030205999 -1409939604 -189197447
REM
CELL 1.54180   50.00000   50.00000   50.00000   90.00000   90.00000   90.00000
LATT -1
SFAC C  
C      1  0.4768270000000  0.5005000000000  0.4955890000000 1.0
C      1  0.5106180000000  0.5067980000000  0.4847430000000 1.0
C      1  0.5151180000000  0.5070590000000  0.5204810000000 1.0
C      1  0.5885000000000  0.5261320000000  0.5354330000000 1.0
C      1  0.4295540000000  0.5273010000000  0.5556640000000 1.0
C      1  0.4859420000000  0.5271650000000  0.4118260000000 1.0
C      1  0.4445450000000  0.4326380000000  0.4789010000000 1.0
C      1  0.5456810000000  0.4316730000000  0.4630930000000 1.0
C      1  0.5103740000000  0.4327510000000  0.5588650000000 1.0
C      1  0.4951580000000  0.5435030000000  0.5460550000000 1.0
C      1  0.4592440000000  0.5432440000000  0.4731840000000 1.0
C      1  0.5466570000000  0.5421870000000  0.4824520000000 1.0
C      1  0.4363480000000  0.4604340000000  0.4755330000000 1.0
C      1  0.5520140000000  0.4595580000000  0.4571570000000 1.0
C      1  0.5116430000000  0.4614060000000  0.5651850000000 1.0
C      1  0.4587100000000  0.5013360000000  0.4712310000000 1.0
C      1  0.5429160000000  0.5007100000000  0.4774510000000 1.0
C      1  0.4970030000000  0.5015970000000  0.5462470000000 1.0
C      1  0.4745230000000  0.4665630000000  0.5043060000000 1.0
C      1  0.5084950000000  0.4711540000000  0.4737340000000 1.0
C      1  0.5225050000000  0.4712750000000  0.5234330000000 1.0
C      1  0.5153730000000  0.4934080000000  0.4302200000000 1.0
C      1  0.5563110000000  0.4935740000000  0.5516380000000 1.0
C      1  0.4305980000000  0.4952810000000  0.5200770000000 1.0
C      1  0.5514090000000  0.5837000000000  0.4784000000000 1.0
C      1  0.4946120000000  0.5847080000000  0.5538800000000 1.0
C      1  0.4528650000000  0.5853720000000  0.4675710000000 1.0
C      1  0.5907940000000  0.4714490000000  0.4887570000000 1.0
C      1  0.4650580000000  0.4719590000000  0.5837620000000 1.0
C      1  0.4430070000000  0.4712210000000  0.4248640000000 1.0
C      1  0.4105060000000  0.4923620000000  0.4668240000000 1.0
C      1  0.5716890000000  0.4924150000000  0.4399770000000 1.0
C      1  0.5162470000000  0.4932120000000  0.5922100000000 1.0
C      1  0.4744090000000  0.4627030000000  0.5336480000000 1.0
C      1  0.4824920000000  0.4637190000000  0.4590380000000 1.0
C      1  0.5443860000000  0.4630840000000  0.5053580000000 1.0
C      1  0.4593920000000  0.5975260000000  0.4942030000000 1.0
C      1  0.5234510000000  0.5908120000000  0.4730540000000 1.0
C      1  0.5138890000000  0.5907330000000  0.5328850000000 1.0
C      1  0.4627010000000  0.5758340000000  0.5133660000000 1.0
C      1  0.5033210000000  0.5699070000000  0.4694830000000 1.0
C      1  0.5292340000000  0.5694660000000  0.5207410000000 1.0
C      1  0.5436030000000  0.4781240000000  0.4328960000000 1.0
C      1  0.5371720000000  0.4785580000000  0.5726490000000 1.0
C      1  0.4190450000000  0.4789740000000  0.4945900000000 1.0
C      1  0.5555360000000  0.5747770000000  0.5073950000000 1.0
C      1  0.4663800000000  0.5774900000000  0.5433790000000 1.0
C      1  0.4778260000000  0.5748650000000  0.4527500000000 1.0
C      1  0.4675950000000  0.5361940000000  0.5359470000000 1.0
C      1  0.4815310000000  0.5331240000000  0.4531370000000 1.0
C      1  0.5560530000000  0.5329130000000  0.5097300000000 1.0
C      1  0.4926550000000  0.4159770000000  0.4684780000000 1.0
C      1  0.5313530000000  0.4162480000000  0.5105460000000 1.0
C      1  0.4763540000000  0.4142570000000  0.5224850000000 1.0
C      1  0.5733620000000  0.5228970000000  0.4413730000000 1.0
C      1  0.5113750000000  0.5227890000000  0.5891800000000 1.0
C      1  0.4126750000000  0.5224120000000  0.4641950000000 1.0
C      1  0.4979020000000  0.5075940000000  0.4558110000000 1.0
C      1  0.5451920000000  0.5078110000000  0.5236740000000 1.0
C      1  0.4598280000000  0.5116220000000  0.5182700000000 1.0
C      1  0.5258320000000  0.5477330000000  0.5804570000000 1.0
C      1  0.4123370000000  0.5479810000000  0.4803370000000 1.0
C      1  0.5560810000000  0.5477400000000  0.4393590000000 1.0
C      1  0.5146740000000  0.5224260000000  0.4203230000000 1.0
C      1  0.5663280000000  0.5224620000000  0.5568210000000 1.0
C      1  0.4189930000000  0.5227140000000  0.5276450000000 1.0
C      1  0.5664020000000  0.5210650000000  0.4708580000000 1.0
C      1  0.4908620000000  0.5226060000000  0.5681340000000 1.0
C      1  0.4411880000000  0.5225990000000  0.4572090000000 1.0
C      1  0.4243360000000  0.5726250000000  0.4641920000000 1.0
C      1  0.5659860000000  0.5713940000000  0.4554100000000 1.0
C      1  0.5068550000000  0.5726110000000  0.5793930000000 1.0
C      1  0.4344290000000  0.4382200000000  0.5255220000000 1.0
C      1  0.5101190000000  0.4384590000000  0.4303700000000 1.0
C      1  0.5574210000000  0.4374760000000  0.5447680000000 1.0
C      1  0.5904150000000  0.5182710000000  0.4884170000000 1.0
C      1  0.4639390000000  0.5210180000000  0.5789470000000 1.0
C      1  0.4468420000000  0.5212260000000  0.4281630000000 1.0
C      1  0.5797330000000  0.5521950000000  0.5190680000000 1.0
C      1  0.4482050000000  0.5523520000000  0.5558300000000 1.0
C      1  0.4759520000000  0.5524130000000  0.4274860000000 1.0
C      1  0.4631330000000  0.4265530000000  0.4562660000000 1.0
C      1  0.5565110000000  0.4257350000000  0.4904870000000 1.0
C      1  0.4813450000000  0.4264330000000  0.5536430000000 1.0
C      1  0.5778850000000  0.4511450000000  0.5304330000000 1.0
C      1  0.4369320000000  0.4526670000000  0.5497260000000 1.0
C      1  0.4876150000000  0.4519530000000  0.4190560000000 1.0
C      1  0.4908470000000  0.4806680000000  0.4166390000000 1.0
C      1  0.5789930000000  0.4799080000000  0.5352200000000 1.0
C      1  0.4332050000000  0.4814770000000  0.5478320000000 1.0
C      1  0.4159600000000  0.4758150000000  0.4404580000000 1.0
C      1  0.5916550000000  0.4763290000000  0.4579320000000 1.0
C      1  0.4910400000000  0.4766480000000  0.6003450000000 1.0
C      1  0.4607230000000  0.4439050000000  0.4291000000000 1.0
C      1  0.5812780000000  0.4434350000000  0.5015400000000 1.0
C      1  0.4591280000000  0.4444340000000  0.5682200000000 1.0
C      1  0.4915380000000  0.4756170000000  0.5514310000000 1.0
C      1  0.4574400000000  0.4752240000000  0.4639770000000 1.0
C      1  0.5497600000000  0.4747300000000  0.4806590000000 1.0
C      1  0.5181920000000  0.5405030000000  0.4720300000000 1.0
C      1  0.5216040000000  0.5414590000000  0.5320640000000 1.0
C      1  0.4511860000000  0.5521080000000  0.5008050000000 1.0
C      1  0.5293550000000  0.4377850000000  0.5353210000000 1.0
C      1  0.4567050000000  0.4362010000000  0.5062980000000 1.0
C      1  0.5159020000000  0.4382960000000  0.4597720000000 1.0
C      1  0.5059680000000  0.4025930000000  0.5238230000000 1.0
C      1  0.4775240000000  0.4022690000000  0.4929230000000 1.0
C      1  0.5184770000000  0.4039130000000  0.4837510000000 1.0
C      1  0.4436290000000  0.4986540000000  0.5723670000000 1.0
C      1  0.4639790000000  0.4986090000000  0.4141980000000 1.0
C      1  0.5928810000000  0.4983140000000  0.5127870000000 1.0
C      1  0.5273130000000  0.5407740000000  0.4408720000000 1.0
C      1  0.5421670000000  0.5413460000000  0.5562030000000 1.0
C      1  0.4236430000000  0.5448560000000  0.5081130000000 1.0
END
