TITL C-862128-1543-759 -6.70506950864738e-05 125000 -444.045220017959 0 0 82 (D2) n - 1
REM
REM in /home/nfs/bkarasulu/CARBON/AIRSS/Generating-Clusters/TERSOFF/Higher-Symm/FIRE-HFTN
REM
REM
REM
REM
REM
REM ./C.cell (b20cbc046b6831c77cfcea5457e17084)
REM AIRSS Version 0.9.1 bugfix July 2018 build 013d7b7c2542+ Fri, 06 Jul 2018 19:26:36 +0100
REM compiler GCC version 9.2.1 20190827 (Red Hat 9.2.1-1)
REM options -cpp -mtune=generic -march=x86-64 -g -O0 -fpre-include=/usr/include/finclude/math-vector-fortran.h
REM seed 698716324 1828346544 197862204 258708177 668905369 342576200 -319354297 -2101836589 264841371 -771428741 -892721212 995293594 -214866581 -585699413 -2048504344 1238222058 1606699413 1654116940 1022582068 -980875065 1688041229 845878760 42204139 1493693252 -1536181505 -1540960705 -159222837 -1513294775 1536688135 707924478 53377382 1890761206 -362356335
REM
CELL 1.54180   50.00000   50.00000   50.00000   90.00000   90.00000   90.00000
LATT -1
SFAC C  
C      1  0.5905040000000  0.4882820000000  0.5235230000000 1.0
C      1  0.4094960000000  0.4882820000000  0.4764770000000 1.0
C      1  0.4094960000000  0.5121220000000  0.5235240000000 1.0
C      1  0.5905040000000  0.5121220000000  0.4764760000000 1.0
C      1  0.5187720000000  0.4623650000000  0.5815070000000 1.0
C      1  0.4812280000000  0.4623650000000  0.4184930000000 1.0
C      1  0.4812280000000  0.5380390000000  0.5815070000000 1.0
C      1  0.5187720000000  0.5380390000000  0.4184930000000 1.0
C      1  0.4688440000000  0.5216970000000  0.5587080000000 1.0
C      1  0.5311560000000  0.5216970000000  0.4412920000000 1.0
C      1  0.5311560000000  0.4787070000000  0.5587080000000 1.0
C      1  0.4688440000000  0.4787070000000  0.4412920000000 1.0
C      1  0.4514900000000  0.4562330000000  0.5464870000000 1.0
C      1  0.5485100000000  0.4562330000000  0.4535130000000 1.0
C      1  0.5485100000000  0.5441710000000  0.5464860000000 1.0
C      1  0.4514900000000  0.5441710000000  0.4535140000000 1.0
C      1  0.4771680000000  0.4723380000000  0.4929170000000 1.0
C      1  0.5228320000000  0.4723380000000  0.5070830000000 1.0
C      1  0.5228320000000  0.5280660000000  0.4929170000000 1.0
C      1  0.4771680000000  0.5280660000000  0.5070830000000 1.0
C      1  0.5170680000000  0.4944200000000  0.4536150000000 1.0
C      1  0.4829320000000  0.4944200000000  0.5463850000000 1.0
C      1  0.4829320000000  0.5059840000000  0.4536150000000 1.0
C      1  0.5170680000000  0.5059840000000  0.5463850000000 1.0
C      1  0.5331520000000  0.5043750000000  0.4794530000000 1.0
C      1  0.4668480000000  0.5043750000000  0.5205470000000 1.0
C      1  0.4668480000000  0.4960290000000  0.4794530000000 1.0
C      1  0.5331520000000  0.4960290000000  0.5205470000000 1.0
C      1  0.5109520000000  0.5462450000000  0.5771270000000 1.0
C      1  0.4890480000000  0.5462450000000  0.4228730000000 1.0
C      1  0.4890490000000  0.4541590000000  0.5771270000000 1.0
C      1  0.5109510000000  0.4541590000000  0.4228730000000 1.0
C      1  0.5506600000000  0.5417100000000  0.4601240000000 1.0
C      1  0.4493400000000  0.5417100000000  0.5398760000000 1.0
C      1  0.4493390000000  0.4586940000000  0.4601240000000 1.0
C      1  0.5506610000000  0.4586940000000  0.5398760000000 1.0
C      1  0.5296220000000  0.4713750000000  0.4374260000000 1.0
C      1  0.4703780000000  0.4713750000000  0.5625740000000 1.0
C      1  0.4703780000000  0.5290300000000  0.4374260000000 1.0
C      1  0.5296220000000  0.5290300000000  0.5625740000000 1.0
C      1  0.5440420000000  0.4499100000000  0.5076250000000 1.0
C      1  0.4559580000000  0.4499100000000  0.4923750000000 1.0
C      1  0.4559580000000  0.5504940000000  0.5076250000000 1.0
C      1  0.5440420000000  0.5504940000000  0.4923750000000 1.0
C      1  0.4881120000000  0.5755360000000  0.4664630000000 1.0
C      1  0.5118880000000  0.5755360000000  0.5335370000000 1.0
C      1  0.5118880000000  0.4248680000000  0.4664630000000 1.0
C      1  0.4881120000000  0.4248680000000  0.5335370000000 1.0
C      1  0.4937430000000  0.4722040000000  0.5201860000000 1.0
C      1  0.5062570000000  0.4722040000000  0.4798140000000 1.0
C      1  0.5062570000000  0.5282000000000  0.5201860000000 1.0
C      1  0.4937430000000  0.5282000000000  0.4798140000000 1.0
C      1  0.5608250000000  0.5260140000000  0.5106720000000 1.0
C      1  0.4391750000000  0.5260140000000  0.4893280000000 1.0
C      1  0.4391750000000  0.4743910000000  0.5106720000000 1.0
C      1  0.5608250000000  0.4743910000000  0.4893280000000 1.0
C      1  0.4211060000000  0.4685300000000  0.4582490000000 1.0
C      1  0.5788940000000  0.4685300000000  0.5417510000000 1.0
C      1  0.5788940000000  0.5318750000000  0.4582490000000 1.0
C      1  0.4211060000000  0.5318750000000  0.5417510000000 1.0
C      1  0.4662870000000  0.4369600000000  0.4378870000000 1.0
C      1  0.5337130000000  0.4369600000000  0.5621130000000 1.0
C      1  0.5337130000000  0.5634450000000  0.4378870000000 1.0
C      1  0.4662870000000  0.5634450000000  0.5621130000000 1.0
C      1  0.4944850000000  0.5860480000000  0.5131180000000 1.0
C      1  0.5055150000000  0.5860480000000  0.4868820000000 1.0
C      1  0.5055150000000  0.4143560000000  0.5131180000000 1.0
C      1  0.4944850000000  0.4143560000000  0.4868820000000 1.0
C      1  0.4621400000000  0.4393640000000  0.5253580000000 1.0
C      1  0.5378600000000  0.4393640000000  0.4746420000000 1.0
C      1  0.5378600000000  0.5610410000000  0.5253580000000 1.0
C      1  0.4621400000000  0.5610410000000  0.4746420000000 1.0
C      1  0.4991510000000  0.4314160000000  0.4404970000000 1.0
C      1  0.5008490000000  0.4314160000000  0.5595030000000 1.0
C      1  0.5008490000000  0.5689890000000  0.4404970000000 1.0
C      1  0.4991510000000  0.5689890000000  0.5595030000000 1.0
C      1  0.4665150000000  0.5789390000000  0.5149150000000 1.0
C      1  0.5334850000000  0.5789390000000  0.4850850000000 1.0
C      1  0.5334850000000  0.4214650000000  0.5149140000000 1.0
C      1  0.4665150000000  0.4214650000000  0.4850860000000 1.0
C      1  0.5755640000000  0.5002020000000  0.5000000000000 1.0
C      1  0.4244360000000  0.5002020000000  0.5000000000000 1.0
END
