TITL C-862507-1800-1112 -5.13299376343518e-05 125000 -513.948155934262 0 0 93 (C2h) n - 1
REM
REM in /home/nfs/bkarasulu/CARBON/AIRSS/Generating-Clusters/TERSOFF/Higher-Symm/FIRE-HFTN
REM
REM
REM
REM
REM
REM ./C.cell (b20cbc046b6831c77cfcea5457e17084)
REM AIRSS Version 0.9.1 bugfix July 2018 build 013d7b7c2542+ Fri, 06 Jul 2018 19:26:36 +0100
REM compiler GCC version 9.2.1 20190827 (Red Hat 9.2.1-1)
REM options -cpp -mtune=generic -march=x86-64 -g -O0 -fpre-include=/usr/include/finclude/math-vector-fortran.h
REM seed -1816293674 -884801392 1615196476 -733102008 -957760360 -2036333423 1171622261 1179145001 1244696269 -330240569 -1442000107 -1306322377 427352464 1438654538 -1124531405 -1407128985 1309054666 -442229244 570318469 336919949 -485378351 -1121797085 1249558449 468413005 103097031 2102085613 -2018374712 2132486834 1125109985 28743389 587980939 -762455956 1388615537
REM
CELL 1.54180   50.00000   50.00000   50.00000   90.00000   90.00000   90.00000
LATT -1
SFAC C  
C      1  0.5744610000000  0.5515900000000  0.5623870000000 1.0
C      1  0.4244840000000  0.4482870000000  0.5623860000000 1.0
C      1  0.5744620000000  0.5515900000000  0.4374710000000 1.0
C      1  0.4244840000000  0.4482870000000  0.4374710000000 1.0
C      1  0.4938060000000  0.4453680000000  0.4389770000000 1.0
C      1  0.5051400000000  0.5545090000000  0.4389770000000 1.0
C      1  0.4938050000000  0.4453680000000  0.5608810000000 1.0
C      1  0.5051400000000  0.5545090000000  0.5608810000000 1.0
C      1  0.5168790000000  0.4261860000000  0.4291580000000 1.0
C      1  0.4820670000000  0.5736910000000  0.4291580000000 1.0
C      1  0.5168790000000  0.4261860000000  0.5707000000000 1.0
C      1  0.4820660000000  0.5736910000000  0.5707000000000 1.0
C      1  0.5810560000000  0.5422540000000  0.5358060000000 1.0
C      1  0.4178890000000  0.4576220000000  0.5358060000000 1.0
C      1  0.5810560000000  0.5422540000000  0.4640520000000 1.0
C      1  0.4178900000000  0.4576220000000  0.4640510000000 1.0
C      1  0.5325260000000  0.5248920000000  0.5793500000000 1.0
C      1  0.4664190000000  0.4749850000000  0.5793490000000 1.0
C      1  0.5325270000000  0.5248920000000  0.4205080000000 1.0
C      1  0.4664200000000  0.4749850000000  0.4205080000000 1.0
C      1  0.5020830000000  0.5153770000000  0.4086170000000 1.0
C      1  0.4968640000000  0.4844990000000  0.4086170000000 1.0
C      1  0.5020820000000  0.5153770000000  0.5912410000000 1.0
C      1  0.4968630000000  0.4845000000000  0.5912410000000 1.0
C      1  0.5004310000000  0.4712850000000  0.5515930000000 1.0
C      1  0.4985150000000  0.5285910000000  0.5515930000000 1.0
C      1  0.5004310000000  0.4712850000000  0.4482650000000 1.0
C      1  0.4985150000000  0.5285910000000  0.4482640000000 1.0
C      1  0.4719320000000  0.4280550000000  0.5453980000000 1.0
C      1  0.5270130000000  0.5718210000000  0.5453980000000 1.0
C      1  0.4719330000000  0.4280550000000  0.4544600000000 1.0
C      1  0.5270140000000  0.5718210000000  0.4544600000000 1.0
C      1  0.5429450000000  0.4395110000000  0.5158900000000 1.0
C      1  0.4560010000000  0.5603660000000  0.5158890000000 1.0
C      1  0.5429450000000  0.4395110000000  0.4839690000000 1.0
C      1  0.4560010000000  0.5603660000000  0.4839680000000 1.0
C      1  0.4410160000000  0.5360610000000  0.4719730000000 1.0
C      1  0.5579300000000  0.4638160000000  0.4719730000000 1.0
C      1  0.4410160000000  0.5360610000000  0.5278850000000 1.0
C      1  0.5579300000000  0.4638160000000  0.5278850000000 1.0
C      1  0.4377940000000  0.5249880000000  0.5556970000000 1.0
C      1  0.5611510000000  0.4748890000000  0.5556980000000 1.0
C      1  0.4377950000000  0.5249880000000  0.4441600000000 1.0
C      1  0.5611520000000  0.4748890000000  0.4441610000000 1.0
C      1  0.5501730000000  0.4883140000000  0.5138960000000 1.0
C      1  0.4487730000000  0.5115630000000  0.5138960000000 1.0
C      1  0.5501730000000  0.4883140000000  0.4859620000000 1.0
C      1  0.4487730000000  0.5115630000000  0.4859610000000 1.0
C      1  0.4843640000000  0.5642470000000  0.4741540000000 1.0
C      1  0.5145820000000  0.4356300000000  0.4741540000000 1.0
C      1  0.4843640000000  0.5642470000000  0.5257030000000 1.0
C      1  0.5145820000000  0.4356300000000  0.5257040000000 1.0
C      1  0.4562160000000  0.4984190000000  0.5609950000000 1.0
C      1  0.5427290000000  0.5014580000000  0.5609950000000 1.0
C      1  0.4562170000000  0.4984190000000  0.4388630000000 1.0
C      1  0.5427290000000  0.5014580000000  0.4388630000000 1.0
C      1  0.4574970000000  0.4356560000000  0.5170520000000 1.0
C      1  0.5414490000000  0.5642200000000  0.5170530000000 1.0
C      1  0.4574970000000  0.4356560000000  0.4828050000000 1.0
C      1  0.5414490000000  0.5642200000000  0.4828050000000 1.0
C      1  0.4529670000000  0.4465960000000  0.4298410000000 1.0
C      1  0.5459790000000  0.5532810000000  0.4298410000000 1.0
C      1  0.4529660000000  0.4465960000000  0.5700170000000 1.0
C      1  0.5459790000000  0.5532810000000  0.5700170000000 1.0
C      1  0.5407870000000  0.5121000000000  0.5294490000000 1.0
C      1  0.4581590000000  0.4877770000000  0.5294490000000 1.0
C      1  0.5407870000000  0.5121000000000  0.4704090000000 1.0
C      1  0.4581590000000  0.4877770000000  0.4704080000000 1.0
C      1  0.5039130000000  0.4099020000000  0.4585980000000 1.0
C      1  0.4950330000000  0.5899740000000  0.4585980000000 1.0
C      1  0.5039130000000  0.4099030000000  0.5412590000000 1.0
C      1  0.4950330000000  0.5899740000000  0.5412590000000 1.0
C      1  0.5110260000000  0.5188320000000  0.5254560000000 1.0
C      1  0.4879190000000  0.4810450000000  0.5254560000000 1.0
C      1  0.5110270000000  0.5188320000000  0.4744020000000 1.0
C      1  0.4879190000000  0.4810450000000  0.4744020000000 1.0
C      1  0.5038560000000  0.5461040000000  0.4860580000000 1.0
C      1  0.4950900000000  0.4537730000000  0.4860580000000 1.0
C      1  0.5038560000000  0.5461040000000  0.5138000000000 1.0
C      1  0.4950900000000  0.4537730000000  0.5138000000000 1.0
C      1  0.5334610000000  0.4513330000000  0.5767100000000 1.0
C      1  0.4654840000000  0.5485440000000  0.5767100000000 1.0
C      1  0.5334620000000  0.4513330000000  0.4231480000000 1.0
C      1  0.4654850000000  0.5485440000000  0.4231470000000 1.0
C      1  0.4408560000000  0.4636730000000  0.4819730000000 1.0
C      1  0.5580900000000  0.5362030000000  0.4819730000000 1.0
C      1  0.4408560000000  0.4636730000000  0.5178850000000 1.0
C      1  0.5580900000000  0.5362030000000  0.5178850000000 1.0
C      1  0.4766660000000  0.5206650000000  0.4289320000000 1.0
C      1  0.5222810000000  0.4792120000000  0.4289320000000 1.0
C      1  0.4766650000000  0.5206650000000  0.5709250000000 1.0
C      1  0.5222800000000  0.4792120000000  0.5709260000000 1.0
C      1  0.4994730000000  0.4999380000000  0.4999290000000 1.0
END
