TITL C-862501-1041-568 143002.724795689 125000 -447.62219912645 0 0 79 (C1) n - 1
REM
REM in /home/nfs/bkarasulu/CARBON/AIRSS/Generating-Clusters/TERSOFF/Higher-Symm/FIRE-HFTN
REM
REM
REM
REM
REM
REM ./C.cell (b20cbc046b6831c77cfcea5457e17084)
REM AIRSS Version 0.9.1 bugfix July 2018 build 013d7b7c2542+ Fri, 06 Jul 2018 19:26:36 +0100
REM compiler GCC version 9.2.1 20190827 (Red Hat 9.2.1-1)
REM options -cpp -mtune=generic -march=x86-64 -g -O0 -fpre-include=/usr/include/finclude/math-vector-fortran.h
REM seed 969072340 1926892501 -647331968 1997104414 1828164540 520894716 -1653346403 115614471 -2014418304 -1368741759 -655623152 -1369720180 1395200717 742368859 2051287792 -563839922 97581684 -1872867300 895313382 987869940 1992164019 -176874038 -1462820476 2038714264 1485613462 -168032378 335832577 -496614305 -576863309 1242148210 1792198854 -1864998228 -343177144
REM
CELL 1.54180   50.00000   50.00000   50.00000   90.00000   90.00000   90.00000
LATT -1
SFAC C  
C      1  0.4743250000000  0.5012960000000  0.4812660000000 1.0
C      1  0.5429600000000  0.5624780000000  0.4616160000000 1.0
C      1  0.5445470000000  0.4763200000000  0.5734810000000 1.0
C      1  0.5224580000000  0.4467310000000  0.4489370000000 1.0
C      1  0.4680760000000  0.4530160000000  0.5289760000000 1.0
C      1  0.4978870000000  0.5308990000000  0.5895830000000 1.0
C      1  0.4547310000000  0.4440770000000  0.5022670000000 1.0
C      1  0.5274790000000  0.5056860000000  0.5115850000000 1.0
C      1  0.5090390000000  0.5639280000000  0.5502310000000 1.0
C      1  0.5682520000000  0.4613420000000  0.4421080000000 1.0
C      1  0.4868370000000  0.4638010000000  0.4672470000000 1.0
C      1  0.5112920000000  0.4587200000000  0.5111850000000 1.0
C      1  0.4640600000000  0.5550040000000  0.5619640000000 1.0
C      1  0.5611110000000  0.4612820000000  0.4941610000000 1.0
C      1  0.5169620000000  0.5450500000000  0.5716630000000 1.0
C      1  0.5155000000000  0.5658160000000  0.4709140000000 1.0
C      1  0.4722290000000  0.5836710000000  0.4945190000000 1.0
C      1  0.5049670000000  0.4654140000000  0.5617820000000 1.0
C      1  0.4695180000000  0.5086820000000  0.4329810000000 1.0
C      1  0.4296850000000  0.5641070000000  0.5219090000000 1.0
C      1  0.5616800000000  0.5456450000000  0.5054800000000 1.0
C      1  0.5557030000000  0.5029980000000  0.5754860000000 1.0
C      1  0.4382480000000  0.5719900000000  0.4955280000000 1.0
C      1  0.5074910000000  0.5773740000000  0.4992820000000 1.0
C      1  0.4419910000000  0.5394430000000  0.5298490000000 1.0
C      1  0.4790930000000  0.5067740000000  0.5806660000000 1.0
C      1  0.5630080000000  0.5635760000000  0.4828970000000 1.0
C      1  0.5006010000000  0.4144370000000  0.4846030000000 1.0
C      1  0.4670010000000  0.5342350000000  0.5153010000000 1.0
C      1  0.4486180000000  0.5024890000000  0.4688380000000 1.0
C      1  0.5521400000000  0.4844630000000  0.5161080000000 1.0
C      1  0.4346590000000  0.5496070000000  0.4734040000000 1.0
C      1  0.4934120000000  0.4913690000000  0.4275840000000 1.0
C      1  0.5478880000000  0.4872300000000  0.4010700000000 1.0
C      1  0.4946610000000  0.5434630000000  0.4728230000000 1.0
C      1  0.4562430000000  0.5568040000000  0.4524190000000 1.0
C      1  0.4685100000000  0.5383220000000  0.4318580000000 1.0
C      1  0.5562540000000  0.4545820000000  0.5582630000000 1.0
C      1  0.4255990000000  0.5162400000000  0.5330900000000 1.0
C      1  0.5215870000000  0.4997320000000  0.4812210000000 1.0
C      1  0.4707900000000  0.5269350000000  0.5577400000000 1.0
C      1  0.5239300000000  0.4308590000000  0.4755050000000 1.0
C      1  0.5489800000000  0.5411280000000  0.4426110000000 1.0
C      1  0.4373410000000  0.4517200000000  0.4648100000000 1.0
C      1  0.4978800000000  0.4643770000000  0.4402920000000 1.0
C      1  0.4757370000000  0.5071520000000  0.5101540000000 1.0
C      1  0.4360050000000  0.4931650000000  0.5502050000000 1.0
C      1  0.4169280000000  0.4592950000000  0.4840230000000 1.0
C      1  0.4490920000000  0.4963460000000  0.5766360000000 1.0
C      1  0.4989050000000  0.4967650000000  0.5239460000000 1.0
C      1  0.5460940000000  0.4971360000000  0.4657320000000 1.0
C      1  0.4392850000000  0.4689180000000  0.5323890000000 1.0
C      1  0.5987610000000  0.4847400000000  0.5379840000000 1.0
C      1  0.5701220000000  0.4890080000000  0.5386030000000 1.0
C      1  0.4761870000000  0.4183500000000  0.4698340000000 1.0
C      1  0.5448710000000  0.4213410000000  0.5207360000000 1.0
C      1  0.4970190000000  0.4825500000000  0.5834690000000 1.0
C      1  0.4982160000000  0.5145340000000  0.4692220000000 1.0
C      1  0.5440540000000  0.4370940000000  0.4962700000000 1.0
C      1  0.5076590000000  0.4723340000000  0.4861330000000 1.0
C      1  0.4215350000000  0.4766520000000  0.5072870000000 1.0
C      1  0.5362010000000  0.5360930000000  0.5160930000000 1.0
C      1  0.5168430000000  0.5586500000000  0.5223220000000 1.0
C      1  0.5896510000000  0.4542270000000  0.4996410000000 1.0
C      1  0.4765350000000  0.4226100000000  0.5310380000000 1.0
C      1  0.4749030000000  0.5516880000000  0.4932440000000 1.0
C      1  0.5281410000000  0.5078920000000  0.4093510000000 1.0
C      1  0.5706300000000  0.4768410000000  0.4171470000000 1.0
C      1  0.5584420000000  0.4725450000000  0.4668520000000 1.0
C      1  0.5414650000000  0.4320980000000  0.5474650000000 1.0
C      1  0.4707240000000  0.5803390000000  0.4628250000000 1.0
C      1  0.4953300000000  0.4680700000000  0.5345170000000 1.0
C      1  0.4168260000000  0.5065780000000  0.5056200000000 1.0
C      1  0.4650070000000  0.4450600000000  0.4739780000000 1.0
C      1  0.4829370000000  0.5752080000000  0.5551340000000 1.0
C      1  0.4971040000000  0.4094290000000  0.5138060000000 1.0
C      1  0.5607450000000  0.5190210000000  0.4553020000000 1.0
C      1  0.4282080000000  0.5199370000000  0.4797400000000 1.0
C      1  0.5346190000000  0.5352240000000  0.4182000000000 1.0
END
