TITL C-862131-2149-1277 1.79210721767395e-05 125000 -197.694900544916 0 0 33 (C1) n - 1
REM
REM in /home/nfs/bkarasulu/CARBON/AIRSS/Generating-Clusters/TERSOFF/Higher-Symm/FIRE-HFTN
REM
REM
REM
REM
REM
REM ./C.cell (b20cbc046b6831c77cfcea5457e17084)
REM AIRSS Version 0.9.1 bugfix July 2018 build 013d7b7c2542+ Fri, 06 Jul 2018 19:26:36 +0100
REM compiler GCC version 9.2.1 20190827 (Red Hat 9.2.1-1)
REM options -cpp -mtune=generic -march=x86-64 -g -O0 -fpre-include=/usr/include/finclude/math-vector-fortran.h
REM seed -854012580 1689903048 -273002347 1478019250 1551761609 1470383260 1951247411 -1028403643 -1938929845 52897435 113037997 -445433338 -1403461019 65683368 -1305134917 1338834313 -1808258816 1975780903 -468738073 1807216308 -1031101421 -309171642 -808165233 507229034 777637861 1436469388 1112903354 -1508636355 900622842 -1360978189 -1476668567 -737903081 833612679
REM
CELL 1.54180   50.00000   50.00000   50.00000   90.00000   90.00000   90.00000
LATT -1
SFAC C  
C      1  0.4613500000000  0.4651910000000  0.4621240000000 1.0
C      1  0.5065120000000  0.4684650000000  0.4387500000000 1.0
C      1  0.5506720000000  0.4707510000000  0.4633300000000 1.0
C      1  0.5382680000000  0.4681500000000  0.5117490000000 1.0
C      1  0.5231510000000  0.4667360000000  0.5593620000000 1.0
C      1  0.4729580000000  0.4683930000000  0.5559090000000 1.0
C      1  0.4483800000000  0.4662830000000  0.5114600000000 1.0
C      1  0.5330900000000  0.5224160000000  0.4777090000000 1.0
C      1  0.5599610000000  0.5193500000000  0.5199670000000 1.0
C      1  0.5267100000000  0.5209000000000  0.5581330000000 1.0
C      1  0.4762800000000  0.5235840000000  0.5513530000000 1.0
C      1  0.4476910000000  0.5222850000000  0.5091100000000 1.0
C      1  0.4560600000000  0.5203590000000  0.4589960000000 1.0
C      1  0.5020200000000  0.5225650000000  0.4385350000000 1.0
C      1  0.4486720000000  0.4785060000000  0.4849200000000 1.0
C      1  0.4794810000000  0.4789620000000  0.4436220000000 1.0
C      1  0.5308290000000  0.4832240000000  0.4462070000000 1.0
C      1  0.5548720000000  0.4803310000000  0.4904590000000 1.0
C      1  0.5419270000000  0.4773760000000  0.5396950000000 1.0
C      1  0.4980350000000  0.4804530000000  0.5647800000000 1.0
C      1  0.4559220000000  0.4807170000000  0.5357400000000 1.0
C      1  0.5265900000000  0.5123400000000  0.4505630000000 1.0
C      1  0.5552230000000  0.5097970000000  0.4928650000000 1.0
C      1  0.5472010000000  0.5065080000000  0.5427150000000 1.0
C      1  0.4997450000000  0.5100540000000  0.5626330000000 1.0
C      1  0.4568770000000  0.5101110000000  0.5340390000000 1.0
C      1  0.4468980000000  0.5078810000000  0.4836810000000 1.0
C      1  0.4767660000000  0.5085140000000  0.4421440000000 1.0
C      1  0.5050770000000  0.5596590000000  0.4976710000000 1.0
C      1  0.4924750000000  0.5111660000000  0.5057210000000 1.0
C      1  0.5101850000000  0.5313280000000  0.4937240000000 1.0
C      1  0.4909410000000  0.4830840000000  0.4973440000000 1.0
C      1  0.5106570000000  0.4626010000000  0.5040000000000 1.0
END
