TITL C-862506-1665-94 -3.44452697991497e-06 125000 -533.925905075939 0 0 102 (C2v) n - 1
REM
REM in /home/nfs/bkarasulu/CARBON/AIRSS/Generating-Clusters/TERSOFF/Higher-Symm/FIRE-HFTN
REM
REM
REM
REM
REM
REM ./C.cell (b20cbc046b6831c77cfcea5457e17084)
REM AIRSS Version 0.9.1 bugfix July 2018 build 013d7b7c2542+ Fri, 06 Jul 2018 19:26:36 +0100
REM compiler GCC version 9.2.1 20190827 (Red Hat 9.2.1-1)
REM options -cpp -mtune=generic -march=x86-64 -g -O0 -fpre-include=/usr/include/finclude/math-vector-fortran.h
REM seed 963997393 1419250120 711740469 1875512325 2039999028 584202432 -13190497 -1229853436 -1213896773 -1246360328 2047970420 601064380 -1487894833 1555697164 1270095127 -243326027 -1484626856 1797011354 -1087209320 1683344013 -1551355741 -508205872 1918509698 -628620154 2135641131 283805042 94093090 769815394 134087724 -391533072 831218878 -1998917623 -577176278
REM
CELL 1.54180   50.00000   50.00000   50.00000   90.00000   90.00000   90.00000
LATT -1
SFAC C  
C      1  0.4801980000000  0.5184350000000  0.5822550000000 1.0
C      1  0.4801980000000  0.4815650000000  0.4177450000000 1.0
C      1  0.5151460000000  0.5254500000000  0.5758370000000 1.0
C      1  0.5151460000000  0.4745500000000  0.4241630000000 1.0
C      1  0.4801980000000  0.5184350000000  0.4177450000000 1.0
C      1  0.4801980000000  0.4815650000000  0.5822550000000 1.0
C      1  0.5151460000000  0.5254500000000  0.4241630000000 1.0
C      1  0.5151460000000  0.4745500000000  0.5758370000000 1.0
C      1  0.4683010000000  0.5331550000000  0.5313730000000 1.0
C      1  0.4683010000000  0.4668450000000  0.4686270000000 1.0
C      1  0.5353690000000  0.5347810000000  0.5318460000000 1.0
C      1  0.5353690000000  0.4652190000000  0.4681540000000 1.0
C      1  0.4683010000000  0.5331550000000  0.4686270000000 1.0
C      1  0.4683010000000  0.4668450000000  0.5313730000000 1.0
C      1  0.5353690000000  0.5347810000000  0.4681540000000 1.0
C      1  0.5353690000000  0.4652190000000  0.5318460000000 1.0
C      1  0.5564250000000  0.5936230000000  0.5149070000000 1.0
C      1  0.5564250000000  0.4063770000000  0.4850930000000 1.0
C      1  0.4412620000000  0.5875340000000  0.5148760000000 1.0
C      1  0.4412620000000  0.4124660000000  0.4851240000000 1.0
C      1  0.5564250000000  0.5936230000000  0.4850930000000 1.0
C      1  0.5564250000000  0.4063770000000  0.5149070000000 1.0
C      1  0.4412620000000  0.5875340000000  0.4851240000000 1.0
C      1  0.4412620000000  0.4124660000000  0.5148760000000 1.0
C      1  0.4700130000000  0.4132720000000  0.5256160000000 1.0
C      1  0.4700130000000  0.5867280000000  0.4743840000000 1.0
C      1  0.5278270000000  0.4105720000000  0.5252020000000 1.0
C      1  0.5278270000000  0.5894280000000  0.4747980000000 1.0
C      1  0.4700130000000  0.4132720000000  0.4743840000000 1.0
C      1  0.4700130000000  0.5867280000000  0.5256160000000 1.0
C      1  0.5278270000000  0.4105720000000  0.4747980000000 1.0
C      1  0.5278270000000  0.5894280000000  0.5252020000000 1.0
C      1  0.4403250000000  0.5286790000000  0.4851730000000 1.0
C      1  0.4403250000000  0.4713210000000  0.5148270000000 1.0
C      1  0.5629080000000  0.5295050000000  0.4851290000000 1.0
C      1  0.5629080000000  0.4704950000000  0.5148710000000 1.0
C      1  0.4403250000000  0.5286790000000  0.5148270000000 1.0
C      1  0.4403250000000  0.4713210000000  0.4851730000000 1.0
C      1  0.5629080000000  0.5295050000000  0.5148710000000 1.0
C      1  0.5629080000000  0.4704950000000  0.4851290000000 1.0
C      1  0.5177210000000  0.4489210000000  0.4427650000000 1.0
C      1  0.5177210000000  0.5510790000000  0.5572350000000 1.0
C      1  0.4834870000000  0.4526590000000  0.4407820000000 1.0
C      1  0.4834870000000  0.5473410000000  0.5592180000000 1.0
C      1  0.5177210000000  0.4489210000000  0.5572350000000 1.0
C      1  0.5177210000000  0.5510790000000  0.4427650000000 1.0
C      1  0.4834870000000  0.4526590000000  0.5592180000000 1.0
C      1  0.4834870000000  0.5473410000000  0.4407820000000 1.0
C      1  0.5753340000000  0.5242400000000  0.4415620000000 1.0
C      1  0.5753340000000  0.4757600000000  0.5584380000000 1.0
C      1  0.4268180000000  0.5235980000000  0.4412510000000 1.0
C      1  0.4268180000000  0.4764020000000  0.5587490000000 1.0
C      1  0.5753340000000  0.5242400000000  0.5584380000000 1.0
C      1  0.5753340000000  0.4757600000000  0.4415620000000 1.0
C      1  0.4268180000000  0.5235980000000  0.5587490000000 1.0
C      1  0.4268180000000  0.4764020000000  0.4412510000000 1.0
C      1  0.4562760000000  0.4844460000000  0.4412500000000 1.0
C      1  0.4562760000000  0.5155540000000  0.5587500000000 1.0
C      1  0.5458220000000  0.4838040000000  0.4384660000000 1.0
C      1  0.5458220000000  0.5161960000000  0.5615340000000 1.0
C      1  0.4562760000000  0.4844460000000  0.5587500000000 1.0
C      1  0.4562760000000  0.5155540000000  0.4412500000000 1.0
C      1  0.5458220000000  0.4838040000000  0.5615340000000 1.0
C      1  0.5458220000000  0.5161960000000  0.4384660000000 1.0
C      1  0.4830870000000  0.4414220000000  0.4834750000000 1.0
C      1  0.4830870000000  0.5585780000000  0.5165250000000 1.0
C      1  0.5181260000000  0.4402480000000  0.4838160000000 1.0
C      1  0.5181260000000  0.5597520000000  0.5161840000000 1.0
C      1  0.4830870000000  0.4414220000000  0.5165250000000 1.0
C      1  0.4830870000000  0.5585780000000  0.4834750000000 1.0
C      1  0.5181260000000  0.4402480000000  0.5161840000000 1.0
C      1  0.5181260000000  0.5597520000000  0.4838160000000 1.0
C      1  0.5182180000000  0.5161780000000  0.4838360000000 1.0
C      1  0.5182180000000  0.4838220000000  0.5161640000000 1.0
C      1  0.4861610000000  0.5157370000000  0.4840670000000 1.0
C      1  0.4861610000000  0.4842630000000  0.5159330000000 1.0
C      1  0.5182180000000  0.5161780000000  0.5161640000000 1.0
C      1  0.5182180000000  0.4838220000000  0.4838360000000 1.0
C      1  0.4861610000000  0.5157370000000  0.5159330000000 1.0
C      1  0.4861610000000  0.4842630000000  0.4840670000000 1.0
C      1  0.5151360000000  0.5828510000000  0.5529290000000 1.0
C      1  0.5151360000000  0.4171490000000  0.4470710000000 1.0
C      1  0.4835270000000  0.5800270000000  0.5532130000000 1.0
C      1  0.4835270000000  0.4199730000000  0.4467870000000 1.0
C      1  0.5151360000000  0.5828510000000  0.4470710000000 1.0
C      1  0.5151360000000  0.4171490000000  0.5529290000000 1.0
C      1  0.4835270000000  0.5800270000000  0.4467870000000 1.0
C      1  0.4835270000000  0.4199730000000  0.5532130000000 1.0
C      1  0.5843750000000  0.5153190000000  0.4689330000000 1.0
C      1  0.5843750000000  0.4846810000000  0.5310670000000 1.0
C      1  0.4182250000000  0.5152900000000  0.4691540000000 1.0
C      1  0.4182250000000  0.4847100000000  0.5308460000000 1.0
C      1  0.5843750000000  0.5153190000000  0.5310670000000 1.0
C      1  0.5843750000000  0.4846810000000  0.4689330000000 1.0
C      1  0.4182250000000  0.5152900000000  0.5308460000000 1.0
C      1  0.4182250000000  0.4847100000000  0.4691540000000 1.0
C      1  0.5125470000000  0.3999270000000  0.5000000000000 1.0
C      1  0.4840660000000  0.5985340000000  0.5000000000000 1.0
C      1  0.4840660000000  0.4014660000000  0.5000000000000 1.0
C      1  0.5125470000000  0.6000730000000  0.5000000000000 1.0
C      1  0.5075310000000  0.5000000000000  0.5565850000000 1.0
C      1  0.5075310000000  0.5000000000000  0.4434150000000 1.0
END
