TITL C-862507-1800-928 -0.000596937226603934 125000 -109.299864332133 0 0 21 (D3) n - 1
REM
REM in /home/nfs/bkarasulu/CARBON/AIRSS/Generating-Clusters/TERSOFF/Higher-Symm/FIRE-HFTN
REM
REM
REM
REM
REM
REM ./C.cell (b20cbc046b6831c77cfcea5457e17084)
REM AIRSS Version 0.9.1 bugfix July 2018 build 013d7b7c2542+ Fri, 06 Jul 2018 19:26:36 +0100
REM compiler GCC version 9.2.1 20190827 (Red Hat 9.2.1-1)
REM options -cpp -mtune=generic -march=x86-64 -g -O0 -fpre-include=/usr/include/finclude/math-vector-fortran.h
REM seed 527018696 -1074695968 491738741 1842380393 -919177291 -1616160639 -1195223814 255384643 -230129952 977794637 261967375 -946303513 -874887942 -1491041274 -1734084547 1810211228 -865537793 1358808986 1334832430 1964272175 -1876848441 -508306530 473389015 -574080307 -219372526 1796436744 1336421667 489179646 2031404877 -396433607 -390286944 1712809017 -24455484
REM
CELL 1.54180   50.00000   50.00000   50.00000   90.00000   90.00000   90.00000
LATT -1
SFAC C  
C      1  0.5489750000000  0.5349970000000  0.5023700000000 1.0
C      1  0.5058210000000  0.4400870000000  0.5023700000000 1.0
C      1  0.4452040000000  0.5249150000000  0.5023700000000 1.0
C      1  0.5489750000000  0.4650030000000  0.5026590000000 1.0
C      1  0.5058210000000  0.5599130000000  0.5026590000000 1.0
C      1  0.4452040000000  0.4750850000000  0.5026590000000 1.0
C      1  0.4554200000000  0.4486490000000  0.5091940000000 1.0
C      1  0.4778190000000  0.5642830000000  0.5091940000000 1.0
C      1  0.5667610000000  0.4870680000000  0.5091940000000 1.0
C      1  0.4554200000000  0.5513510000000  0.4958350000000 1.0
C      1  0.4778190000000  0.4357170000000  0.4958360000000 1.0
C      1  0.5667610000000  0.5129320000000  0.4958350000000 1.0
C      1  0.5100160000000  0.4825860000000  0.5261630000000 1.0
C      1  0.4799110000000  0.5000330000000  0.5261630000000 1.0
C      1  0.5100730000000  0.5173810000000  0.5261630000000 1.0
C      1  0.5100160000000  0.5174140000000  0.4788670000000 1.0
C      1  0.4799110000000  0.4999670000000  0.4788670000000 1.0
C      1  0.5100730000000  0.4826190000000  0.4788670000000 1.0
C      1  0.4614730000000  0.5000000000000  0.5025150000000 1.0
C      1  0.5192630000000  0.4666350000000  0.5025150000000 1.0
C      1  0.5192630000000  0.5333650000000  0.5025150000000 1.0
END
