TITL C-862127-1500-359 1.22103096562591e-06 125000 -94.8035593131216 0 0 23 (Td) n - 1
REM
REM in /home/nfs/bkarasulu/CARBON/AIRSS/Generating-Clusters/TERSOFF/Higher-Symm/FIRE-HFTN
REM
REM
REM
REM
REM
REM ./C.cell (b20cbc046b6831c77cfcea5457e17084)
REM AIRSS Version 0.9.1 bugfix July 2018 build 013d7b7c2542+ Fri, 06 Jul 2018 19:26:36 +0100
REM compiler GCC version 9.2.1 20190827 (Red Hat 9.2.1-1)
REM options -cpp -mtune=generic -march=x86-64 -g -O0 -fpre-include=/usr/include/finclude/math-vector-fortran.h
REM seed -2006129784 -796141041 -1116840288 1190166124 -952150265 1103382339 -1187386136 28937521 -826812520 -1622145096 -1587996505 1438383081 414561264 1901943757 -1328741877 -1197021359 1229832655 1200795084 508842725 -1538068718 275463382 -1501350638 2088886922 -1036926919 -457066860 -1688188454 -2039073542 1222919313 -320346034 1214115022 -1058911515 115067871 307361075
REM
CELL 1.54180   50.00000   50.00000   50.00000   90.00000   90.00000   90.00000
LATT -1
SFAC C  
C      1  0.5179890000000  0.5586810000000  0.5190030000000 1.0
C      1  0.5179880000000  0.5181980000000  0.5594860000000 1.0
C      1  0.5584710000000  0.5181980000000  0.5190040000000 1.0
C      1  0.5179890000000  0.4425610000000  0.4838490000000 1.0
C      1  0.4828340000000  0.4425610000000  0.5190030000000 1.0
C      1  0.4828340000000  0.5586810000000  0.4838490000000 1.0
C      1  0.5179890000000  0.4830440000000  0.4433660000000 1.0
C      1  0.4828340000000  0.4830440000000  0.5594860000000 1.0
C      1  0.4828340000000  0.5181980000000  0.4433660000000 1.0
C      1  0.5584720000000  0.4830440000000  0.4838490000000 1.0
C      1  0.4423510000000  0.4830440000000  0.5190030000000 1.0
C      1  0.4423510000000  0.5181990000000  0.4838490000000 1.0
C      1  0.5004110000000  0.4586800000000  0.5014260000000 1.0
C      1  0.5004110000000  0.5425630000000  0.5014260000000 1.0
C      1  0.5423530000000  0.5006210000000  0.5014260000000 1.0
C      1  0.4584700000000  0.5006210000000  0.5014260000000 1.0
C      1  0.5004110000000  0.5006210000000  0.5433670000000 1.0
C      1  0.5004120000000  0.5006210000000  0.4594850000000 1.0
C      1  0.4824730000000  0.5185600000000  0.5193650000000 1.0
C      1  0.5183500000000  0.4826830000000  0.5193650000000 1.0
C      1  0.5183500000000  0.5185600000000  0.4834880000000 1.0
C      1  0.4824730000000  0.4826830000000  0.4834870000000 1.0
C      1  0.5004110000000  0.5006210000000  0.5014260000000 1.0
END
