TITL C-862501-1041-315 12858.3738290218 125000 -49.613109728659 0 0 17 (D3) n - 1
REM
REM in /home/nfs/bkarasulu/CARBON/AIRSS/Generating-Clusters/TERSOFF/Higher-Symm/FIRE-HFTN
REM
REM
REM
REM
REM
REM ./C.cell (b20cbc046b6831c77cfcea5457e17084)
REM AIRSS Version 0.9.1 bugfix July 2018 build 013d7b7c2542+ Fri, 06 Jul 2018 19:26:36 +0100
REM compiler GCC version 9.2.1 20190827 (Red Hat 9.2.1-1)
REM options -cpp -mtune=generic -march=x86-64 -g -O0 -fpre-include=/usr/include/finclude/math-vector-fortran.h
REM seed -847832541 -1439123773 -1864771223 874746121 874036150 862632640 -966885522 1321485664 606958250 -315201420 1706395688 -1266495334 -269208218 1388098981 217708975 -396910236 16652222 1095828044 969618784 -1283873314 1522246810 -819717304 -1946801003 1208048820 -2111079300 1698826646 1720021360 -1727071069 -594658079 -41553757 90703084 193120915 1790838307
REM
CELL 1.54180   50.00000   50.00000   50.00000   90.00000   90.00000   90.00000
LATT -1
SFAC C  
C      1  0.5132720000000  0.4785340000000  0.4795840000000 1.0
C      1  0.5082140000000  0.4785350000000  0.5212510000000 1.0
C      1  0.4746590000000  0.4785580000000  0.4960380000000 1.0
C      1  0.4841560000000  0.5085000000000  0.4795850000000 1.0
C      1  0.4892150000000  0.5085020000000  0.5212520000000 1.0
C      1  0.5227690000000  0.5084780000000  0.4960370000000 1.0
C      1  0.4771110000000  0.4391900000000  0.4816110000000 1.0
C      1  0.5244550000000  0.4391690000000  0.4890380000000 1.0
C      1  0.4943340000000  0.4392250000000  0.5263570000000 1.0
C      1  0.5203220000000  0.5478430000000  0.4816010000000 1.0
C      1  0.4729780000000  0.5478680000000  0.4890300000000 1.0
C      1  0.5030980000000  0.5478120000000  0.5263490000000 1.0
C      1  0.4534210000000  0.4931420000000  0.4722820000000 1.0
C      1  0.5439930000000  0.4939140000000  0.4722600000000 1.0
C      1  0.4986850000000  0.4934930000000  0.5515130000000 1.0
C      1  0.4986410000000  0.4547120000000  0.4990020000000 1.0
C      1  0.4987920000000  0.5323240000000  0.4989940000000 1.0
END
