TITL C-862127-1500-688 1.14234866680627e-05 125000 -742.352561150339 0 0 142 (T23) n - 1
REM
REM in /home/nfs/bkarasulu/CARBON/AIRSS/Generating-Clusters/TERSOFF/Higher-Symm/FIRE-HFTN
REM
REM
REM
REM
REM
REM ./C.cell (b20cbc046b6831c77cfcea5457e17084)
REM AIRSS Version 0.9.1 bugfix July 2018 build 013d7b7c2542+ Fri, 06 Jul 2018 19:26:36 +0100
REM compiler GCC version 9.2.1 20190827 (Red Hat 9.2.1-1)
REM options -cpp -mtune=generic -march=x86-64 -g -O0 -fpre-include=/usr/include/finclude/math-vector-fortran.h
REM seed 1679861409 -36982153 1776373861 2071395852 -1826851423 2039729239 -630640925 55431151 -1788963610 2096569651 -55587237 -558293420 137227884 650105025 -2078471522 -1904719457 1795131117 627278295 955394547 -860542716 -842730685 1157883708 -1413112713 1413263432 -1663931065 -847425415 1368570963 -1826032387 -2117862437 -785820790 1020690479 405305038 1768619453
REM
CELL 1.54180   50.00000   50.00000   50.00000   90.00000   90.00000   90.00000
LATT -1
SFAC C  
C      1  0.5468000000000  0.4162740000000  0.4981240000000 1.0
C      1  0.4985030000000  0.5465610000000  0.4161340000000 1.0
C      1  0.4165130000000  0.4982640000000  0.5464200000000 1.0
C      1  0.5468000000000  0.5842270000000  0.5020960000000 1.0
C      1  0.4541790000000  0.5842270000000  0.4981240000000 1.0
C      1  0.4541790000000  0.4162740000000  0.5020960000000 1.0
C      1  0.4985040000000  0.4539400000000  0.5840860000000 1.0
C      1  0.5024750000000  0.4539400000000  0.4161340000000 1.0
C      1  0.5024760000000  0.5465610000000  0.5840860000000 1.0
C      1  0.4165130000000  0.5022360000000  0.4538000000000 1.0
C      1  0.5844660000000  0.5022360000000  0.5464200000000 1.0
C      1  0.5844660000000  0.4982640000000  0.4538000000000 1.0
C      1  0.5629690000000  0.4294020000000  0.5424050000000 1.0
C      1  0.5427840000000  0.5627300000000  0.4292610000000 1.0
C      1  0.4296410000000  0.5425450000000  0.5625890000000 1.0
C      1  0.5629690000000  0.5710990000000  0.4578150000000 1.0
C      1  0.4380100000000  0.5710990000000  0.5424050000000 1.0
C      1  0.4380100000000  0.4294020000000  0.4578150000000 1.0
C      1  0.5427840000000  0.4377710000000  0.5709590000000 1.0
C      1  0.4581940000000  0.4377710000000  0.4292620000000 1.0
C      1  0.4581950000000  0.5627300000000  0.5709590000000 1.0
C      1  0.4296410000000  0.4579560000000  0.4376310000000 1.0
C      1  0.5713380000000  0.4579560000000  0.5625890000000 1.0
C      1  0.5713380000000  0.5425450000000  0.4376310000000 1.0
C      1  0.5491770000000  0.4839710000000  0.5705860000000 1.0
C      1  0.5709660000000  0.5489380000000  0.4838300000000 1.0
C      1  0.4842100000000  0.5707270000000  0.5487970000000 1.0
C      1  0.5491770000000  0.5165300000000  0.4296340000000 1.0
C      1  0.4518020000000  0.5165300000000  0.5705860000000 1.0
C      1  0.4518020000000  0.4839710000000  0.4296340000000 1.0
C      1  0.5709660000000  0.4515630000000  0.5163900000000 1.0
C      1  0.4300130000000  0.4515630000000  0.4838300000000 1.0
C      1  0.4300130000000  0.5489380000000  0.5163900000000 1.0
C      1  0.4842100000000  0.4297740000000  0.4514230000000 1.0
C      1  0.5167690000000  0.4297740000000  0.5487970000000 1.0
C      1  0.5167690000000  0.5707270000000  0.4514230000000 1.0
C      1  0.5228850000000  0.4314440000000  0.4861310000000 1.0
C      1  0.4865110000000  0.5226460000000  0.4313040000000 1.0
C      1  0.4316830000000  0.4862720000000  0.5225060000000 1.0
C      1  0.5228850000000  0.5690570000000  0.5140890000000 1.0
C      1  0.4780930000000  0.5690570000000  0.4861310000000 1.0
C      1  0.4780940000000  0.4314440000000  0.5140890000000 1.0
C      1  0.4865110000000  0.4778540000000  0.5689160000000 1.0
C      1  0.5144680000000  0.4778540000000  0.4313040000000 1.0
C      1  0.5144680000000  0.5226460000000  0.5689160000000 1.0
C      1  0.4316830000000  0.5142290000000  0.4777140000000 1.0
C      1  0.5692960000000  0.5142290000000  0.5225060000000 1.0
C      1  0.5692960000000  0.4862720000000  0.4777140000000 1.0
C      1  0.5705910000000  0.5700810000000  0.5046850000000 1.0
C      1  0.5050650000000  0.5703520000000  0.5699400000000 1.0
C      1  0.5703200000000  0.5048260000000  0.5702120000000 1.0
C      1  0.5705910000000  0.4304200000000  0.4955350000000 1.0
C      1  0.4303880000000  0.4304200000000  0.5046860000000 1.0
C      1  0.4303880000000  0.5700810000000  0.4955350000000 1.0
C      1  0.5050650000000  0.4301490000000  0.4302800000000 1.0
C      1  0.4959140000000  0.4301490000000  0.5699400000000 1.0
C      1  0.4959140000000  0.5703520000000  0.4302800000000 1.0
C      1  0.5703200000000  0.4956750000000  0.4300080000000 1.0
C      1  0.4306590000000  0.4956750000000  0.5702120000000 1.0
C      1  0.4306590000000  0.5048260000000  0.4300080000000 1.0
C      1  0.5449560000000  0.5322950000000  0.4845400000000 1.0
C      1  0.4849200000000  0.5447170000000  0.5321550000000 1.0
C      1  0.5325340000000  0.4846810000000  0.5445760000000 1.0
C      1  0.5449560000000  0.4682060000000  0.5156800000000 1.0
C      1  0.4560230000000  0.4682060000000  0.4845400000000 1.0
C      1  0.4560230000000  0.5322950000000  0.5156800000000 1.0
C      1  0.4849200000000  0.4557840000000  0.4680660000000 1.0
C      1  0.5160590000000  0.4557840000000  0.5321540000000 1.0
C      1  0.5160590000000  0.5447170000000  0.4680660000000 1.0
C      1  0.5325340000000  0.5158200000000  0.4556440000000 1.0
C      1  0.4684450000000  0.5158200000000  0.5445760000000 1.0
C      1  0.4684450000000  0.4846810000000  0.4556440000000 1.0
C      1  0.5312900000000  0.5126890000000  0.4029510000000 1.0
C      1  0.4033300000000  0.5310510000000  0.5125480000000 1.0
C      1  0.5129280000000  0.4030910000000  0.5309110000000 1.0
C      1  0.5312900000000  0.4878120000000  0.5972690000000 1.0
C      1  0.4696890000000  0.4878120000000  0.4029510000000 1.0
C      1  0.4696890000000  0.5126890000000  0.5972690000000 1.0
C      1  0.4033300000000  0.4694500000000  0.4876720000000 1.0
C      1  0.5976490000000  0.4694500000000  0.5125480000000 1.0
C      1  0.5976490000000  0.5310510000000  0.4876720000000 1.0
C      1  0.5129280000000  0.5974100000000  0.4693090000000 1.0
C      1  0.4880510000000  0.5974100000000  0.5309110000000 1.0
C      1  0.4880510000000  0.4030910000000  0.4693090000000 1.0
C      1  0.5142370000000  0.5108370000000  0.5382030000000 1.0
C      1  0.5385830000000  0.5139980000000  0.5106960000000 1.0
C      1  0.5110760000000  0.5383440000000  0.5138570000000 1.0
C      1  0.5142370000000  0.4896640000000  0.4620170000000 1.0
C      1  0.4867420000000  0.4896640000000  0.5382030000000 1.0
C      1  0.4867420000000  0.5108370000000  0.4620170000000 1.0
C      1  0.5385830000000  0.4865030000000  0.4895240000000 1.0
C      1  0.4623960000000  0.4865030000000  0.5106960000000 1.0
C      1  0.4623960000000  0.5139980000000  0.4895240000000 1.0
C      1  0.5110760000000  0.4621570000000  0.4863630000000 1.0
C      1  0.4899030000000  0.4621570000000  0.5138570000000 1.0
C      1  0.4899030000000  0.5383440000000  0.4863630000000 1.0
C      1  0.5262020000000  0.5436350000000  0.4072600000000 1.0
C      1  0.4076390000000  0.5259630000000  0.5434950000000 1.0
C      1  0.5438740000000  0.4074000000000  0.5258230000000 1.0
C      1  0.5262020000000  0.4568660000000  0.5929600000000 1.0
C      1  0.4747770000000  0.4568660000000  0.4072600000000 1.0
C      1  0.4747770000000  0.5436350000000  0.5929600000000 1.0
C      1  0.4076390000000  0.4745380000000  0.4567250000000 1.0
C      1  0.5933400000000  0.4745380000000  0.5434950000000 1.0
C      1  0.5933400000000  0.5259630000000  0.4567250000000 1.0
C      1  0.5438740000000  0.5931010000000  0.4743970000000 1.0
C      1  0.4571050000000  0.5931010000000  0.5258230000000 1.0
C      1  0.4571050000000  0.4074000000000  0.4743970000000 1.0
C      1  0.6020280000000  0.5450410000000  0.5165340000000 1.0
C      1  0.5169140000000  0.6017890000000  0.5449000000000 1.0
C      1  0.5452800000000  0.5166740000000  0.6016490000000 1.0
C      1  0.6020280000000  0.4554600000000  0.4836860000000 1.0
C      1  0.3989510000000  0.4554600000000  0.5165340000000 1.0
C      1  0.3989510000000  0.5450410000000  0.4836860000000 1.0
C      1  0.5169130000000  0.3987120000000  0.4553200000000 1.0
C      1  0.4840660000000  0.3987120000000  0.5449000000000 1.0
C      1  0.4840650000000  0.6017890000000  0.4553200000000 1.0
C      1  0.5452800000000  0.4838260000000  0.3985720000000 1.0
C      1  0.4556990000000  0.4838260000000  0.6016490000000 1.0
C      1  0.4556990000000  0.5166740000000  0.3985720000000 1.0
C      1  0.5769550000000  0.4585000000000  0.4650270000000 1.0
C      1  0.4654060000000  0.5767160000000  0.4583600000000 1.0
C      1  0.4587400000000  0.4651670000000  0.5765750000000 1.0
C      1  0.5769550000000  0.5420010000000  0.5351930000000 1.0
C      1  0.4240240000000  0.5420000000000  0.4650270000000 1.0
C      1  0.4240240000000  0.4585000000000  0.5351930000000 1.0
C      1  0.4654060000000  0.4237850000000  0.5418600000000 1.0
C      1  0.5355730000000  0.4237850000000  0.4583600000000 1.0
C      1  0.5355730000000  0.5767160000000  0.5418600000000 1.0
C      1  0.4587390000000  0.5353340000000  0.4236450000000 1.0
C      1  0.5422400000000  0.5353340000000  0.5765750000000 1.0
C      1  0.5422390000000  0.4651670000000  0.4236450000000 1.0
C      1  0.5004900000000  0.5002500000000  0.5867010000000 1.0
C      1  0.5870810000000  0.5002500000000  0.5001100000000 1.0
C      1  0.5004890000000  0.5868420000000  0.5001100000000 1.0
C      1  0.5004890000000  0.5002500000000  0.4135190000000 1.0
C      1  0.4138980000000  0.5002500000000  0.5001100000000 1.0
C      1  0.5004890000000  0.4136590000000  0.5001100000000 1.0
C      1  0.4460450000000  0.4458060000000  0.5545550000000 1.0
C      1  0.4460450000000  0.5546950000000  0.4456650000000 1.0
C      1  0.5549340000000  0.4458060000000  0.4456650000000 1.0
C      1  0.5549340000000  0.5546950000000  0.5545550000000 1.0
END
