TITL C-862501-1041-790 26.2237415614627 125000 -1118.82534441505 0 0 184 (S4) n - 1
REM
REM in /home/nfs/bkarasulu/CARBON/AIRSS/Generating-Clusters/TERSOFF/Higher-Symm/FIRE-HFTN
REM
REM
REM
REM
REM
REM ./C.cell (b20cbc046b6831c77cfcea5457e17084)
REM AIRSS Version 0.9.1 bugfix July 2018 build 013d7b7c2542+ Fri, 06 Jul 2018 19:26:36 +0100
REM compiler GCC version 9.2.1 20190827 (Red Hat 9.2.1-1)
REM options -cpp -mtune=generic -march=x86-64 -g -O0 -fpre-include=/usr/include/finclude/math-vector-fortran.h
REM seed -860233444 -437219764 -1662798693 -608472948 -1937883983 639577719 1091142751 -2138438267 1696017536 -1240233425 -329778579 1077600808 -2059314242 1492253893 1949800881 1602726725 746577937 1490603987 -823375667 1636490154 -1759000691 1584456163 -1806509812 -2128995158 996097050 -700854076 520830960 -1702795271 -701966879 713551383 319695728 -1491658113 12087512
REM
CELL 1.54180   50.00000   50.00000   50.00000   90.00000   90.00000   90.00000
LATT -1
SFAC C  
C      1  0.4668110000000  0.5698070000000  0.4826620000000 1.0
C      1  0.5331890000000  0.5173380000000  0.5698070000000 1.0
C      1  0.4668110000000  0.4301930000000  0.5173380000000 1.0
C      1  0.5331890000000  0.4826620000000  0.4301930000000 1.0
C      1  0.4323690000000  0.5704370000000  0.5756190000000 1.0
C      1  0.5676310000000  0.4243810000000  0.5704370000000 1.0
C      1  0.4323690000000  0.4295630000000  0.4243810000000 1.0
C      1  0.5676310000000  0.5756190000000  0.4295630000000 1.0
C      1  0.5541370000000  0.5462760000000  0.4713760000000 1.0
C      1  0.4458630000000  0.5286240000000  0.5462760000000 1.0
C      1  0.5541370000000  0.4537240000000  0.5286240000000 1.0
C      1  0.4458630000000  0.4713760000000  0.4537240000000 1.0
C      1  0.3978140000000  0.5121250000000  0.4828770000000 1.0
C      1  0.6021860000000  0.5171230000000  0.5121250000000 1.0
C      1  0.3978140000000  0.4878750000000  0.5171230000000 1.0
C      1  0.6021860000000  0.4828770000000  0.4878760000000 1.0
C      1  0.5968840000000  0.5623930000000  0.5506860000000 1.0
C      1  0.4031160000000  0.4493140000000  0.5623930000000 1.0
C      1  0.5968840000000  0.4376070000000  0.4493140000000 1.0
C      1  0.4031160000000  0.5506860000000  0.4376070000000 1.0
C      1  0.4416200000000  0.4265490000000  0.5016510000000 1.0
C      1  0.5583800000000  0.4983490000000  0.4265490000000 1.0
C      1  0.4416200000000  0.5734510000000  0.4983490000000 1.0
C      1  0.5583800000000  0.5016510000000  0.5734510000000 1.0
C      1  0.4190970000000  0.4432050000000  0.5080430000000 1.0
C      1  0.5809030000000  0.4919570000000  0.4432050000000 1.0
C      1  0.4190970000000  0.5567950000000  0.4919570000000 1.0
C      1  0.5809030000000  0.5080430000000  0.5567950000000 1.0
C      1  0.4266970000000  0.5703370000000  0.5455610000000 1.0
C      1  0.5733030000000  0.4544390000000  0.5703370000000 1.0
C      1  0.4266970000000  0.4296630000000  0.4544390000000 1.0
C      1  0.5733030000000  0.5455610000000  0.4296630000000 1.0
C      1  0.4897550000000  0.5140530000000  0.3831280000000 1.0
C      1  0.5102450000000  0.6168720000000  0.5140530000000 1.0
C      1  0.4897550000000  0.4859470000000  0.6168720000000 1.0
C      1  0.5102450000000  0.3831280000000  0.4859470000000 1.0
C      1  0.5132290000000  0.4397630000000  0.3904520000000 1.0
C      1  0.4867710000000  0.6095480000000  0.4397630000000 1.0
C      1  0.5132290000000  0.5602370000000  0.6095480000000 1.0
C      1  0.4867710000000  0.3904520000000  0.5602370000000 1.0
C      1  0.4630660000000  0.4893370000000  0.6049770000000 1.0
C      1  0.5369340000000  0.3950230000000  0.4893370000000 1.0
C      1  0.4630660000000  0.5106630000000  0.3950230000000 1.0
C      1  0.5369340000000  0.6049770000000  0.5106630000000 1.0
C      1  0.4895110000000  0.4183600000000  0.4763220000000 1.0
C      1  0.5104890000000  0.5236780000000  0.4183600000000 1.0
C      1  0.4895110000000  0.5816400000000  0.5236780000000 1.0
C      1  0.5104890000000  0.4763220000000  0.5816400000000 1.0
C      1  0.4603210000000  0.5686400000000  0.5882990000000 1.0
C      1  0.5396790000000  0.4117010000000  0.5686400000000 1.0
C      1  0.4603210000000  0.4313600000000  0.4117010000000 1.0
C      1  0.5396790000000  0.5882990000000  0.4313600000000 1.0
C      1  0.4905400000000  0.4139270000000  0.5770670000000 1.0
C      1  0.5094600000000  0.4229330000000  0.4139270000000 1.0
C      1  0.4905410000000  0.5860730000000  0.4229330000000 1.0
C      1  0.5094590000000  0.5770670000000  0.5860730000000 1.0
C      1  0.4531340000000  0.5172640000000  0.5965710000000 1.0
C      1  0.5468660000000  0.4034290000000  0.5172640000000 1.0
C      1  0.4531340000000  0.4827360000000  0.4034290000000 1.0
C      1  0.5468660000000  0.5965710000000  0.4827360000000 1.0
C      1  0.4035090000000  0.4782180000000  0.5659670000000 1.0
C      1  0.5964910000000  0.4340330000000  0.4782180000000 1.0
C      1  0.4035090000000  0.5217820000000  0.4340330000000 1.0
C      1  0.5964910000000  0.5659670000000  0.5217820000000 1.0
C      1  0.4950940000000  0.4616070000000  0.3849960000000 1.0
C      1  0.5049060000000  0.6150040000000  0.4616070000000 1.0
C      1  0.4950940000000  0.5383930000000  0.6150040000000 1.0
C      1  0.5049060000000  0.3849960000000  0.5383930000000 1.0
C      1  0.5076570000000  0.5038110000000  0.5756230000000 1.0
C      1  0.4923430000000  0.4243770000000  0.5038110000000 1.0
C      1  0.5076570000000  0.4961890000000  0.4243770000000 1.0
C      1  0.4923430000000  0.5756230000000  0.4961890000000 1.0
C      1  0.4905960000000  0.4803420000000  0.4744480000000 1.0
C      1  0.5094040000000  0.5255520000000  0.4803420000000 1.0
C      1  0.4905960000000  0.5196580000000  0.5255520000000 1.0
C      1  0.5094040000000  0.4744480000000  0.5196580000000 1.0
C      1  0.5665370000000  0.5210730000000  0.4838660000000 1.0
C      1  0.4334630000000  0.5161340000000  0.5210730000000 1.0
C      1  0.5665370000000  0.4789270000000  0.5161340000000 1.0
C      1  0.4334630000000  0.4838660000000  0.4789270000000 1.0
C      1  0.4772230000000  0.6086890000000  0.5584030000000 1.0
C      1  0.5227770000000  0.4415970000000  0.6086890000000 1.0
C      1  0.4772230000000  0.3913110000000  0.4415970000000 1.0
C      1  0.5227770000000  0.5584030000000  0.3913110000000 1.0
C      1  0.4090560000000  0.4512640000000  0.4649200000000 1.0
C      1  0.5909440000000  0.5350800000000  0.4512640000000 1.0
C      1  0.4090560000000  0.5487360000000  0.5350800000000 1.0
C      1  0.5909440000000  0.4649200000000  0.5487360000000 1.0
C      1  0.5340020000000  0.5409720000000  0.5531540000000 1.0
C      1  0.4659980000000  0.4468460000000  0.5409720000000 1.0
C      1  0.5340020000000  0.4590280000000  0.4468460000000 1.0
C      1  0.4659980000000  0.5531540000000  0.4590280000000 1.0
C      1  0.5830180000000  0.5014890000000  0.5285610000000 1.0
C      1  0.4169820000000  0.4714390000000  0.5014890000000 1.0
C      1  0.5830180000000  0.4985110000000  0.4714390000000 1.0
C      1  0.4169820000000  0.5285610000000  0.4985110000000 1.0
C      1  0.4814210000000  0.4874150000000  0.4340970000000 1.0
C      1  0.5185790000000  0.5659030000000  0.4874150000000 1.0
C      1  0.4814210000000  0.5125850000000  0.5659030000000 1.0
C      1  0.5185790000000  0.4340970000000  0.5125850000000 1.0
C      1  0.3794490000000  0.5639190000000  0.4480560000000 1.0
C      1  0.6205510000000  0.5519440000000  0.5639190000000 1.0
C      1  0.3794490000000  0.4360810000000  0.5519440000000 1.0
C      1  0.6205510000000  0.4480560000000  0.4360810000000 1.0
C      1  0.4591520000000  0.5076320000000  0.4367080000000 1.0
C      1  0.5408480000000  0.5632920000000  0.5076320000000 1.0
C      1  0.4591520000000  0.4923680000000  0.5632920000000 1.0
C      1  0.5408480000000  0.4367080000000  0.4923680000000 1.0
C      1  0.5029240000000  0.5431630000000  0.4376110000000 1.0
C      1  0.4970760000000  0.5623890000000  0.5431630000000 1.0
C      1  0.5029240000000  0.4568370000000  0.5623890000000 1.0
C      1  0.4970760000000  0.4376110000000  0.4568370000000 1.0
C      1  0.4999950000000  0.3757230000000  0.4574330000000 1.0
C      1  0.5000050000000  0.5425670000000  0.3757230000000 1.0
C      1  0.4999950000000  0.6242770000000  0.5425670000000 1.0
C      1  0.5000050000000  0.4574330000000  0.6242770000000 1.0
C      1  0.4683530000000  0.4583320000000  0.3969620000000 1.0
C      1  0.5316470000000  0.6030380000000  0.4583320000000 1.0
C      1  0.4683530000000  0.5416680000000  0.6030380000000 1.0
C      1  0.5316470000000  0.3969620000000  0.5416680000000 1.0
C      1  0.6359370000000  0.5292190000000  0.5547220000000 1.0
C      1  0.3640630000000  0.4452780000000  0.5292190000000 1.0
C      1  0.6359370000000  0.4707810000000  0.4452780000000 1.0
C      1  0.3640630000000  0.5547220000000  0.4707810000000 1.0
C      1  0.4018940000000  0.4976120000000  0.5443880000000 1.0
C      1  0.5981060000000  0.4556120000000  0.4976120000000 1.0
C      1  0.4018940000000  0.5023880000000  0.4556120000000 1.0
C      1  0.5981060000000  0.5443880000000  0.5023880000000 1.0
C      1  0.5090720000000  0.4695490000000  0.4921750000000 1.0
C      1  0.4909280000000  0.5078250000000  0.4695490000000 1.0
C      1  0.5090720000000  0.5304510000000  0.5078250000000 1.0
C      1  0.4909280000000  0.4921750000000  0.5304510000000 1.0
C      1  0.4952810000000  0.3774870000000  0.5109940000000 1.0
C      1  0.5047190000000  0.4890060000000  0.3774870000000 1.0
C      1  0.4952810000000  0.6225130000000  0.4890060000000 1.0
C      1  0.5047190000000  0.5109940000000  0.6225130000000 1.0
C      1  0.5451130000000  0.5412310000000  0.5264290000000 1.0
C      1  0.4548870000000  0.4735710000000  0.5412310000000 1.0
C      1  0.5451130000000  0.4587690000000  0.4735710000000 1.0
C      1  0.4548870000000  0.5264290000000  0.4587690000000 1.0
C      1  0.5575410000000  0.5256230000000  0.4148450000000 1.0
C      1  0.4424590000000  0.5851550000000  0.5256230000000 1.0
C      1  0.5575410000000  0.4743770000000  0.5851550000000 1.0
C      1  0.4424590000000  0.4148450000000  0.4743770000000 1.0
C      1  0.4819410000000  0.4116770000000  0.4188420000000 1.0
C      1  0.5180600000000  0.5811580000000  0.4116770000000 1.0
C      1  0.4819400000000  0.5883230000000  0.5811580000000 1.0
C      1  0.5180590000000  0.4188420000000  0.5883230000000 1.0
C      1  0.4505100000000  0.5547090000000  0.4186690000000 1.0
C      1  0.5494900000000  0.5813310000000  0.5547090000000 1.0
C      1  0.4505100000000  0.4452910000000  0.5813310000000 1.0
C      1  0.5494900000000  0.4186690000000  0.4452910000000 1.0
C      1  0.6013780000000  0.5509400000000  0.4736190000000 1.0
C      1  0.3986220000000  0.5263810000000  0.5509390000000 1.0
C      1  0.6013780000000  0.4490600000000  0.5263810000000 1.0
C      1  0.3986220000000  0.4736190000000  0.4490600000000 1.0
C      1  0.5532810000000  0.3981370000000  0.4657910000000 1.0
C      1  0.4467190000000  0.5342090000000  0.3981370000000 1.0
C      1  0.5532810000000  0.6018630000000  0.5342090000000 1.0
C      1  0.4467190000000  0.4657910000000  0.6018630000000 1.0
C      1  0.4331190000000  0.4767680000000  0.4253160000000 1.0
C      1  0.5668810000000  0.5746840000000  0.4767680000000 1.0
C      1  0.4331190000000  0.5232320000000  0.5746840000000 1.0
C      1  0.5668810000000  0.4253160000000  0.5232320000000 1.0
C      1  0.4167930000000  0.4537750000000  0.4168120000000 1.0
C      1  0.5832070000000  0.5831880000000  0.4537750000000 1.0
C      1  0.4167930000000  0.5462250000000  0.5831880000000 1.0
C      1  0.5832070000000  0.4168120000000  0.5462250000000 1.0
C      1  0.5323720000000  0.4676150000000  0.5975240000000 1.0
C      1  0.4676280000000  0.4024760000000  0.4676150000000 1.0
C      1  0.5323720000000  0.5323850000000  0.4024760000000 1.0
C      1  0.4676280000000  0.5975240000000  0.5323850000000 1.0
C      1  0.5218710000000  0.4322580000000  0.4390820000000 1.0
C      1  0.4781290000000  0.5609180000000  0.4322580000000 1.0
C      1  0.5218710000000  0.5677420000000  0.5609180000000 1.0
C      1  0.4781290000000  0.4390820000000  0.5677420000000 1.0
C      1  0.5213990000000  0.4535250000000  0.5367230000000 1.0
C      1  0.4786010000000  0.4632770000000  0.4535250000000 1.0
C      1  0.5213990000000  0.5464750000000  0.4632770000000 1.0
C      1  0.4786010000000  0.5367230000000  0.5464750000000 1.0
C      1  0.4266300000000  0.5660180000000  0.4306020000000 1.0
C      1  0.5733700000000  0.5693980000000  0.5660180000000 1.0
C      1  0.4266300000000  0.4339820000000  0.5693980000000 1.0
C      1  0.5733700000000  0.4306020000000  0.4339820000000 1.0
END
