TITL C-862505-1648-329 -5.399264674742e-05 125000 -473.933733699181 0 0 85 (C1) n - 1
REM
REM in /home/nfs/bkarasulu/CARBON/AIRSS/Generating-Clusters/TERSOFF/Higher-Symm/FIRE-HFTN
REM
REM
REM
REM
REM
REM ./C.cell (b20cbc046b6831c77cfcea5457e17084)
REM AIRSS Version 0.9.1 bugfix July 2018 build 013d7b7c2542+ Fri, 06 Jul 2018 19:26:36 +0100
REM compiler GCC version 9.2.1 20190827 (Red Hat 9.2.1-1)
REM options -cpp -mtune=generic -march=x86-64 -g -O0 -fpre-include=/usr/include/finclude/math-vector-fortran.h
REM seed -1092097027 -1935432074 -1084517466 780480380 433661600 -1111462342 330399666 6552791 -391824774 1054346133 444737387 -1816367572 -29134198 -1496614482 -825919607 1162765586 -1257992847 855369029 -861808556 -934791111 -750744340 -9020280 -1189826958 -374795812 -411046589 -193979184 698748222 -307007245 -1367717353 821635785 1757804850 1676848629 811887130
REM
CELL 1.54180   50.00000   50.00000   50.00000   90.00000   90.00000   90.00000
LATT -1
SFAC C  
C      1  0.4773930000000  0.5350820000000  0.5811310000000 1.0
C      1  0.4838170000000  0.5784560000000  0.4926460000000 1.0
C      1  0.4789820000000  0.5138970000000  0.4210420000000 1.0
C      1  0.4810380000000  0.4251090000000  0.4580970000000 1.0
C      1  0.4807590000000  0.4424250000000  0.5526990000000 1.0
C      1  0.4776750000000  0.4692950000000  0.5747270000000 1.0
C      1  0.4818400000000  0.4173620000000  0.4932540000000 1.0
C      1  0.4768560000000  0.4781670000000  0.4167740000000 1.0
C      1  0.4825940000000  0.5661140000000  0.4606040000000 1.0
C      1  0.4800310000000  0.5625410000000  0.5577470000000 1.0
C      1  0.4792410000000  0.5158670000000  0.5438420000000 1.0
C      1  0.4729820000000  0.5390740000000  0.5023710000000 1.0
C      1  0.4712840000000  0.5091950000000  0.4652910000000 1.0
C      1  0.4881100000000  0.4643700000000  0.4707940000000 1.0
C      1  0.4855020000000  0.4739370000000  0.5173520000000 1.0
C      1  0.4693880000000  0.4907140000000  0.5332220000000 1.0
C      1  0.4739050000000  0.4622720000000  0.4950340000000 1.0
C      1  0.4869710000000  0.4885240000000  0.4559220000000 1.0
C      1  0.4844030000000  0.5287870000000  0.4796610000000 1.0
C      1  0.4882150000000  0.5369110000000  0.5255790000000 1.0
C      1  0.5599400000000  0.5442630000000  0.4481710000000 1.0
C      1  0.5589580000000  0.4830320000000  0.4409350000000 1.0
C      1  0.5613040000000  0.4478400000000  0.4978860000000 1.0
C      1  0.5597440000000  0.4856490000000  0.5548780000000 1.0
C      1  0.5611390000000  0.5506520000000  0.5430590000000 1.0
C      1  0.5625420000000  0.4540880000000  0.4620790000000 1.0
C      1  0.5579940000000  0.5182240000000  0.4313330000000 1.0
C      1  0.5643420000000  0.5575660000000  0.5126460000000 1.0
C      1  0.5580640000000  0.5194020000000  0.5612560000000 1.0
C      1  0.5578230000000  0.4570560000000  0.5325150000000 1.0
C      1  0.5184260000000  0.4843490000000  0.5476670000000 1.0
C      1  0.5209750000000  0.5337970000000  0.5275670000000 1.0
C      1  0.5125200000000  0.5301690000000  0.4781940000000 1.0
C      1  0.5161420000000  0.4915910000000  0.4493090000000 1.0
C      1  0.5197680000000  0.4533610000000  0.4960480000000 1.0
C      1  0.5110290000000  0.5113600000000  0.5497560000000 1.0
C      1  0.5149570000000  0.4703740000000  0.5218570000000 1.0
C      1  0.5230950000000  0.4667650000000  0.4687840000000 1.0
C      1  0.5278100000000  0.5151510000000  0.4602270000000 1.0
C      1  0.5282060000000  0.5421860000000  0.4980140000000 1.0
C      1  0.5338120000000  0.4357820000000  0.4605970000000 1.0
C      1  0.5331630000000  0.4451510000000  0.5507220000000 1.0
C      1  0.5275110000000  0.5280660000000  0.5739160000000 1.0
C      1  0.5369920000000  0.5717130000000  0.4936580000000 1.0
C      1  0.5305320000000  0.5138920000000  0.4167950000000 1.0
C      1  0.5358940000000  0.5597080000000  0.4596430000000 1.0
C      1  0.5307060000000  0.5529790000000  0.5523550000000 1.0
C      1  0.5316840000000  0.4705270000000  0.5720580000000 1.0
C      1  0.5338210000000  0.4247400000000  0.4950100000000 1.0
C      1  0.5286560000000  0.4818350000000  0.4215090000000 1.0
C      1  0.5074280000000  0.4165460000000  0.5117490000000 1.0
C      1  0.5024140000000  0.4838710000000  0.5864420000000 1.0
C      1  0.5069740000000  0.5702370000000  0.5429370000000 1.0
C      1  0.5083170000000  0.5559030000000  0.4453500000000 1.0
C      1  0.5035610000000  0.4621410000000  0.4221750000000 1.0
C      1  0.5090190000000  0.5776990000000  0.5096030000000 1.0
C      1  0.5021170000000  0.5174420000000  0.5901940000000 1.0
C      1  0.5074480000000  0.4332540000000  0.5400100000000 1.0
C      1  0.5060530000000  0.4373850000000  0.4440880000000 1.0
C      1  0.5059020000000  0.5290140000000  0.4250060000000 1.0
C      1  0.4556960000000  0.5699640000000  0.5409170000000 1.0
C      1  0.4560760000000  0.5531140000000  0.4519690000000 1.0
C      1  0.4528320000000  0.4655510000000  0.4305620000000 1.0
C      1  0.4571440000000  0.4256690000000  0.5071950000000 1.0
C      1  0.4511030000000  0.4851780000000  0.5726180000000 1.0
C      1  0.4560570000000  0.4332700000000  0.5381810000000 1.0
C      1  0.4548270000000  0.4375310000000  0.4480510000000 1.0
C      1  0.4547360000000  0.5279330000000  0.4315700000000 1.0
C      1  0.4580350000000  0.5778100000000  0.5086000000000 1.0
C      1  0.4496210000000  0.5171350000000  0.5809540000000 1.0
C      1  0.4438610000000  0.5486700000000  0.5031140000000 1.0
C      1  0.4420160000000  0.5117620000000  0.4572820000000 1.0
C      1  0.4354730000000  0.4544660000000  0.4675340000000 1.0
C      1  0.4358570000000  0.4560970000000  0.5294660000000 1.0
C      1  0.4504130000000  0.5236510000000  0.5510760000000 1.0
C      1  0.4447730000000  0.4529510000000  0.4962450000000 1.0
C      1  0.4326980000000  0.4829730000000  0.4500210000000 1.0
C      1  0.4348930000000  0.5420300000000  0.4743440000000 1.0
C      1  0.4369820000000  0.5455520000000  0.5362950000000 1.0
C      1  0.4431580000000  0.4813460000000  0.5428550000000 1.0
C      1  0.5446880000000  0.4849040000000  0.4839660000000 1.0
C      1  0.5605230000000  0.5288800000000  0.4978960000000 1.0
C      1  0.5387840000000  0.4876180000000  0.5110990000000 1.0
C      1  0.5459020000000  0.5127330000000  0.5219280000000 1.0
C      1  0.5551090000000  0.5103590000000  0.4724720000000 1.0
END
