TITL C-862127-1500-436 -3.92966775841934e-06 125000 -1065.75768510414 0 0 176 (C1) n - 1
REM
REM in /home/nfs/bkarasulu/CARBON/AIRSS/Generating-Clusters/TERSOFF/Higher-Symm/FIRE-HFTN
REM
REM
REM
REM
REM
REM ./C.cell (b20cbc046b6831c77cfcea5457e17084)
REM AIRSS Version 0.9.1 bugfix July 2018 build 013d7b7c2542+ Fri, 06 Jul 2018 19:26:36 +0100
REM compiler GCC version 9.2.1 20190827 (Red Hat 9.2.1-1)
REM options -cpp -mtune=generic -march=x86-64 -g -O0 -fpre-include=/usr/include/finclude/math-vector-fortran.h
REM seed 1203873817 -757653785 898215884 -1704557282 1032099462 -468028589 -445656804 1208562357 1089526436 639684194 1427785653 767620173 -662637053 -964761092 -792552734 243753852 -487569715 2093269558 1717639176 1730312155 1489286465 37721671 1690379164 1779854071 302543745 1073023966 262696837 -1368540975 -1172736874 224961836 -273120831 1559521610 374579437
REM
CELL 1.54180   50.00000   50.00000   50.00000   90.00000   90.00000   90.00000
LATT -1
SFAC C  
C      1  0.4176880000000  0.4749200000000  0.4317950000000 1.0
C      1  0.4726100000000  0.4263060000000  0.4260100000000 1.0
C      1  0.4314330000000  0.4178960000000  0.4739540000000 1.0
C      1  0.5831480000000  0.4734110000000  0.5672310000000 1.0
C      1  0.5713040000000  0.5273210000000  0.4278640000000 1.0
C      1  0.4137980000000  0.5248880000000  0.5661880000000 1.0
C      1  0.5262730000000  0.4327450000000  0.5801830000000 1.0
C      1  0.5267550000000  0.5736360000000  0.4294090000000 1.0
C      1  0.4726720000000  0.5702130000000  0.5713990000000 1.0
C      1  0.5749230000000  0.4258580000000  0.5259830000000 1.0
C      1  0.5725060000000  0.5722190000000  0.4745490000000 1.0
C      1  0.4317040000000  0.5809420000000  0.5249250000000 1.0
C      1  0.4265160000000  0.5262820000000  0.4260170000000 1.0
C      1  0.4752990000000  0.5665940000000  0.4175440000000 1.0
C      1  0.4322220000000  0.5785780000000  0.4731410000000 1.0
C      1  0.5826670000000  0.5250200000000  0.5678170000000 1.0
C      1  0.5712490000000  0.4734460000000  0.4273030000000 1.0
C      1  0.4269660000000  0.4752290000000  0.5716430000000 1.0
C      1  0.5244400000000  0.5648840000000  0.5820300000000 1.0
C      1  0.5260450000000  0.4269800000000  0.4280700000000 1.0
C      1  0.4697090000000  0.4329410000000  0.5917480000000 1.0
C      1  0.5736360000000  0.5730740000000  0.5275350000000 1.0
C      1  0.5722910000000  0.4275470000000  0.4726230000000 1.0
C      1  0.4335680000000  0.4224070000000  0.5274040000000 1.0
C      1  0.4461960000000  0.5472290000000  0.4846140000000 1.0
C      1  0.5507870000000  0.4844400000000  0.4475090000000 1.0
C      1  0.4890610000000  0.4507840000000  0.5419990000000 1.0
C      1  0.5549930000000  0.5514910000000  0.5159830000000 1.0
C      1  0.5523040000000  0.4474700000000  0.4839670000000 1.0
C      1  0.4471380000000  0.4510480000000  0.5133760000000 1.0
C      1  0.4513620000000  0.4826970000000  0.5530700000000 1.0
C      1  0.4489010000000  0.5153350000000  0.4445560000000 1.0
C      1  0.5508380000000  0.5145360000000  0.5543160000000 1.0
C      1  0.5145010000000  0.4470110000000  0.4483880000000 1.0
C      1  0.5164620000000  0.5537850000000  0.5497940000000 1.0
C      1  0.4847270000000  0.5544020000000  0.4500460000000 1.0
C      1  0.4442030000000  0.4503000000000  0.4833360000000 1.0
C      1  0.5505660000000  0.5157610000000  0.4476020000000 1.0
C      1  0.4857560000000  0.5531400000000  0.5490050000000 1.0
C      1  0.5560820000000  0.4474410000000  0.5146050000000 1.0
C      1  0.5522340000000  0.5521170000000  0.4852410000000 1.0
C      1  0.4456100000000  0.5491480000000  0.5153120000000 1.0
C      1  0.4569210000000  0.5117260000000  0.5469810000000 1.0
C      1  0.4495430000000  0.4843540000000  0.4444350000000 1.0
C      1  0.5510770000000  0.4840920000000  0.5543320000000 1.0
C      1  0.5151980000000  0.5533610000000  0.4499350000000 1.0
C      1  0.5174160000000  0.4452750000000  0.5470180000000 1.0
C      1  0.4834250000000  0.4452880000000  0.4476650000000 1.0
C      1  0.5307290000000  0.5641030000000  0.5270100000000 1.0
C      1  0.5620150000000  0.5245410000000  0.5274920000000 1.0
C      1  0.5262430000000  0.5279750000000  0.5621790000000 1.0
C      1  0.4707710000000  0.5620260000000  0.4746890000000 1.0
C      1  0.4749920000000  0.4407760000000  0.5192030000000 1.0
C      1  0.5251030000000  0.4392420000000  0.4754990000000 1.0
C      1  0.4389520000000  0.5221560000000  0.4715580000000 1.0
C      1  0.4399920000000  0.4757460000000  0.5266750000000 1.0
C      1  0.5599510000000  0.4740940000000  0.4735920000000 1.0
C      1  0.4745980000000  0.5287210000000  0.4371350000000 1.0
C      1  0.4754100000000  0.4670630000000  0.5608970000000 1.0
C      1  0.5243120000000  0.4734300000000  0.4388820000000 1.0
C      1  0.5323330000000  0.4344530000000  0.5251810000000 1.0
C      1  0.5626860000000  0.4743220000000  0.5270690000000 1.0
C      1  0.5263160000000  0.4702760000000  0.5614220000000 1.0
C      1  0.4707250000000  0.4383150000000  0.4739760000000 1.0
C      1  0.4729400000000  0.5605630000000  0.5230010000000 1.0
C      1  0.5254930000000  0.5605410000000  0.4766020000000 1.0
C      1  0.4360480000000  0.4744710000000  0.4695070000000 1.0
C      1  0.4379110000000  0.5257120000000  0.5310840000000 1.0
C      1  0.5599410000000  0.5257130000000  0.4740560000000 1.0
C      1  0.4734750000000  0.4704430000000  0.4355700000000 1.0
C      1  0.4801540000000  0.5252190000000  0.5568730000000 1.0
C      1  0.5237630000000  0.5273500000000  0.4395580000000 1.0
C      1  0.4452950000000  0.5620270000000  0.4048980000000 1.0
C      1  0.5626880000000  0.4089600000000  0.4493480000000 1.0
C      1  0.4093630000000  0.4510970000000  0.5622600000000 1.0
C      1  0.5549570000000  0.5598090000000  0.5912060000000 1.0
C      1  0.5496970000000  0.4363440000000  0.4095570000000 1.0
C      1  0.4399870000000  0.4393400000000  0.5994420000000 1.0
C      1  0.4385110000000  0.4138880000000  0.5580500000000 1.0
C      1  0.4380470000000  0.5894210000000  0.4436640000000 1.0
C      1  0.5614180000000  0.5890890000000  0.5523110000000 1.0
C      1  0.5896630000000  0.4496230000000  0.4367350000000 1.0
C      1  0.5941700000000  0.5545530000000  0.5633010000000 1.0
C      1  0.4100330000000  0.5506700000000  0.4365210000000 1.0
C      1  0.4480780000000  0.4376520000000  0.4093310000000 1.0
C      1  0.5633400000000  0.5913370000000  0.4515360000000 1.0
C      1  0.4060820000000  0.5553620000000  0.5609090000000 1.0
C      1  0.5563240000000  0.4376300000000  0.5899270000000 1.0
C      1  0.5506690000000  0.5649850000000  0.4111110000000 1.0
C      1  0.4477300000000  0.5588580000000  0.5860390000000 1.0
C      1  0.4362100000000  0.5928400000000  0.5545700000000 1.0
C      1  0.4366820000000  0.4057170000000  0.4444380000000 1.0
C      1  0.5627980000000  0.4094010000000  0.5507520000000 1.0
C      1  0.5901320000000  0.5507060000000  0.4381760000000 1.0
C      1  0.5953010000000  0.4441350000000  0.5621050000000 1.0
C      1  0.4085690000000  0.4443700000000  0.4374740000000 1.0
C      1  0.3971090000000  0.5351190000000  0.4857160000000 1.0
C      1  0.5334730000000  0.4860770000000  0.3918090000000 1.0
C      1  0.4824910000000  0.4023190000000  0.5415010000000 1.0
C      1  0.6087750000000  0.5355000000000  0.5184490000000 1.0
C      1  0.6059070000000  0.4668380000000  0.4875240000000 1.0
C      1  0.3974260000000  0.4643930000000  0.5127010000000 1.0
C      1  0.4630710000000  0.4825060000000  0.6041820000000 1.0
C      1  0.4630220000000  0.5174100000000  0.3919570000000 1.0
C      1  0.5397540000000  0.5130900000000  0.6012450000000 1.0
C      1  0.5114830000000  0.3937370000000  0.4664050000000 1.0
C      1  0.5103610000000  0.6052200000000  0.5366950000000 1.0
C      1  0.4821600000000  0.6058080000000  0.4618830000000 1.0
C      1  0.3951980000000  0.4605910000000  0.4830890000000 1.0
C      1  0.5335390000000  0.5172200000000  0.3920530000000 1.0
C      1  0.4808520000000  0.6059930000000  0.5367420000000 1.0
C      1  0.6093130000000  0.4639670000000  0.5174690000000 1.0
C      1  0.6057790000000  0.5327900000000  0.4885230000000 1.0
C      1  0.3965100000000  0.5380280000000  0.5153970000000 1.0
C      1  0.4655710000000  0.5111040000000  0.5986360000000 1.0
C      1  0.4636780000000  0.4879530000000  0.3932350000000 1.0
C      1  0.5398460000000  0.4833700000000  0.6004960000000 1.0
C      1  0.5118930000000  0.6054610000000  0.4671000000000 1.0
C      1  0.5115190000000  0.3981870000000  0.5389570000000 1.0
C      1  0.4813740000000  0.3915490000000  0.4638100000000 1.0
C      1  0.4046310000000  0.4367990000000  0.4666800000000 1.0
C      1  0.4412240000000  0.4679530000000  0.4053690000000 1.0
C      1  0.4661060000000  0.3990920000000  0.4387120000000 1.0
C      1  0.6020120000000  0.4386180000000  0.5326950000000 1.0
C      1  0.5982930000000  0.5557820000000  0.4688360000000 1.0
C      1  0.4039470000000  0.5627520000000  0.5312900000000 1.0
C      1  0.5636710000000  0.4666300000000  0.5931360000000 1.0
C      1  0.5560460000000  0.5352610000000  0.4023610000000 1.0
C      1  0.4416480000000  0.5290880000000  0.5884160000000 1.0
C      1  0.5324890000000  0.4079490000000  0.5589750000000 1.0
C      1  0.5326130000000  0.5989040000000  0.4455230000000 1.0
C      1  0.4655330000000  0.5978620000000  0.5607710000000 1.0
C      1  0.4065540000000  0.5570010000000  0.4663820000000 1.0
C      1  0.4387100000000  0.5328530000000  0.3988060000000 1.0
C      1  0.4672450000000  0.5947400000000  0.4368870000000 1.0
C      1  0.6010090000000  0.5606220000000  0.5339640000000 1.0
C      1  0.5982750000000  0.4440510000000  0.4673020000000 1.0
C      1  0.4068830000000  0.4431840000000  0.5327550000000 1.0
C      1  0.5631260000000  0.5306840000000  0.5940030000000 1.0
C      1  0.5555260000000  0.4666720000000  0.4016850000000 1.0
C      1  0.4367910000000  0.4695990000000  0.5998890000000 1.0
C      1  0.5307860000000  0.5921300000000  0.5591810000000 1.0
C      1  0.5316630000000  0.4011530000000  0.4439140000000 1.0
C      1  0.4675020000000  0.4108170000000  0.5671800000000 1.0
C      1  0.4062980000000  0.4836500000000  0.4660040000000 1.0
C      1  0.4850750000000  0.4776230000000  0.4107470000000 1.0
C      1  0.4650670000000  0.4086140000000  0.4842110000000 1.0
C      1  0.5922020000000  0.4840570000000  0.5338860000000 1.0
C      1  0.5839710000000  0.5140670000000  0.4833890000000 1.0
C      1  0.4091990000000  0.5154140000000  0.5319410000000 1.0
C      1  0.5148960000000  0.4655210000000  0.5909400000000 1.0
C      1  0.5130740000000  0.5232700000000  0.4127170000000 1.0
C      1  0.4889980000000  0.5184250000000  0.5829570000000 1.0
C      1  0.5241970000000  0.4088760000000  0.5139710000000 1.0
C      1  0.5162430000000  0.5851990000000  0.4876440000000 1.0
C      1  0.4654140000000  0.5903090000000  0.5148230000000 1.0
C      1  0.4130540000000  0.5114230000000  0.4776880000000 1.0
C      1  0.4844290000000  0.5323630000000  0.4077090000000 1.0
C      1  0.4648560000000  0.5914470000000  0.4834270000000 1.0
C      1  0.5917340000000  0.5151280000000  0.5342390000000 1.0
C      1  0.5839430000000  0.4855480000000  0.4831960000000 1.0
C      1  0.4145680000000  0.4875000000000  0.5205030000000 1.0
C      1  0.5158750000000  0.5298400000000  0.5915750000000 1.0
C      1  0.5136700000000  0.4812950000000  0.4133690000000 1.0
C      1  0.4830840000000  0.4631530000000  0.5898850000000 1.0
C      1  0.5225060000000  0.5887050000000  0.5155260000000 1.0
C      1  0.5163360000000  0.4141260000000  0.4865160000000 1.0
C      1  0.4660270000000  0.4107180000000  0.5162780000000 1.0
C      1  0.4245130000000  0.5735170000000  0.4230440000000 1.0
C      1  0.5734270000000  0.4257140000000  0.4258620000000 1.0
C      1  0.4218890000000  0.4284370000000  0.5778090000000 1.0
C      1  0.5766310000000  0.4236370000000  0.5734880000000 1.0
C      1  0.5743050000000  0.5750880000000  0.4277360000000 1.0
C      1  0.4244450000000  0.5740090000000  0.5746260000000 1.0
C      1  0.5749130000000  0.5744170000000  0.5748800000000 1.0
C      1  0.4253430000000  0.4242730000000  0.4238260000000 1.0
END
