TITL C-862502-1143-709 0.0866131596824517 125000 -165.972100337295 0 0 34 (S4) n - 1
REM
REM in /home/nfs/bkarasulu/CARBON/AIRSS/Generating-Clusters/TERSOFF/Higher-Symm/FIRE-HFTN
REM
REM
REM
REM
REM
REM ./C.cell (b20cbc046b6831c77cfcea5457e17084)
REM AIRSS Version 0.9.1 bugfix July 2018 build 013d7b7c2542+ Fri, 06 Jul 2018 19:26:36 +0100
REM compiler GCC version 9.2.1 20190827 (Red Hat 9.2.1-1)
REM options -cpp -mtune=generic -march=x86-64 -g -O0 -fpre-include=/usr/include/finclude/math-vector-fortran.h
REM seed 1825565120 -1553013072 -358843498 -772667486 -1751074210 -310614897 850251264 1546692878 -905116410 1138040008 -416890751 139209119 -852588507 939572736 -691262122 -766682453 -2050656289 -1773059020 540049235 1955965839 -606536632 -1892983284 -1250404488 693561275 -636240420 118872038 -2036967340 -269384333 538768947 -1204981577 -326982076 842925051 -440266360
REM
CELL 1.54180   50.00000   50.00000   50.00000   90.00000   90.00000   90.00000
LATT -1
SFAC C  
C      1  0.4725180000000  0.4872080000000  0.4377150000000 1.0
C      1  0.5274820000000  0.4380110000000  0.5112670000000 1.0
C      1  0.4725180000000  0.5115630000000  0.5604640000000 1.0
C      1  0.5274820000000  0.5607590000000  0.4869120000000 1.0
C      1  0.4851720000000  0.4984430000000  0.4781280000000 1.0
C      1  0.5148280000000  0.4784240000000  0.5000320000000 1.0
C      1  0.4851720000000  0.5003270000000  0.5200510000000 1.0
C      1  0.5148280000000  0.5203470000000  0.4981470000000 1.0
C      1  0.4596060000000  0.5593990000000  0.4700970000000 1.0
C      1  0.5403940000000  0.4703930000000  0.4390760000000 1.0
C      1  0.4596060000000  0.4393720000000  0.5280820000000 1.0
C      1  0.5403940000000  0.5283780000000  0.5591030000000 1.0
C      1  0.5010000000000  0.4390890000000  0.4953370000000 1.0
C      1  0.4990000000000  0.4956330000000  0.5593860000000 1.0
C      1  0.5010000000000  0.5596820000000  0.5028420000000 1.0
C      1  0.4990000000000  0.5031380000000  0.4387930000000 1.0
C      1  0.5334350000000  0.5391210000000  0.4656540000000 1.0
C      1  0.4665660000000  0.4659490000000  0.4593540000000 1.0
C      1  0.5334350000000  0.4596490000000  0.5325250000000 1.0
C      1  0.4665650000000  0.5328210000000  0.5388250000000 1.0
C      1  0.4495620000000  0.4763560000000  0.4820230000000 1.0
C      1  0.5504380000000  0.4823190000000  0.5221190000000 1.0
C      1  0.4495620000000  0.5224140000000  0.5161560000000 1.0
C      1  0.5504380000000  0.5164510000000  0.4760600000000 1.0
C      1  0.4994680000000  0.4656810000000  0.4733610000000 1.0
C      1  0.5005320000000  0.4736570000000  0.5327930000000 1.0
C      1  0.4994680000000  0.5330890000000  0.5248180000000 1.0
C      1  0.5005320000000  0.5251130000000  0.4653860000000 1.0
C      1  0.5145290000000  0.5199660000000  0.5492020000000 1.0
C      1  0.4854710000000  0.5494980000000  0.4785090000000 1.0
C      1  0.5145290000000  0.4788040000000  0.4489770000000 1.0
C      1  0.4854710000000  0.4492730000000  0.5196700000000 1.0
C      1  0.5386690000000  0.4993850000000  0.4990900000000 1.0
C      1  0.4613310000000  0.4993850000000  0.4990900000000 1.0
END
