TITL C-862503-991-111 15.2914983132987 125000 -44.905831788025 0 0 12 (C2) n - 1
REM
REM in /home/nfs/bkarasulu/CARBON/AIRSS/Generating-Clusters/TERSOFF/Higher-Symm/FIRE-HFTN
REM
REM
REM
REM
REM
REM ./C.cell (b20cbc046b6831c77cfcea5457e17084)
REM AIRSS Version 0.9.1 bugfix July 2018 build 013d7b7c2542+ Fri, 06 Jul 2018 19:26:36 +0100
REM compiler GCC version 9.2.1 20190827 (Red Hat 9.2.1-1)
REM options -cpp -mtune=generic -march=x86-64 -g -O0 -fpre-include=/usr/include/finclude/math-vector-fortran.h
REM seed -729844217 -409145902 1543893021 1848900001 187566981 1425184401 80449526 -516122631 1829346403 -1485742602 -575153892 233391927 -30301406 -102450310 -87872734 2094194032 379053663 -423767275 -1914509333 2140979443 1298154350 -1380013993 -1903518420 218826907 -570866382 1117431124 -1358250533 946295503 -1126377488 337814896 1471934928 1964228874 -1467268367
REM
CELL 1.54180   50.00000   50.00000   50.00000   90.00000   90.00000   90.00000
LATT -1
SFAC C  
C      1  0.4638510000000  0.5124880000000  0.4710700000000 1.0
C      1  0.4906530000000  0.4824510000000  0.4830480000000 1.0
C      1  0.4448780000000  0.4801460000000  0.5060540000000 1.0
C      1  0.4902790000000  0.4977200000000  0.5221720000000 1.0
C      1  0.4634770000000  0.5277570000000  0.5101940000000 1.0
C      1  0.5166870000000  0.5092640000000  0.5195070000000 1.0
C      1  0.5624700000000  0.4866390000000  0.5148310000000 1.0
C      1  0.5170670000000  0.4764760000000  0.4932630000000 1.0
C      1  0.5438510000000  0.4968800000000  0.4681580000000 1.0
C      1  0.5434710000000  0.5296690000000  0.4944020000000 1.0
C      1  0.4678450000000  0.4979540000000  0.4993230000000 1.0
C      1  0.5394940000000  0.4983650000000  0.4998480000000 1.0
END
