TITL C-862500-986-1054 0.0512299330803423 125000 -562.828306652576 0 0 100 (C1) n - 1
REM
REM in /home/nfs/bkarasulu/CARBON/AIRSS/Generating-Clusters/TERSOFF/Higher-Symm/FIRE-HFTN
REM
REM
REM
REM
REM
REM ./C.cell (b20cbc046b6831c77cfcea5457e17084)
REM AIRSS Version 0.9.1 bugfix July 2018 build 013d7b7c2542+ Fri, 06 Jul 2018 19:26:36 +0100
REM compiler GCC version 9.2.1 20190827 (Red Hat 9.2.1-1)
REM options -cpp -mtune=generic -march=x86-64 -g -O0 -fpre-include=/usr/include/finclude/math-vector-fortran.h
REM seed 2045616132 -932997534 1418985582 963331566 -1284197941 1553952441 1244676817 248142709 -872574648 1542315857 840864487 -846435971 -1255268513 -1570476998 -1653420853 1701090628 -1969350450 -872469761 -35988411 1424188851 1145865784 -1568379540 -880631465 305285658 -1897800516 -87750705 -1857861603 -2012188959 1023100819 -420006238 1114748308 746873203 -1631294671
REM
CELL 1.54180   50.00000   50.00000   50.00000   90.00000   90.00000   90.00000
LATT -1
SFAC C  
C      1  0.4632480000000  0.4249770000000  0.5163100000000 1.0
C      1  0.4627890000000  0.4243200000000  0.4834710000000 1.0
C      1  0.4658370000000  0.4807920000000  0.4821690000000 1.0
C      1  0.4685150000000  0.4805970000000  0.5177600000000 1.0
C      1  0.5564380000000  0.4964530000000  0.5750620000000 1.0
C      1  0.5562230000000  0.4965890000000  0.4253910000000 1.0
C      1  0.5479100000000  0.4744600000000  0.5566050000000 1.0
C      1  0.5475610000000  0.4744710000000  0.4437580000000 1.0
C      1  0.5685490000000  0.5654190000000  0.5148400000000 1.0
C      1  0.5679430000000  0.5660720000000  0.4849410000000 1.0
C      1  0.5201550000000  0.5601610000000  0.4290750000000 1.0
C      1  0.5209720000000  0.5602440000000  0.5713280000000 1.0
C      1  0.4682740000000  0.5249960000000  0.5361180000000 1.0
C      1  0.4672660000000  0.5246000000000  0.4635900000000 1.0
C      1  0.4505400000000  0.4462790000000  0.5337380000000 1.0
C      1  0.4502490000000  0.4455210000000  0.4657970000000 1.0
C      1  0.5736020000000  0.5178710000000  0.5566100000000 1.0
C      1  0.5731420000000  0.5180670000000  0.4439400000000 1.0
C      1  0.5006830000000  0.5259120000000  0.5355690000000 1.0
C      1  0.4999310000000  0.5257720000000  0.4649690000000 1.0
C      1  0.4538210000000  0.5093260000000  0.4841350000000 1.0
C      1  0.4557480000000  0.5090380000000  0.5155200000000 1.0
C      1  0.5000690000000  0.4771490000000  0.5150400000000 1.0
C      1  0.4969620000000  0.4772700000000  0.4848990000000 1.0
C      1  0.4698170000000  0.5741280000000  0.4694970000000 1.0
C      1  0.4705810000000  0.5743300000000  0.5312490000000 1.0
C      1  0.5102900000000  0.4961990000000  0.5359920000000 1.0
C      1  0.5092830000000  0.4959910000000  0.4649270000000 1.0
C      1  0.4176780000000  0.4872110000000  0.4644520000000 1.0
C      1  0.4180920000000  0.4879000000000  0.5345550000000 1.0
C      1  0.5225240000000  0.4244210000000  0.4846270000000 1.0
C      1  0.5233020000000  0.4231470000000  0.5158500000000 1.0
C      1  0.4990790000000  0.3888600000000  0.5145800000000 1.0
C      1  0.4984190000000  0.3880000000000  0.4859470000000 1.0
C      1  0.4240270000000  0.4585920000000  0.4709750000000 1.0
C      1  0.4243400000000  0.4591940000000  0.5285890000000 1.0
C      1  0.4719960000000  0.5607480000000  0.4427730000000 1.0
C      1  0.4728430000000  0.5606850000000  0.5577560000000 1.0
C      1  0.4983570000000  0.5157370000000  0.5896570000000 1.0
C      1  0.4983180000000  0.5157610000000  0.4106370000000 1.0
C      1  0.4705940000000  0.4649100000000  0.5501710000000 1.0
C      1  0.4702850000000  0.4649060000000  0.4499010000000 1.0
C      1  0.5181080000000  0.5438500000000  0.5153640000000 1.0
C      1  0.5176030000000  0.5440190000000  0.4851850000000 1.0
C      1  0.4997970000000  0.4769040000000  0.5570190000000 1.0
C      1  0.4997200000000  0.4766990000000  0.4430360000000 1.0
C      1  0.5948250000000  0.5461440000000  0.5173710000000 1.0
C      1  0.5939740000000  0.5464270000000  0.4832360000000 1.0
C      1  0.5459620000000  0.4333900000000  0.4700890000000 1.0
C      1  0.5459990000000  0.4334850000000  0.5304690000000 1.0
C      1  0.5559380000000  0.4797570000000  0.5291390000000 1.0
C      1  0.5556520000000  0.4797640000000  0.4712650000000 1.0
C      1  0.5045620000000  0.4850460000000  0.5838510000000 1.0
C      1  0.5047360000000  0.4851260000000  0.4164190000000 1.0
C      1  0.4956080000000  0.5419850000000  0.4351830000000 1.0
C      1  0.4963800000000  0.5420510000000  0.5651610000000 1.0
C      1  0.5425300000000  0.5585750000000  0.4717650000000 1.0
C      1  0.5433520000000  0.5581690000000  0.5284950000000 1.0
C      1  0.5377500000000  0.5359010000000  0.5689910000000 1.0
C      1  0.5374120000000  0.5361940000000  0.4313460000000 1.0
C      1  0.4523770000000  0.5181810000000  0.4372970000000 1.0
C      1  0.4528070000000  0.5187370000000  0.5621480000000 1.0
C      1  0.5492500000000  0.5295630000000  0.5396510000000 1.0
C      1  0.5487220000000  0.5298250000000  0.4608110000000 1.0
C      1  0.5376950000000  0.4450000000000  0.5575050000000 1.0
C      1  0.5375800000000  0.4447910000000  0.4429420000000 1.0
C      1  0.4681410000000  0.5059080000000  0.5836940000000 1.0
C      1  0.4681380000000  0.5056660000000  0.4159030000000 1.0
C      1  0.5343300000000  0.5141660000000  0.5887930000000 1.0
C      1  0.5343070000000  0.5144500000000  0.4115400000000 1.0
C      1  0.4990070000000  0.4453650000000  0.4809430000000 1.0
C      1  0.5002770000000  0.4446150000000  0.5139690000000 1.0
C      1  0.5495870000000  0.5058050000000  0.4840850000000 1.0
C      1  0.5497600000000  0.5057550000000  0.5164040000000 1.0
C      1  0.4130550000000  0.5360750000000  0.4712230000000 1.0
C      1  0.4152910000000  0.5366610000000  0.5273940000000 1.0
C      1  0.5107230000000  0.4378240000000  0.5678160000000 1.0
C      1  0.5104400000000  0.4373860000000  0.4329050000000 1.0
C      1  0.5601230000000  0.4548390000000  0.5145760000000 1.0
C      1  0.5600810000000  0.4548350000000  0.4858200000000 1.0
C      1  0.4943290000000  0.5784540000000  0.5146500000000 1.0
C      1  0.4939140000000  0.5786930000000  0.4855520000000 1.0
C      1  0.4634460000000  0.4767520000000  0.4218700000000 1.0
C      1  0.4633690000000  0.4770310000000  0.5779180000000 1.0
C      1  0.5958590000000  0.5233400000000  0.5364900000000 1.0
C      1  0.5953900000000  0.5237660000000  0.4640100000000 1.0
C      1  0.4938540000000  0.4148530000000  0.5583030000000 1.0
C      1  0.4941230000000  0.4137350000000  0.4419620000000 1.0
C      1  0.4187610000000  0.5621010000000  0.5143380000000 1.0
C      1  0.4167510000000  0.5619480000000  0.4834270000000 1.0
C      1  0.4238800000000  0.5106520000000  0.5156510000000 1.0
C      1  0.4222000000000  0.5104580000000  0.4832890000000 1.0
C      1  0.4844650000000  0.4076060000000  0.4698250000000 1.0
C      1  0.4851950000000  0.4089470000000  0.5301550000000 1.0
C      1  0.5314890000000  0.5762650000000  0.4507870000000 1.0
C      1  0.5326370000000  0.5760440000000  0.5495140000000 1.0
C      1  0.4268670000000  0.5026130000000  0.5596160000000 1.0
C      1  0.4267760000000  0.5015850000000  0.4394310000000 1.0
C      1  0.4447660000000  0.5801970000000  0.5175170000000 1.0
C      1  0.4440790000000  0.5789580000000  0.4841190000000 1.0
END
