TITL C-862128-1543-628 0.0118759532442746 125000 -917.691859022524 0 0 163 (C1) n - 1
REM
REM in /home/nfs/bkarasulu/CARBON/AIRSS/Generating-Clusters/TERSOFF/Higher-Symm/FIRE-HFTN
REM
REM
REM
REM
REM
REM ./C.cell (b20cbc046b6831c77cfcea5457e17084)
REM AIRSS Version 0.9.1 bugfix July 2018 build 013d7b7c2542+ Fri, 06 Jul 2018 19:26:36 +0100
REM compiler GCC version 9.2.1 20190827 (Red Hat 9.2.1-1)
REM options -cpp -mtune=generic -march=x86-64 -g -O0 -fpre-include=/usr/include/finclude/math-vector-fortran.h
REM seed -1834848726 1961905893 -603146677 -1802154354 354300929 -2078110408 2025028897 732383594 -1522534422 -567029010 -1276388697 1910234605 193549831 1538032574 817805325 1030510694 -242931998 1600595800 -811716074 1180324481 -1906780577 1702927277 1878853701 -1877148554 1596969213 -93282398 -964192483 -1864934045 -1250478328 2128645961 640759189 -1138522306 -1229383906
REM
CELL 1.54180   50.00000   50.00000   50.00000   90.00000   90.00000   90.00000
LATT -1
SFAC C  
C      1  0.5752620000000  0.5757380000000  0.5109550000000 1.0
C      1  0.5748990000000  0.5129790000000  0.5755330000000 1.0
C      1  0.5739180000000  0.4321230000000  0.5357160000000 1.0
C      1  0.5735800000000  0.4448320000000  0.4466980000000 1.0
C      1  0.5747150000000  0.5333970000000  0.4311190000000 1.0
C      1  0.4295130000000  0.5094170000000  0.5402330000000 1.0
C      1  0.4279900000000  0.4611220000000  0.5259510000000 1.0
C      1  0.4283420000000  0.4639140000000  0.4722580000000 1.0
C      1  0.4274070000000  0.5159700000000  0.4575220000000 1.0
C      1  0.4276640000000  0.5416860000000  0.5008610000000 1.0
C      1  0.5370620000000  0.4758300000000  0.5600790000000 1.0
C      1  0.5363540000000  0.4358920000000  0.4957150000000 1.0
C      1  0.5367320000000  0.4843840000000  0.4376390000000 1.0
C      1  0.5376530000000  0.5549450000000  0.4658480000000 1.0
C      1  0.5376440000000  0.5495760000000  0.5418540000000 1.0
C      1  0.4778510000000  0.4748460000000  0.5434180000000 1.0
C      1  0.4760900000000  0.4535280000000  0.4893790000000 1.0
C      1  0.4767880000000  0.4967260000000  0.4513820000000 1.0
C      1  0.4798360000000  0.5469960000000  0.4798550000000 1.0
C      1  0.4808260000000  0.5342170000000  0.5388290000000 1.0
C      1  0.5659410000000  0.5055420000000  0.5352140000000 1.0
C      1  0.5653100000000  0.4682780000000  0.5162340000000 1.0
C      1  0.5653360000000  0.4747710000000  0.4749210000000 1.0
C      1  0.5659790000000  0.5160680000000  0.4683260000000 1.0
C      1  0.5663230000000  0.5350880000000  0.5055930000000 1.0
C      1  0.4309530000000  0.5185520000000  0.5856440000000 1.0
C      1  0.4323870000000  0.4203930000000  0.5466910000000 1.0
C      1  0.4308370000000  0.4318100000000  0.4404020000000 1.0
C      1  0.4306900000000  0.5364030000000  0.4162480000000 1.0
C      1  0.4304990000000  0.5878660000000  0.5078710000000 1.0
C      1  0.4386890000000  0.4134250000000  0.4191080000000 1.0
C      1  0.4392050000000  0.5515130000000  0.3926800000000 1.0
C      1  0.4372060000000  0.6155140000000  0.5148500000000 1.0
C      1  0.4365430000000  0.5218770000000  0.6141930000000 1.0
C      1  0.4412390000000  0.3944840000000  0.5568390000000 1.0
C      1  0.5166980000000  0.3928980000000  0.5179750000000 1.0
C      1  0.5162040000000  0.4499340000000  0.4039530000000 1.0
C      1  0.5181890000000  0.5771020000000  0.4228030000000 1.0
C      1  0.5184850000000  0.5975260000000  0.5498120000000 1.0
C      1  0.5182710000000  0.4834020000000  0.6082730000000 1.0
C      1  0.5690000000000  0.5510760000000  0.5332950000000 1.0
C      1  0.5684740000000  0.4841620000000  0.5589600000000 1.0
C      1  0.5677330000000  0.4390890000000  0.5034030000000 1.0
C      1  0.5679570000000  0.4777160000000  0.4432160000000 1.0
C      1  0.5689060000000  0.5472330000000  0.4614870000000 1.0
C      1  0.4396740000000  0.5620910000000  0.5542460000000 1.0
C      1  0.4395660000000  0.4657310000000  0.5783260000000 1.0
C      1  0.4387890000000  0.4141340000000  0.4929220000000 1.0
C      1  0.4386720000000  0.4807360000000  0.4168150000000 1.0
C      1  0.4398440000000  0.5722300000000  0.4561960000000 1.0
C      1  0.4915430000000  0.5723790000000  0.5140240000000 1.0
C      1  0.4909390000000  0.5087510000000  0.5730010000000 1.0
C      1  0.4898560000000  0.4352700000000  0.5307280000000 1.0
C      1  0.4895370000000  0.4514070000000  0.4483790000000 1.0
C      1  0.4908590000000  0.5351580000000  0.4358390000000 1.0
C      1  0.5188400000000  0.4457560000000  0.5211270000000 1.0
C      1  0.5187810000000  0.4636640000000  0.4551190000000 1.0
C      1  0.5201410000000  0.5319750000000  0.4505960000000 1.0
C      1  0.5207650000000  0.5575720000000  0.5152370000000 1.0
C      1  0.5199620000000  0.5032100000000  0.5593150000000 1.0
C      1  0.4865940000000  0.4061080000000  0.4638860000000 1.0
C      1  0.4860830000000  0.5054270000000  0.3987800000000 1.0
C      1  0.4861480000000  0.5983220000000  0.4739390000000 1.0
C      1  0.4859340000000  0.5551460000000  0.5854110000000 1.0
C      1  0.4874740000000  0.4362550000000  0.5789290000000 1.0
C      1  0.5006000000000  0.4772520000000  0.3961810000000 1.0
C      1  0.5014820000000  0.5924750000000  0.4464210000000 1.0
C      1  0.5009850000000  0.5797190000000  0.5712950000000 1.0
C      1  0.5014500000000  0.4573650000000  0.5983130000000 1.0
C      1  0.5007580000000  0.3941500000000  0.4897900000000 1.0
C      1  0.5516800000000  0.5378910000000  0.4109850000000 1.0
C      1  0.5525530000000  0.5966770000000  0.5090600000000 1.0
C      1  0.5520930000000  0.5214990000000  0.5945400000000 1.0
C      1  0.5507470000000  0.4173110000000  0.5496340000000 1.0
C      1  0.5501590000000  0.4272960000000  0.4369590000000 1.0
C      1  0.4800560000000  0.4096980000000  0.5880050000000 1.0
C      1  0.4790110000000  0.3893610000000  0.4414440000000 1.0
C      1  0.4772390000000  0.5203560000000  0.3755890000000 1.0
C      1  0.4750410000000  0.6243410000000  0.4801090000000 1.0
C      1  0.4749150000000  0.5570670000000  0.6121310000000 1.0
C      1  0.5837470000000  0.5010220000000  0.4278470000000 1.0
C      1  0.5845630000000  0.5689410000000  0.4792220000000 1.0
C      1  0.5844710000000  0.5409280000000  0.5594350000000 1.0
C      1  0.5838350000000  0.4560550000000  0.5573190000000 1.0
C      1  0.5832130000000  0.4317110000000  0.4762860000000 1.0
C      1  0.5269180000000  0.4441420000000  0.4308000000000 1.0
C      1  0.5287620000000  0.5495610000000  0.4251760000000 1.0
C      1  0.5294870000000  0.5868790000000  0.5244100000000 1.0
C      1  0.5289490000000  0.5040680000000  0.5900700000000 1.0
C      1  0.5273870000000  0.4165910000000  0.5319030000000 1.0
C      1  0.4764840000000  0.4457760000000  0.5535950000000 1.0
C      1  0.4753610000000  0.4331480000000  0.4654790000000 1.0
C      1  0.4757370000000  0.5131970000000  0.4250480000000 1.0
C      1  0.4771230000000  0.5754500000000  0.4896560000000 1.0
C      1  0.4772530000000  0.5330980000000  0.5685640000000 1.0
C      1  0.4446810000000  0.5711220000000  0.4863640000000 1.0
C      1  0.4452040000000  0.5335640000000  0.5631080000000 1.0
C      1  0.4446250000000  0.4474260000000  0.5547890000000 1.0
C      1  0.4431330000000  0.4321630000000  0.4686760000000 1.0
C      1  0.4432420000000  0.5096620000000  0.4257180000000 1.0
C      1  0.5290240000000  0.5608650000000  0.5684240000000 1.0
C      1  0.5286700000000  0.4541190000000  0.5790910000000 1.0
C      1  0.5278910000000  0.4111000000000  0.4809700000000 1.0
C      1  0.5281910000000  0.4908340000000  0.4094810000000 1.0
C      1  0.5291690000000  0.5837860000000  0.4634920000000 1.0
C      1  0.4602000000000  0.5287180000000  0.4915440000000 1.0
C      1  0.4618620000000  0.5174080000000  0.5243630000000 1.0
C      1  0.4562560000000  0.4816010000000  0.5228270000000 1.0
C      1  0.4537560000000  0.4760740000000  0.4884380000000 1.0
C      1  0.4553590000000  0.5040800000000  0.4721680000000 1.0
C      1  0.5404510000000  0.5200460000000  0.5444370000000 1.0
C      1  0.5395680000000  0.4646540000000  0.5326570000000 1.0
C      1  0.5393210000000  0.4583700000000  0.4765730000000 1.0
C      1  0.5401930000000  0.5097410000000  0.4526340000000 1.0
C      1  0.5407690000000  0.5483910000000  0.4946490000000 1.0
C      1  0.5749660000000  0.4996170000000  0.3985980000000 1.0
C      1  0.5760120000000  0.5964240000000  0.4689310000000 1.0
C      1  0.5758800000000  0.5593460000000  0.5822810000000 1.0
C      1  0.5752640000000  0.4400000000000  0.5819080000000 1.0
C      1  0.5744250000000  0.4034150000000  0.4686680000000 1.0
C      1  0.5469630000000  0.5106660000000  0.3953760000000 1.0
C      1  0.5480000000000  0.6031640000000  0.4782570000000 1.0
C      1  0.5477480000000  0.5527720000000  0.5914350000000 1.0
C      1  0.5470330000000  0.4296750000000  0.5783910000000 1.0
C      1  0.5462640000000  0.4039300000000  0.4576590000000 1.0
C      1  0.4253850000000  0.4914810000000  0.5714250000000 1.0
C      1  0.4249710000000  0.4265310000000  0.5166730000000 1.0
C      1  0.4244290000000  0.4625490000000  0.4364380000000 1.0
C      1  0.4251000000000  0.5487270000000  0.4446620000000 1.0
C      1  0.4249490000000  0.5650300000000  0.5282310000000 1.0
C      1  0.4674150000000  0.5805370000000  0.5575920000000 1.0
C      1  0.4677140000000  0.4698180000000  0.5945770000000 1.0
C      1  0.4674490000000  0.4022940000000  0.5010270000000 1.0
C      1  0.4672800000000  0.4689390000000  0.4074700000000 1.0
C      1  0.4680570000000  0.5796310000000  0.4410120000000 1.0
C      1  0.5961120000000  0.4785980000000  0.5156560000000 1.0
C      1  0.5960250000000  0.4783330000000  0.4849140000000 1.0
C      1  0.5965100000000  0.5074610000000  0.4751390000000 1.0
C      1  0.5968680000000  0.5257800000000  0.4998360000000 1.0
C      1  0.5966450000000  0.5079380000000  0.5249060000000 1.0
C      1  0.3938890000000  0.5280600000000  0.4993870000000 1.0
C      1  0.3949740000000  0.5068570000000  0.5285980000000 1.0
C      1  0.4009270000000  0.4760200000000  0.5158670000000 1.0
C      1  0.4030820000000  0.4779960000000  0.4845510000000 1.0
C      1  0.4000620000000  0.5071890000000  0.4732100000000 1.0
C      1  0.4741510000000  0.4707610000000  0.4369040000000 1.0
C      1  0.4765860000000  0.5525260000000  0.4513310000000 1.0
C      1  0.4770540000000  0.5627710000000  0.5351570000000 1.0
C      1  0.4752250000000  0.4864590000000  0.5704990000000 1.0
C      1  0.4737460000000  0.4308300000000  0.5090930000000 1.0
C      1  0.5022300000000  0.4654030000000  0.5002460000000 1.0
C      1  0.5028310000000  0.4903880000000  0.4665010000000 1.0
C      1  0.5051910000000  0.5304100000000  0.4796960000000 1.0
C      1  0.5058740000000  0.5296530000000  0.5226270000000 1.0
C      1  0.5033710000000  0.4894850000000  0.5346220000000 1.0
C      1  0.4598870000000  0.5358430000000  0.6254740000000 1.0
C      1  0.4661830000000  0.3897890000000  0.5716800000000 1.0
C      1  0.4640320000000  0.3985970000000  0.4181140000000 1.0
C      1  0.4632480000000  0.5459630000000  0.3766590000000 1.0
C      1  0.4601800000000  0.6307230000000  0.5044300000000 1.0
C      1  0.5588820000000  0.5000810000000  0.5000770000000 1.0
C      1  0.4281940000000  0.5053740000000  0.5040190000000 1.0
C      1  0.5073300000000  0.5011080000000  0.5006480000000 1.0
END
