TITL C-862500-986-172 -13.6233633029378 125000 -624.696828303053 0 0 120 (C5) n - 1
REM
REM in /home/nfs/bkarasulu/CARBON/AIRSS/Generating-Clusters/TERSOFF/Higher-Symm/FIRE-HFTN
REM
REM
REM
REM
REM
REM ./C.cell (b20cbc046b6831c77cfcea5457e17084)
REM AIRSS Version 0.9.1 bugfix July 2018 build 013d7b7c2542+ Fri, 06 Jul 2018 19:26:36 +0100
REM compiler GCC version 9.2.1 20190827 (Red Hat 9.2.1-1)
REM options -cpp -mtune=generic -march=x86-64 -g -O0 -fpre-include=/usr/include/finclude/math-vector-fortran.h
REM seed 1247896343 -1020684078 -320509414 -804572813 1556126405 605878551 1091493323 -2002422030 -1144694405 -1799946698 1190096925 -1803257957 -1414849652 845341924 -846846198 1055580370 962930314 -280639412 -1463237008 -460580208 -2042827246 -1654355651 -2061049924 -711448549 306232785 89349834 -1678501762 381599669 -731773804 1223572177 1552175806 -1690615160 -2030982481
REM
CELL 1.54180   50.00000   50.00000   50.00000   90.00000   90.00000   90.00000
LATT -1
SFAC C  
C      1  0.4549210000000  0.4684280000000  0.5263750000000 1.0
C      1  0.4549210000000  0.5153270000000  0.5381770000000 1.0
C      1  0.4549210000000  0.5410440000000  0.4972210000000 1.0
C      1  0.4549200000000  0.5100400000000  0.4601060000000 1.0
C      1  0.4549200000000  0.4651600000000  0.4781240000000 1.0
C      1  0.5430530000000  0.5238970000000  0.5638540000000 1.0
C      1  0.5430520000000  0.5681140000000  0.4970040000000 1.0
C      1  0.5430520000000  0.5181990000000  0.4342940000000 1.0
C      1  0.5430520000000  0.4431340000000  0.4623870000000 1.0
C      1  0.5430530000000  0.4466560000000  0.5424590000000 1.0
C      1  0.5081460000000  0.4894460000000  0.5883630000000 1.0
C      1  0.5081450000000  0.5807770000000  0.5373440000000 1.0
C      1  0.5081440000000  0.5604770000000  0.4347160000000 1.0
C      1  0.5081440000000  0.4566000000000  0.4223090000000 1.0
C      1  0.5081450000000  0.4127000000000  0.5172680000000 1.0
C      1  0.6224770000000  0.4936700000000  0.5262910000000 1.0
C      1  0.6224770000000  0.5230500000000  0.5141440000000 1.0
C      1  0.6224760000000  0.5205760000000  0.4824480000000 1.0
C      1  0.6224760000000  0.4896670000000  0.4750070000000 1.0
C      1  0.6224770000000  0.4730380000000  0.5021030000000 1.0
C      1  0.5890580000000  0.4891790000000  0.4739220000000 1.0
C      1  0.5890580000000  0.4718550000000  0.5022330000000 1.0
C      1  0.5890590000000  0.4934270000000  0.5274570000000 1.0
C      1  0.5890580000000  0.5240830000000  0.5147350000000 1.0
C      1  0.5890580000000  0.5214570000000  0.4816490000000 1.0
C      1  0.5193020000000  0.5266940000000  0.4931920000000 1.0
C      1  0.5193020000000  0.5017740000000  0.4725090000000 1.0
C      1  0.5193020000000  0.4744020000000  0.4898170000000 1.0
C      1  0.5193030000000  0.4824060000000  0.5211980000000 1.0
C      1  0.5193030000000  0.5147240000000  0.5232830000000 1.0
C      1  0.5109810000000  0.5505350000000  0.5688830000000 1.0
C      1  0.5109800000000  0.5811280000000  0.4732240000000 1.0
C      1  0.5109790000000  0.4996050000000  0.4145680000000 1.0
C      1  0.5109800000000  0.4186270000000  0.4739760000000 1.0
C      1  0.5109810000000  0.4501050000000  0.5693480000000 1.0
C      1  0.4373580000000  0.4684110000000  0.4330570000000 1.0
C      1  0.4373590000000  0.4265710000000  0.5093570000000 1.0
C      1  0.4373600000000  0.4862070000000  0.5727270000000 1.0
C      1  0.4373590000000  0.5649040000000  0.5355920000000 1.0
C      1  0.4373580000000  0.5539060000000  0.4492710000000 1.0
C      1  0.5261450000000  0.5411560000000  0.4493860000000 1.0
C      1  0.5261450000000  0.4645810000000  0.4452180000000 1.0
C      1  0.5261460000000  0.4369540000000  0.5167560000000 1.0
C      1  0.5261470000000  0.4964540000000  0.5651380000000 1.0
C      1  0.5261460000000  0.5608540000000  0.5235010000000 1.0
C      1  0.4778390000000  0.5084040000000  0.5220660000000 1.0
C      1  0.4778390000000  0.5235830000000  0.4988260000000 1.0
C      1  0.4778380000000  0.5061700000000  0.4772090000000 1.0
C      1  0.4778390000000  0.4802310000000  0.4870890000000 1.0
C      1  0.4778390000000  0.4816110000000  0.5148120000000 1.0
C      1  0.5465170000000  0.5505940000000  0.4719360000000 1.0
C      1  0.5465170000000  0.4889440000000  0.4432100000000 1.0
C      1  0.5465180000000  0.4425740000000  0.4929650000000 1.0
C      1  0.5465180000000  0.4755650000000  0.5524420000000 1.0
C      1  0.5465180000000  0.5423250000000  0.5394450000000 1.0
C      1  0.4095230000000  0.5060990000000  0.4711500000000 1.0
C      1  0.4095230000000  0.4744460000000  0.4852850000000 1.0
C      1  0.4095230000000  0.4781080000000  0.5197570000000 1.0
C      1  0.4095230000000  0.5120240000000  0.5269270000000 1.0
C      1  0.4095230000000  0.5293230000000  0.4968860000000 1.0
C      1  0.4756060000000  0.4439740000000  0.5371620000000 1.0
C      1  0.4756070000000  0.5180300000000  0.5647680000000 1.0
C      1  0.4756060000000  0.5671690000000  0.5028670000000 1.0
C      1  0.4756050000000  0.5234830000000  0.4370040000000 1.0
C      1  0.4756050000000  0.4473440000000  0.4582000000000 1.0
C      1  0.4199130000000  0.4540110000000  0.5445180000000 1.0
C      1  0.4199130000000  0.5281270000000  0.5574950000000 1.0
C      1  0.4199120000000  0.5633720000000  0.4910170000000 1.0
C      1  0.4199120000000  0.5110390000000  0.4369550000000 1.0
C      1  0.4199120000000  0.4434500000000  0.4700200000000 1.0
C      1  0.4578390000000  0.5833440000000  0.5253860000000 1.0
C      1  0.4578380000000  0.5498970000000  0.4285800000000 1.0
C      1  0.4578380000000  0.4474940000000  0.4304750000000 1.0
C      1  0.4578390000000  0.4176530000000  0.5284520000000 1.0
C      1  0.4578400000000  0.5016120000000  0.5871090000000 1.0
C      1  0.5032980000000  0.5539600000000  0.4855400000000 1.0
C      1  0.5032980000000  0.5029220000000  0.4442130000000 1.0
C      1  0.5032980000000  0.4478460000000  0.4799820000000 1.0
C      1  0.5032990000000  0.4648450000000  0.5434150000000 1.0
C      1  0.5032990000000  0.5304270000000  0.5468500000000 1.0
C      1  0.4507730000000  0.5423060000000  0.5697550000000 1.0
C      1  0.4507720000000  0.5794140000000  0.4813210000000 1.0
C      1  0.4507720000000  0.5067750000000  0.4187010000000 1.0
C      1  0.4507720000000  0.4247730000000  0.4684340000000 1.0
C      1  0.4507730000000  0.4467320000000  0.5617910000000 1.0
C      1  0.5220980000000  0.4093290000000  0.4488900000000 1.0
C      1  0.5221000000000  0.4233730000000  0.5704390000000 1.0
C      1  0.5221000000000  0.5433130000000  0.5946430000000 1.0
C      1  0.5220990000000  0.6033960000000  0.4880530000000 1.0
C      1  0.5220980000000  0.5205890000000  0.3979730000000 1.0
C      1  0.5741950000000  0.5463770000000  0.5270120000000 1.0
C      1  0.5741940000000  0.5400220000000  0.4642400000000 1.0
C      1  0.5741940000000  0.4783580000000  0.4508860000000 1.0
C      1  0.5741950000000  0.4466030000000  0.5054050000000 1.0
C      1  0.5741950000000  0.4886410000000  0.5524530000000 1.0
C      1  0.4414960000000  0.4822590000000  0.4584920000000 1.0
C      1  0.4414960000000  0.4550410000000  0.5040460000000 1.0
C      1  0.4414960000000  0.4899540000000  0.5440090000000 1.0
C      1  0.4414960000000  0.5387500000000  0.5231540000000 1.0
C      1  0.4414960000000  0.5339940000000  0.4703020000000 1.0
C      1  0.4940580000000  0.5746580000000  0.5638950000000 1.0
C      1  0.4940560000000  0.5838380000000  0.4487410000000 1.0
C      1  0.4940560000000  0.4771570000000  0.4044250000000 1.0
C      1  0.4940570000000  0.4020440000000  0.4921910000000 1.0
C      1  0.4940580000000  0.4623030000000  0.5907480000000 1.0
C      1  0.4641260000000  0.5702020000000  0.5675050000000 1.0
C      1  0.4641250000000  0.5858940000000  0.4540950000000 1.0
C      1  0.4641250000000  0.4828840000000  0.4041240000000 1.0
C      1  0.4641260000000  0.4035270000000  0.4866520000000 1.0
C      1  0.4641270000000  0.4574930000000  0.5876260000000 1.0
C      1  0.5701190000000  0.5122380000000  0.5699080000000 1.0
C      1  0.5701190000000  0.5702690000000  0.5099640000000 1.0
C      1  0.5701180000000  0.5311910000000  0.4362490000000 1.0
C      1  0.5701180000000  0.4490090000000  0.4506350000000 1.0
C      1  0.5701190000000  0.4372950000000  0.5332410000000 1.0
C      1  0.4811610000000  0.5456340000000  0.4632390000000 1.0
C      1  0.4811610000000  0.4791390000000  0.4452400000000 1.0
C      1  0.4811620000000  0.4414730000000  0.5029180000000 1.0
C      1  0.4811620000000  0.4846890000000  0.5565640000000 1.0
C      1  0.4811620000000  0.5490640000000  0.5320410000000 1.0
END
