TITL C-862128-1543-160 -0.00281225729689986 125000 -1105.13930433571 0 0 189 (C1) n - 1
REM
REM in /home/nfs/bkarasulu/CARBON/AIRSS/Generating-Clusters/TERSOFF/Higher-Symm/FIRE-HFTN
REM
REM
REM
REM
REM
REM ./C.cell (b20cbc046b6831c77cfcea5457e17084)
REM AIRSS Version 0.9.1 bugfix July 2018 build 013d7b7c2542+ Fri, 06 Jul 2018 19:26:36 +0100
REM compiler GCC version 9.2.1 20190827 (Red Hat 9.2.1-1)
REM options -cpp -mtune=generic -march=x86-64 -g -O0 -fpre-include=/usr/include/finclude/math-vector-fortran.h
REM seed -158937597 1874285738 253032935 1289024109 33185382 1986197741 487697596 1175012670 -1358882425 -1932121144 -536597741 -1392011672 -1494437307 1770642994 -2142316887 703742640 152563817 1811425130 1869138286 -1392521009 1435099011 -54949093 -808258120 437839243 -1036163982 -1744858586 1160746444 626507309 1973483949 -186243138 -1623443159 -1114771672 755125288
REM
CELL 1.54180   50.00000   50.00000   50.00000   90.00000   90.00000   90.00000
LATT -1
SFAC C  
C      1  0.4529390000000  0.5388360000000  0.5460040000000 1.0
C      1  0.4815040000000  0.5394840000000  0.4451070000000 1.0
C      1  0.5639840000000  0.5405870000000  0.5154010000000 1.0
C      1  0.5254940000000  0.6125570000000  0.4987500000000 1.0
C      1  0.4828870000000  0.6174020000000  0.5338520000000 1.0
C      1  0.4939520000000  0.6162000000000  0.5032940000000 1.0
C      1  0.4062390000000  0.5211300000000  0.4489700000000 1.0
C      1  0.5903830000000  0.5194710000000  0.4440900000000 1.0
C      1  0.5020970000000  0.5196050000000  0.6052080000000 1.0
C      1  0.4307080000000  0.4084740000000  0.5565580000000 1.0
C      1  0.4843380000000  0.4093260000000  0.4123580000000 1.0
C      1  0.5848440000000  0.4094740000000  0.5319200000000 1.0
C      1  0.4901510000000  0.5140750000000  0.4335310000000 1.0
C      1  0.5662070000000  0.5139820000000  0.5261550000000 1.0
C      1  0.4428080000000  0.5121930000000  0.5429310000000 1.0
C      1  0.4687030000000  0.4369770000000  0.5517930000000 1.0
C      1  0.4713120000000  0.4380080000000  0.4478300000000 1.0
C      1  0.5613790000000  0.4375250000000  0.5013800000000 1.0
C      1  0.4126950000000  0.4672520000000  0.5150420000000 1.0
C      1  0.5301820000000  0.4659600000000  0.4171960000000 1.0
C      1  0.5560890000000  0.4676810000000  0.5674560000000 1.0
C      1  0.5677430000000  0.4016180000000  0.4421210000000 1.0
C      1  0.5164540000000  0.4027990000000  0.5876540000000 1.0
C      1  0.4156230000000  0.4032820000000  0.4693290000000 1.0
C      1  0.4827800000000  0.4907770000000  0.4529220000000 1.0
C      1  0.5525230000000  0.4913430000000  0.5086120000000 1.0
C      1  0.4659360000000  0.4911050000000  0.5391900000000 1.0
C      1  0.4828290000000  0.4196770000000  0.4665960000000 1.0
C      1  0.5390240000000  0.4196000000000  0.5020850000000 1.0
C      1  0.4794050000000  0.4192490000000  0.5318970000000 1.0
C      1  0.4375570000000  0.5855220000000  0.5570280000000 1.0
C      1  0.4839010000000  0.5831730000000  0.4143840000000 1.0
C      1  0.5729290000000  0.5866830000000  0.5241920000000 1.0
C      1  0.6087360000000  0.5334200000000  0.4949520000000 1.0
C      1  0.4487970000000  0.5321020000000  0.5956580000000 1.0
C      1  0.4434720000000  0.5319640000000  0.4085020000000 1.0
C      1  0.5646660000000  0.5173540000000  0.3968720000000 1.0
C      1  0.5556580000000  0.5193650000000  0.6065530000000 1.0
C      1  0.3783360000000  0.5203380000000  0.4950850000000 1.0
C      1  0.4608360000000  0.3933840000000  0.4908630000000 1.0
C      1  0.5264580000000  0.3919970000000  0.4704350000000 1.0
C      1  0.5134830000000  0.3922890000000  0.5379280000000 1.0
C      1  0.4356890000000  0.4992340000000  0.6026990000000 1.0
C      1  0.4421830000000  0.4991910000000  0.3933790000000 1.0
C      1  0.6209600000000  0.5005470000000  0.5034910000000 1.0
C      1  0.5865610000000  0.4226310000000  0.5057000000000 1.0
C      1  0.4524370000000  0.4216750000000  0.5713120000000 1.0
C      1  0.4617120000000  0.4236430000000  0.4244350000000 1.0
C      1  0.5037190000000  0.4330660000000  0.5202930000000 1.0
C      1  0.4815490000000  0.4343070000000  0.4928310000000 1.0
C      1  0.5168560000000  0.4332480000000  0.4870040000000 1.0
C      1  0.5377170000000  0.5590230000000  0.5258240000000 1.0
C      1  0.4573820000000  0.5557090000000  0.5194950000000 1.0
C      1  0.5058760000000  0.5599320000000  0.4572600000000 1.0
C      1  0.5530230000000  0.4715830000000  0.6090610000000 1.0
C      1  0.3785410000000  0.4721960000000  0.4912420000000 1.0
C      1  0.5676340000000  0.4708720000000  0.3990270000000 1.0
C      1  0.5634850000000  0.5426430000000  0.4139570000000 1.0
C      1  0.5407570000000  0.5439930000000  0.5957110000000 1.0
C      1  0.3942030000000  0.5458860000000  0.4869500000000 1.0
C      1  0.6020470000000  0.4602770000000  0.4748120000000 1.0
C      1  0.4708420000000  0.4599300000000  0.5998180000000 1.0
C      1  0.4261930000000  0.4600940000000  0.4247210000000 1.0
C      1  0.4629590000000  0.5366330000000  0.4746430000000 1.0
C      1  0.5407990000000  0.5363280000000  0.4759350000000 1.0
C      1  0.5004800000000  0.5372880000000  0.5428920000000 1.0
C      1  0.5620650000000  0.5176620000000  0.5554770000000 1.0
C      1  0.4200890000000  0.5178320000000  0.5242110000000 1.0
C      1  0.5161920000000  0.5157870000000  0.4194390000000 1.0
C      1  0.5424800000000  0.6006730000000  0.5236100000000 1.0
C      1  0.4532490000000  0.6009110000000  0.5332650000000 1.0
C      1  0.5021150000000  0.5989080000000  0.4314160000000 1.0
C      1  0.5175780000000  0.5417560000000  0.4046210000000 1.0
C      1  0.5740350000000  0.5447880000000  0.5637070000000 1.0
C      1  0.4080660000000  0.5452850000000  0.5312180000000 1.0
C      1  0.5167470000000  0.5027110000000  0.3785800000000 1.0
C      1  0.5962950000000  0.5048780000000  0.5761800000000 1.0
C      1  0.3851560000000  0.5041460000000  0.5454910000000 1.0
C      1  0.5356640000000  0.6028840000000  0.4713060000000 1.0
C      1  0.5003890000000  0.5990610000000  0.5519790000000 1.0
C      1  0.4691350000000  0.5997450000000  0.4826520000000 1.0
C      1  0.5024740000000  0.4443160000000  0.3942920000000 1.0
C      1  0.5906180000000  0.4466330000000  0.5563220000000 1.0
C      1  0.4056120000000  0.4452790000000  0.5500660000000 1.0
C      1  0.5711010000000  0.5001630000000  0.4346160000000 1.0
C      1  0.5204620000000  0.5011500000000  0.5927390000000 1.0
C      1  0.4079050000000  0.5026970000000  0.4710960000000 1.0
C      1  0.4676540000000  0.4857660000000  0.3873690000000 1.0
C      1  0.6123240000000  0.4883520000000  0.5287370000000 1.0
C      1  0.4181800000000  0.4868240000000  0.5826650000000 1.0
C      1  0.5564700000000  0.4633410000000  0.5177110000000 1.0
C      1  0.4563980000000  0.4627560000000  0.5397130000000 1.0
C      1  0.4882280000000  0.4633900000000  0.4436350000000 1.0
C      1  0.5133280000000  0.5101350000000  0.5448490000000 1.0
C      1  0.4534430000000  0.5101130000000  0.4871850000000 1.0
C      1  0.5355690000000  0.5090500000000  0.4650650000000 1.0
C      1  0.5599450000000  0.4125210000000  0.5473080000000 1.0
C      1  0.4295030000000  0.4120670000000  0.5273720000000 1.0
C      1  0.5106270000000  0.4116310000000  0.4254660000000 1.0
C      1  0.4828060000000  0.5373200000000  0.5165330000000 1.0
C      1  0.4962570000000  0.5404200000000  0.4860190000000 1.0
C      1  0.5242850000000  0.5377770000000  0.5022770000000 1.0
C      1  0.4176800000000  0.5590780000000  0.5563860000000 1.0
C      1  0.4918230000000  0.5561300000000  0.4003520000000 1.0
C      1  0.5886510000000  0.5609630000000  0.5424820000000 1.0
C      1  0.6026380000000  0.5093160000000  0.5464730000000 1.0
C      1  0.4077420000000  0.5080300000000  0.5656420000000 1.0
C      1  0.4878040000000  0.5065830000000  0.3877570000000 1.0
C      1  0.6173590000000  0.4857920000000  0.4754280000000 1.0
C      1  0.4622880000000  0.4850360000000  0.6131470000000 1.0
C      1  0.4194150000000  0.4856090000000  0.4108620000000 1.0
C      1  0.5394320000000  0.5568690000000  0.4127970000000 1.0
C      1  0.5558130000000  0.5605400000000  0.5782100000000 1.0
C      1  0.4047780000000  0.5613710000000  0.5082180000000 1.0
C      1  0.4557740000000  0.4507030000000  0.4928270000000 1.0
C      1  0.5293410000000  0.4506730000000  0.4655150000000 1.0
C      1  0.5157870000000  0.4510630000000  0.5412040000000 1.0
C      1  0.5154430000000  0.4596960000000  0.4424200000000 1.0
C      1  0.5428000000000  0.4600730000000  0.5413970000000 1.0
C      1  0.4422260000000  0.4593950000000  0.5162660000000 1.0
C      1  0.5329360000000  0.5707780000000  0.4360790000000 1.0
C      1  0.5431670000000  0.5756790000000  0.5573450000000 1.0
C      1  0.4313550000000  0.5713180000000  0.5046560000000 1.0
C      1  0.5802240000000  0.5470190000000  0.4929440000000 1.0
C      1  0.4644730000000  0.5446840000000  0.5712220000000 1.0
C      1  0.4545960000000  0.5473550000000  0.4338230000000 1.0
C      1  0.3975190000000  0.4762420000000  0.4687350000000 1.0
C      1  0.5793540000000  0.4741370000000  0.4263820000000 1.0
C      1  0.5238470000000  0.4751640000000  0.6035190000000 1.0
C      1  0.5361880000000  0.4080760000000  0.5295250000000 1.0
C      1  0.4568210000000  0.4082410000000  0.5153620000000 1.0
C      1  0.5076310000000  0.4076180000000  0.4550320000000 1.0
C      1  0.5770920000000  0.4542040000000  0.4494480000000 1.0
C      1  0.5052580000000  0.4550810000000  0.5902060000000 1.0
C      1  0.4180860000000  0.4557890000000  0.4595670000000 1.0
C      1  0.4490640000000  0.4445390000000  0.4101680000000 1.0
C      1  0.6027850000000  0.4458620000000  0.5024720000000 1.0
C      1  0.4467740000000  0.4450670000000  0.5866870000000 1.0
C      1  0.6023410000000  0.4608480000000  0.5290390000000 1.0
C      1  0.4235100000000  0.4596270000000  0.5734330000000 1.0
C      1  0.4724490000000  0.4585590000000  0.3962560000000 1.0
C      1  0.5546640000000  0.4629790000000  0.4686610000000 1.0
C      1  0.5002850000000  0.4636760000000  0.5610230000000 1.0
C      1  0.4460460000000  0.4636330000000  0.4696790000000 1.0
C      1  0.6030170000000  0.5365270000000  0.5303630000000 1.0
C      1  0.4209360000000  0.5350440000000  0.5744150000000 1.0
C      1  0.4739040000000  0.5334150000000  0.3947940000000 1.0
C      1  0.5430460000000  0.5979240000000  0.4407760000000 1.0
C      1  0.5285830000000  0.6004540000000  0.5632060000000 1.0
C      1  0.4374530000000  0.5971310000000  0.4923330000000 1.0
C      1  0.4518450000000  0.5837460000000  0.4552670000000 1.0
C      1  0.5632250000000  0.5844210000000  0.4750100000000 1.0
C      1  0.4858660000000  0.5814030000000  0.5702480000000 1.0
C      1  0.5609980000000  0.4288000000000  0.4339670000000 1.0
C      1  0.5266870000000  0.4300150000000  0.5855030000000 1.0
C      1  0.4118080000000  0.4302130000000  0.4798200000000 1.0
C      1  0.5064610000000  0.5922470000000  0.4605110000000 1.0
C      1  0.5150080000000  0.5835840000000  0.5272530000000 1.0
C      1  0.4706790000000  0.5828460000000  0.5135920000000 1.0
C      1  0.5051510000000  0.5083330000000  0.4723060000000 1.0
C      1  0.5256370000000  0.5094620000000  0.5163480000000 1.0
C      1  0.4713190000000  0.5088410000000  0.5122840000000 1.0
C      1  0.4743720000000  0.5139420000000  0.6094910000000 1.0
C      1  0.4171620000000  0.5149670000000  0.4231130000000 1.0
C      1  0.6080010000000  0.5144540000000  0.4661060000000 1.0
C      1  0.5314580000000  0.4335230000000  0.4137500000000 1.0
C      1  0.5592350000000  0.4348530000000  0.5706550000000 1.0
C      1  0.4087630000000  0.4340780000000  0.5155690000000 1.0
C      1  0.5107170000000  0.5447460000000  0.5950250000000 1.0
C      1  0.4092900000000  0.5472140000000  0.4610380000000 1.0
C      1  0.5784690000000  0.5452300000000  0.4403300000000 1.0
C      1  0.5812550000000  0.5909690000000  0.4966080000000 1.0
C      1  0.4584510000000  0.5869690000000  0.5774420000000 1.0
C      1  0.4577380000000  0.5886220000000  0.4267030000000 1.0
C      1  0.5528580000000  0.4899020000000  0.4795780000000 1.0
C      1  0.4917970000000  0.4904200000000  0.5529930000000 1.0
C      1  0.4574920000000  0.4900060000000  0.4662220000000 1.0
C      1  0.4940580000000  0.5528380000000  0.5710860000000 1.0
C      1  0.4384700000000  0.5559440000000  0.4600990000000 1.0
C      1  0.5649560000000  0.5545890000000  0.4667760000000 1.0
C      1  0.5337390000000  0.5090880000000  0.5657270000000 1.0
C      1  0.4254810000000  0.5102760000000  0.4946630000000 1.0
C      1  0.5408580000000  0.5069210000000  0.4366650000000 1.0
C      1  0.4402200000000  0.3882980000000  0.4713290000000 1.0
C      1  0.5535860000000  0.3866410000000  0.4623130000000 1.0
C      1  0.5065350000000  0.3873240000000  0.5654330000000 1.0
C      1  0.5689610000000  0.4935360000000  0.5889910000000 1.0
C      1  0.3875430000000  0.4930920000000  0.5154310000000 1.0
C      1  0.5415620000000  0.4921600000000  0.3958610000000 1.0
END
