TITL C-862134-6730-70 114485.540551378 125000 -417.471480456234 0 0 78 (C1) n - 1
REM
REM in /home/nfs/bkarasulu/CARBON/AIRSS/Generating-Clusters/TERSOFF/Higher-Symm/FIRE-HFTN
REM
REM
REM
REM
REM
REM ./C.cell (b20cbc046b6831c77cfcea5457e17084)
REM AIRSS Version 0.9.1 bugfix July 2018 build 013d7b7c2542+ Fri, 06 Jul 2018 19:26:36 +0100
REM compiler GCC version 9.2.1 20190827 (Red Hat 9.2.1-1)
REM options -cpp -mtune=generic -march=x86-64 -g -O0 -fpre-include=/usr/include/finclude/math-vector-fortran.h
REM seed -1836018290 1522240879 -608684249 1492407051 -482620396 624288785 971958546 -565853741 -2028329822 1477466875 -1530108496 -1315571679 -1700879761 926303363 1845632482 32140441 892679265 -1570641220 400587787 858742517 -1829121524 -558864972 -458952896 1836087030 315662064 198667290 -136699475 522842551 2019436551 -1054429274 -1308451234 -276602874 -1966006729
REM
CELL 1.54180   50.00000   50.00000   50.00000   90.00000   90.00000   90.00000
LATT -1
SFAC C  
C      1  0.5001370000000  0.5858730000000  0.5102570000000 1.0
C      1  0.5005320000000  0.4680460000000  0.4198700000000 1.0
C      1  0.5004990000000  0.4460850000000  0.5653100000000 1.0
C      1  0.4595830000000  0.4833820000000  0.5640720000000 1.0
C      1  0.4586180000000  0.5596670000000  0.4806230000000 1.0
C      1  0.4595860000000  0.4515210000000  0.4527730000000 1.0
C      1  0.4403620000000  0.5186600000000  0.4513730000000 1.0
C      1  0.4436770000000  0.4543750000000  0.5028820000000 1.0
C      1  0.4417870000000  0.5259160000000  0.5407540000000 1.0
C      1  0.5185930000000  0.4326380000000  0.5165140000000 1.0
C      1  0.5188970000000  0.5488850000000  0.5472100000000 1.0
C      1  0.5182580000000  0.5167200000000  0.4324450000000 1.0
C      1  0.4679100000000  0.5697270000000  0.5457050000000 1.0
C      1  0.4690820000000  0.5033680000000  0.4116450000000 1.0
C      1  0.4675980000000  0.4226380000000  0.5358150000000 1.0
C      1  0.4407080000000  0.5595530000000  0.5034590000000 1.0
C      1  0.4416810000000  0.4704040000000  0.4401600000000 1.0
C      1  0.4419950000000  0.4639590000000  0.5519760000000 1.0
C      1  0.5776500000000  0.4851290000000  0.5261020000000 1.0
C      1  0.5778550000000  0.5305910000000  0.4973130000000 1.0
C      1  0.5775250000000  0.4827920000000  0.4722900000000 1.0
C      1  0.4871620000000  0.4480490000000  0.4397080000000 1.0
C      1  0.4871180000000  0.4734110000000  0.5731210000000 1.0
C      1  0.4855030000000  0.5760520000000  0.4823330000000 1.0
C      1  0.5750800000000  0.5424190000000  0.5248380000000 1.0
C      1  0.5737720000000  0.5008760000000  0.4486220000000 1.0
C      1  0.5738530000000  0.4556210000000  0.5225030000000 1.0
C      1  0.5026430000000  0.5015580000000  0.5747420000000 1.0
C      1  0.4986480000000  0.5635360000000  0.4547780000000 1.0
C      1  0.5026020000000  0.4323520000000  0.4626050000000 1.0
C      1  0.4645700000000  0.4501170000000  0.4827540000000 1.0
C      1  0.4640840000000  0.5101720000000  0.5515650000000 1.0
C      1  0.4626830000000  0.5354340000000  0.4629120000000 1.0
C      1  0.4791510000000  0.5297880000000  0.5083170000000 1.0
C      1  0.4736620000000  0.4952950000000  0.4685870000000 1.0
C      1  0.4720860000000  0.4813100000000  0.5180440000000 1.0
C      1  0.4948550000000  0.5316740000000  0.4546840000000 1.0
C      1  0.4959850000000  0.4437260000000  0.4905940000000 1.0
C      1  0.4974190000000  0.5199960000000  0.5496180000000 1.0
C      1  0.4179390000000  0.4691430000000  0.4966330000000 1.0
C      1  0.4155390000000  0.5121860000000  0.5319490000000 1.0
C      1  0.4133670000000  0.5142060000000  0.4656950000000 1.0
C      1  0.4498450000000  0.4462600000000  0.5302770000000 1.0
C      1  0.4486200000000  0.5525030000000  0.5307070000000 1.0
C      1  0.4489910000000  0.4977850000000  0.4330840000000 1.0
C      1  0.5504850000000  0.4453470000000  0.5041520000000 1.0
C      1  0.5510940000000  0.5321590000000  0.5430100000000 1.0
C      1  0.5502230000000  0.5218620000000  0.4491700000000 1.0
C      1  0.5101740000000  0.4702210000000  0.4998190000000 1.0
C      1  0.5139210000000  0.5121840000000  0.5238310000000 1.0
C      1  0.5112520000000  0.5127640000000  0.4751280000000 1.0
C      1  0.5382060000000  0.5248540000000  0.5151360000000 1.0
C      1  0.5373370000000  0.5016370000000  0.4694800000000 1.0
C      1  0.5371970000000  0.4729640000000  0.5115940000000 1.0
C      1  0.5297640000000  0.4780230000000  0.5422970000000 1.0
C      1  0.5298690000000  0.5490030000000  0.4959430000000 1.0
C      1  0.5295300000000  0.4726510000000  0.4587730000000 1.0
C      1  0.5364220000000  0.4474000000000  0.4407200000000 1.0
C      1  0.5371760000000  0.4757540000000  0.5730190000000 1.0
C      1  0.5398390000000  0.5770600000000  0.4847080000000 1.0
C      1  0.5210320000000  0.4860850000000  0.4311730000000 1.0
C      1  0.5209140000000  0.4472240000000  0.5438180000000 1.0
C      1  0.5213230000000  0.5668920000000  0.5214450000000 1.0
C      1  0.4924280000000  0.5218700000000  0.4139160000000 1.0
C      1  0.4919720000000  0.4144410000000  0.5204270000000 1.0
C      1  0.4917900000000  0.5600960000000  0.5607650000000 1.0
C      1  0.4944070000000  0.4734690000000  0.4610650000000 1.0
C      1  0.4939550000000  0.4792020000000  0.5403330000000 1.0
C      1  0.4967260000000  0.5475660000000  0.4934780000000 1.0
C      1  0.5552840000000  0.4617290000000  0.4754030000000 1.0
C      1  0.5555270000000  0.4984550000000  0.5428210000000 1.0
C      1  0.5553510000000  0.5386470000000  0.4777960000000 1.0
C      1  0.4650550000000  0.5047690000000  0.4972790000000 1.0
C      1  0.5494710000000  0.4996720000000  0.4985800000000 1.0
C      1  0.5059160000000  0.4985010000000  0.5000610000000 1.0
C      1  0.4399290000000  0.5162310000000  0.4980740000000 1.0
C      1  0.4138290000000  0.4996620000000  0.4984580000000 1.0
C      1  0.5815920000000  0.4994400000000  0.4985210000000 1.0
END
