TITL C-862501-1041-1238 0.000675072001828893 125000 -516.211623778977 0 0 101 (C1) n - 1
REM
REM in /home/nfs/bkarasulu/CARBON/AIRSS/Generating-Clusters/TERSOFF/Higher-Symm/FIRE-HFTN
REM
REM
REM
REM
REM
REM ./C.cell (b20cbc046b6831c77cfcea5457e17084)
REM AIRSS Version 0.9.1 bugfix July 2018 build 013d7b7c2542+ Fri, 06 Jul 2018 19:26:36 +0100
REM compiler GCC version 9.2.1 20190827 (Red Hat 9.2.1-1)
REM options -cpp -mtune=generic -march=x86-64 -g -O0 -fpre-include=/usr/include/finclude/math-vector-fortran.h
REM seed 539892323 -1543929483 -78967464 94615473 2008468107 -329887976 -588878725 953447569 1059965759 574832592 -1797332037 -520012032 -1615207030 1920796675 -1484644906 -449625673 498798525 -412198218 -590910117 -188067483 -1023429198 -930340889 1000692737 -1392292445 -1830618806 -571986506 1482744303 1134873896 260700738 -2141404056 -940172180 -836634721 -725725406
REM
CELL 1.54180   50.00000   50.00000   50.00000   90.00000   90.00000   90.00000
LATT -1
SFAC C  
C      1  0.5929120000000  0.4911820000000  0.5261110000000 1.0
C      1  0.5205100000000  0.4907440000000  0.4033440000000 1.0
C      1  0.4068060000000  0.4894080000000  0.4769000000000 1.0
C      1  0.4770530000000  0.4893790000000  0.5971570000000 1.0
C      1  0.5954310000000  0.5074970000000  0.4781110000000 1.0
C      1  0.5256660000000  0.5135100000000  0.6017660000000 1.0
C      1  0.4046560000000  0.5071450000000  0.5241300000000 1.0
C      1  0.4744820000000  0.5126910000000  0.3967410000000 1.0
C      1  0.4466030000000  0.5057960000000  0.5242830000000 1.0
C      1  0.5211240000000  0.5048850000000  0.5609140000000 1.0
C      1  0.5536040000000  0.5065910000000  0.4748940000000 1.0
C      1  0.4728650000000  0.5093470000000  0.4385550000000 1.0
C      1  0.4502140000000  0.4921940000000  0.4693220000000 1.0
C      1  0.5285880000000  0.4923830000000  0.4444910000000 1.0
C      1  0.5462540000000  0.4927850000000  0.5296880000000 1.0
C      1  0.4750630000000  0.4971070000000  0.5535860000000 1.0
C      1  0.5091250000000  0.4276890000000  0.5503400000000 1.0
C      1  0.5546850000000  0.4219720000000  0.5107780000000 1.0
C      1  0.4893880000000  0.4340330000000  0.4539260000000 1.0
C      1  0.4455420000000  0.4196040000000  0.4926120000000 1.0
C      1  0.4962860000000  0.5787770000000  0.4488640000000 1.0
C      1  0.5502670000000  0.5765670000000  0.4990290000000 1.0
C      1  0.5058340000000  0.5788790000000  0.5510470000000 1.0
C      1  0.4496880000000  0.5763510000000  0.5021040000000 1.0
C      1  0.4178450000000  0.4658680000000  0.4939090000000 1.0
C      1  0.4983870000000  0.4692000000000  0.5873640000000 1.0
C      1  0.5831550000000  0.4667610000000  0.5098590000000 1.0
C      1  0.5011140000000  0.4712780000000  0.4178480000000 1.0
C      1  0.4182790000000  0.5316030000000  0.5073890000000 1.0
C      1  0.4933540000000  0.5362210000000  0.4139100000000 1.0
C      1  0.5809280000000  0.5318060000000  0.4942260000000 1.0
C      1  0.5061680000000  0.5357940000000  0.5867480000000 1.0
C      1  0.5630070000000  0.5284590000000  0.5441500000000 1.0
C      1  0.5467300000000  0.5277470000000  0.4309980000000 1.0
C      1  0.4332200000000  0.5284820000000  0.4567450000000 1.0
C      1  0.4527720000000  0.5284050000000  0.5703640000000 1.0
C      1  0.5651490000000  0.4660010000000  0.4558050000000 1.0
C      1  0.5506230000000  0.4751770000000  0.5749200000000 1.0
C      1  0.4348300000000  0.4676140000000  0.5466410000000 1.0
C      1  0.4469160000000  0.4750880000000  0.4249900000000 1.0
C      1  0.5395890000000  0.5534910000000  0.4554590000000 1.0
C      1  0.4587230000000  0.5526590000000  0.4639240000000 1.0
C      1  0.4615040000000  0.5517880000000  0.5442930000000 1.0
C      1  0.5379710000000  0.5491310000000  0.5361880000000 1.0
C      1  0.5481280000000  0.4524120000000  0.5530630000000 1.0
C      1  0.4634720000000  0.4465050000000  0.5407860000000 1.0
C      1  0.4470820000000  0.4502520000000  0.4469560000000 1.0
C      1  0.5362180000000  0.4448500000000  0.4611950000000 1.0
C      1  0.4882830000000  0.5125130000000  0.5248170000000 1.0
C      1  0.5289210000000  0.5113080000000  0.5146390000000 1.0
C      1  0.5119970000000  0.5124390000000  0.4673420000000 1.0
C      1  0.4693350000000  0.5107070000000  0.4832770000000 1.0
C      1  0.4915990000000  0.4738050000000  0.4714230000000 1.0
C      1  0.5397850000000  0.4830170000000  0.4845550000000 1.0
C      1  0.5069630000000  0.4712410000000  0.5165820000000 1.0
C      1  0.4614310000000  0.4811840000000  0.5171990000000 1.0
C      1  0.4851630000000  0.4707580000000  0.5370290000000 1.0
C      1  0.5357900000000  0.4644450000000  0.5255740000000 1.0
C      1  0.5213670000000  0.4715620000000  0.4654360000000 1.0
C      1  0.4617560000000  0.4636810000000  0.4719330000000 1.0
C      1  0.4810190000000  0.5289210000000  0.4597090000000 1.0
C      1  0.5359110000000  0.5307440000000  0.4769950000000 1.0
C      1  0.5123650000000  0.5256810000000  0.5396080000000 1.0
C      1  0.4643310000000  0.5302080000000  0.5212690000000 1.0
C      1  0.4517290000000  0.5346500000000  0.4939110000000 1.0
C      1  0.4904880000000  0.5401400000000  0.5562570000000 1.0
C      1  0.5467570000000  0.5345320000000  0.5054880000000 1.0
C      1  0.5091330000000  0.5389170000000  0.4457230000000 1.0
C      1  0.4495050000000  0.4632520000000  0.4996100000000 1.0
C      1  0.4874530000000  0.4847730000000  0.4430460000000 1.0
C      1  0.5525730000000  0.4634530000000  0.5004730000000 1.0
C      1  0.5104690000000  0.4757480000000  0.5583490000000 1.0
C      1  0.4346770000000  0.5598360000000  0.5227230000000 1.0
C      1  0.5251640000000  0.5602760000000  0.5677420000000 1.0
C      1  0.5655700000000  0.5603820000000  0.4784360000000 1.0
C      1  0.4760480000000  0.5613240000000  0.4335090000000 1.0
C      1  0.4285690000000  0.4380270000000  0.4735790000000 1.0
C      1  0.5107080000000  0.4444250000000  0.4353020000000 1.0
C      1  0.5698720000000  0.4404890000000  0.5308680000000 1.0
C      1  0.4877850000000  0.4415040000000  0.5669410000000 1.0
C      1  0.4149240000000  0.4776420000000  0.5234080000000 1.0
C      1  0.5278020000000  0.4826260000000  0.5958690000000 1.0
C      1  0.5858690000000  0.4777590000000  0.4792880000000 1.0
C      1  0.4709640000000  0.4815220000000  0.4046440000000 1.0
C      1  0.4161970000000  0.5181420000000  0.4787950000000 1.0
C      1  0.5235050000000  0.5198870000000  0.4112160000000 1.0
C      1  0.5821180000000  0.5191980000000  0.5233010000000 1.0
C      1  0.4760970000000  0.5189380000000  0.5894450000000 1.0
C      1  0.4881420000000  0.5684420000000  0.5253440000000 1.0
C      1  0.5211740000000  0.5677770000000  0.5101170000000 1.0
C      1  0.5121460000000  0.5686290000000  0.4750680000000 1.0
C      1  0.4789720000000  0.5678950000000  0.4901690000000 1.0
C      1  0.4945930000000  0.4333960000000  0.4824290000000 1.0
C      1  0.5276140000000  0.4304930000000  0.4936900000000 1.0
C      1  0.5051580000000  0.4228160000000  0.5214920000000 1.0
C      1  0.4715630000000  0.4292750000000  0.5098830000000 1.0
C      1  0.4425130000000  0.5001830000000  0.5562720000000 1.0
C      1  0.5600440000000  0.4996360000000  0.4437210000000 1.0
C      1  0.5527160000000  0.5029470000000  0.5597230000000 1.0
C      1  0.4423660000000  0.5033040000000  0.4395120000000 1.0
C      1  0.5001930000000  0.4975080000000  0.4969180000000 1.0
END
