TITL C-862503-991-184 -0.0138311949115181 125000 -766.015779107411 0 0 136 (C1) n - 1
REM
REM in /home/nfs/bkarasulu/CARBON/AIRSS/Generating-Clusters/TERSOFF/Higher-Symm/FIRE-HFTN
REM
REM
REM
REM
REM
REM ./C.cell (b20cbc046b6831c77cfcea5457e17084)
REM AIRSS Version 0.9.1 bugfix July 2018 build 013d7b7c2542+ Fri, 06 Jul 2018 19:26:36 +0100
REM compiler GCC version 9.2.1 20190827 (Red Hat 9.2.1-1)
REM options -cpp -mtune=generic -march=x86-64 -g -O0 -fpre-include=/usr/include/finclude/math-vector-fortran.h
REM seed -1374418073 580537480 211415116 -1369067212 -597533463 1795415754 -1792335724 -436130641 -1014720954 771309348 -568981182 -336054866 -905421098 1718879534 -1835464743 638785386 -1019168125 -1969595511 -1745580571 -657101922 -771116409 -1621650677 1826594033 1103275049 1285355845 2134355258 -1976879916 1190480496 1819818480 -1357018265 -2048411745 1926945393 -771531102
REM
CELL 1.54180   50.00000   50.00000   50.00000   90.00000   90.00000   90.00000
LATT -1
SFAC C  
C      1  0.4748500000000  0.4614890000000  0.4912510000000 1.0
C      1  0.4552740000000  0.5114620000000  0.4916180000000 1.0
C      1  0.4967220000000  0.5452000000000  0.4924350000000 1.0
C      1  0.5417790000000  0.5163290000000  0.4925290000000 1.0
C      1  0.5284900000000  0.4650880000000  0.4924930000000 1.0
C      1  0.4777360000000  0.4784910000000  0.4021280000000 1.0
C      1  0.4725340000000  0.5143280000000  0.4022010000000 1.0
C      1  0.5047980000000  0.5306950000000  0.4024120000000 1.0
C      1  0.5297200000000  0.5044990000000  0.4023940000000 1.0
C      1  0.5133660000000  0.4722270000000  0.4022060000000 1.0
C      1  0.4196750000000  0.5328540000000  0.4330500000000 1.0
C      1  0.5054010000000  0.5863820000000  0.4347820000000 1.0
C      1  0.5831200000000  0.5210340000000  0.4328990000000 1.0
C      1  0.5456640000000  0.4267670000000  0.4340420000000 1.0
C      1  0.4446460000000  0.4334940000000  0.4337240000000 1.0
C      1  0.4362920000000  0.4920210000000  0.4914500000000 1.0
C      1  0.4725650000000  0.5574070000000  0.4930960000000 1.0
C      1  0.5456740000000  0.5431710000000  0.4934300000000 1.0
C      1  0.5553750000000  0.4692950000000  0.4924900000000 1.0
C      1  0.4875940000000  0.4376570000000  0.4931150000000 1.0
C      1  0.5494830000000  0.5375110000000  0.5348480000000 1.0
C      1  0.5518640000000  0.4671300000000  0.5342730000000 1.0
C      1  0.4826630000000  0.4411140000000  0.5346500000000 1.0
C      1  0.4367750000000  0.4981470000000  0.5329790000000 1.0
C      1  0.4783400000000  0.5577260000000  0.5346900000000 1.0
C      1  0.4265930000000  0.5114130000000  0.5578260000000 1.0
C      1  0.4877450000000  0.5695080000000  0.5604390000000 1.0
C      1  0.5657950000000  0.5320730000000  0.5592110000000 1.0
C      1  0.5519600000000  0.4517870000000  0.5597670000000 1.0
C      1  0.4665800000000  0.4367690000000  0.5593930000000 1.0
C      1  0.5193820000000  0.6013000000000  0.5236220000000 1.0
C      1  0.6046320000000  0.5151500000000  0.5168850000000 1.0
C      1  0.5439440000000  0.4070260000000  0.5235820000000 1.0
C      1  0.4233450000000  0.4283810000000  0.5200090000000 1.0
C      1  0.4074520000000  0.5508830000000  0.5199920000000 1.0
C      1  0.4703530000000  0.5843040000000  0.4789920000000 1.0
C      1  0.5703780000000  0.5539880000000  0.4790640000000 1.0
C      1  0.5728560000000  0.4491710000000  0.4777590000000 1.0
C      1  0.4744670000000  0.4138960000000  0.4793970000000 1.0
C      1  0.4100690000000  0.4980870000000  0.4772990000000 1.0
C      1  0.5690730000000  0.4422260000000  0.4478010000000 1.0
C      1  0.4660350000000  0.4151840000000  0.4488720000000 1.0
C      1  0.4088060000000  0.5067380000000  0.4472280000000 1.0
C      1  0.4774270000000  0.5881040000000  0.4489300000000 1.0
C      1  0.5759570000000  0.5480700000000  0.4484280000000 1.0
C      1  0.5639930000000  0.5808360000000  0.4954170000000 1.0
C      1  0.5969640000000  0.4639210000000  0.4917690000000 1.0
C      1  0.4960990000000  0.3966960000000  0.4958940000000 1.0
C      1  0.3992770000000  0.4723430000000  0.4926280000000 1.0
C      1  0.4425640000000  0.5866960000000  0.4939010000000 1.0
C      1  0.5659210000000  0.5056220000000  0.4049840000000 1.0
C      1  0.5253240000000  0.4380370000000  0.4062480000000 1.0
C      1  0.4494060000000  0.4558660000000  0.4055600000000 1.0
C      1  0.4429490000000  0.5352680000000  0.4053860000000 1.0
C      1  0.5148800000000  0.5654490000000  0.4067400000000 1.0
C      1  0.4328670000000  0.4737320000000  0.4322100000000 1.0
C      1  0.4548110000000  0.5557760000000  0.4326360000000 1.0
C      1  0.5381520000000  0.5601880000000  0.4338470000000 1.0
C      1  0.5691140000000  0.4814960000000  0.4316230000000 1.0
C      1  0.5037640000000  0.4286980000000  0.4336880000000 1.0
C      1  0.4821900000000  0.4296590000000  0.5828140000000 1.0
C      1  0.4228120000000  0.4933600000000  0.5801610000000 1.0
C      1  0.4685460000000  0.5680560000000  0.5820660000000 1.0
C      1  0.5566660000000  0.5461470000000  0.5832660000000 1.0
C      1  0.5704640000000  0.4616050000000  0.5799130000000 1.0
C      1  0.5098240000000  0.4709630000000  0.5998730000000 1.0
C      1  0.4685540000000  0.4754590000000  0.5935270000000 1.0
C      1  0.4632430000000  0.5189530000000  0.5927790000000 1.0
C      1  0.5077530000000  0.5323310000000  0.6011160000000 1.0
C      1  0.5493370000000  0.5049150000000  0.5880800000000 1.0
C      1  0.5204800000000  0.5886420000000  0.4975560000000 1.0
C      1  0.5908890000000  0.5077760000000  0.4925540000000 1.0
C      1  0.5349210000000  0.4162280000000  0.4975730000000 1.0
C      1  0.4299290000000  0.4401120000000  0.4943770000000 1.0
C      1  0.4211860000000  0.5478470000000  0.4947460000000 1.0
C      1  0.5309120000000  0.5313550000000  0.4479130000000 1.0
C      1  0.5398170000000  0.4798320000000  0.4475440000000 1.0
C      1  0.4930210000000  0.4564650000000  0.4475980000000 1.0
C      1  0.4555010000000  0.4927220000000  0.4474010000000 1.0
C      1  0.4792380000000  0.5393530000000  0.4477640000000 1.0
C      1  0.5179910000000  0.4824780000000  0.4727790000000 1.0
C      1  0.4887480000000  0.4772580000000  0.4725230000000 1.0
C      1  0.4746170000000  0.5034020000000  0.4725730000000 1.0
C      1  0.4952400000000  0.5248380000000  0.4730150000000 1.0
C      1  0.5219820000000  0.5119840000000  0.4727560000000 1.0
C      1  0.5288690000000  0.5549130000000  0.5873160000000 1.0
C      1  0.5744140000000  0.4902090000000  0.5839670000000 1.0
C      1  0.5089040000000  0.4403170000000  0.5873000000000 1.0
C      1  0.4399210000000  0.4703380000000  0.5841000000000 1.0
C      1  0.4505130000000  0.5454790000000  0.5847450000000 1.0
C      1  0.4470270000000  0.4642360000000  0.4948500000000 1.0
C      1  0.4493340000000  0.5387330000000  0.4959590000000 1.0
C      1  0.5207560000000  0.5591040000000  0.4971810000000 1.0
C      1  0.5630830000000  0.4980560000000  0.4955240000000 1.0
C      1  0.5171630000000  0.4397220000000  0.4972110000000 1.0
C      1  0.4493630000000  0.5705290000000  0.5254980000000 1.0
C      1  0.5511980000000  0.5681220000000  0.5267260000000 1.0
C      1  0.5831120000000  0.4736410000000  0.5236680000000 1.0
C      1  0.4991490000000  0.4153100000000  0.5267260000000 1.0
C      1  0.4168090000000  0.4743520000000  0.5241500000000 1.0
C      1  0.4210170000000  0.4491060000000  0.5402770000000 1.0
C      1  0.4259810000000  0.5590210000000  0.5408380000000 1.0
C      1  0.5330190000000  0.5854100000000  0.5440370000000 1.0
C      1  0.5959590000000  0.4970060000000  0.5376920000000 1.0
C      1  0.5240290000000  0.4122150000000  0.5445040000000 1.0
C      1  0.4180590000000  0.4488230000000  0.4471680000000 1.0
C      1  0.4265250000000  0.5622990000000  0.4474810000000 1.0
C      1  0.5352420000000  0.5888420000000  0.4496040000000 1.0
C      1  0.5956700000000  0.4931580000000  0.4459210000000 1.0
C      1  0.5233250000000  0.4073100000000  0.4493790000000 1.0
C      1  0.4218490000000  0.5703180000000  0.4761040000000 1.0
C      1  0.5416170000000  0.5956800000000  0.4784320000000 1.0
C      1  0.6038330000000  0.4892760000000  0.4742330000000 1.0
C      1  0.5226890000000  0.3977200000000  0.4782380000000 1.0
C      1  0.4086520000000  0.4472840000000  0.4756810000000 1.0
C      1  0.5832030000000  0.5079660000000  0.5614620000000 1.0
C      1  0.5300460000000  0.4327850000000  0.5660680000000 1.0
C      1  0.4402530000000  0.4492800000000  0.5628870000000 1.0
C      1  0.4310280000000  0.5399910000000  0.5628070000000 1.0
C      1  0.5165160000000  0.5726520000000  0.5658240000000 1.0
C      1  0.4748390000000  0.4744020000000  0.4330170000000 1.0
C      1  0.4673030000000  0.5156940000000  0.4331040000000 1.0
C      1  0.5046080000000  0.5349350000000  0.4333600000000 1.0
C      1  0.5352490000000  0.5062480000000  0.4333310000000 1.0
C      1  0.5164290000000  0.4687310000000  0.4331440000000 1.0
C      1  0.5060490000000  0.5237550000000  0.5709190000000 1.0
C      1  0.5272890000000  0.5034860000000  0.5691050000000 1.0
C      1  0.5131410000000  0.4778750000000  0.5690400000000 1.0
C      1  0.4833070000000  0.4826660000000  0.5674270000000 1.0
C      1  0.4793200000000  0.5118770000000  0.5673280000000 1.0
C      1  0.5243890000000  0.4850690000000  0.5291820000000 1.0
C      1  0.4923130000000  0.4721040000000  0.5278750000000 1.0
C      1  0.4709440000000  0.4987050000000  0.5283790000000 1.0
C      1  0.4896260000000  0.5267270000000  0.5294360000000 1.0
C      1  0.5227530000000  0.5178360000000  0.5299020000000 1.0
C      1  0.4906520000000  0.5008310000000  0.6081970000000 1.0
END
