TITL C-862503-991-671 -0.106651656688959 125000 -1129.88777846692 0 0 192 (Ci) n - 1
REM
REM in /home/nfs/bkarasulu/CARBON/AIRSS/Generating-Clusters/TERSOFF/Higher-Symm/FIRE-HFTN
REM
REM
REM
REM
REM
REM ./C.cell (b20cbc046b6831c77cfcea5457e17084)
REM AIRSS Version 0.9.1 bugfix July 2018 build 013d7b7c2542+ Fri, 06 Jul 2018 19:26:36 +0100
REM compiler GCC version 9.2.1 20190827 (Red Hat 9.2.1-1)
REM options -cpp -mtune=generic -march=x86-64 -g -O0 -fpre-include=/usr/include/finclude/math-vector-fortran.h
REM seed 291199554 1208879116 1498471635 1513148002 -1273049816 972450959 -1318080306 -752948258 -1260040719 2129202582 1058858833 102233922 821882304 1717296680 -1449496797 1819308762 1006813521 2003595928 1929603952 -1219974694 1089673748 2136252731 432729800 -861501173 1515734551 1652004239 -1930681029 -24608105 -1410190741 -1761422260 808821954 149807348 1958787615
REM
CELL 1.54180   50.00000   50.00000   50.00000   90.00000   90.00000   90.00000
LATT -1
SFAC C  
C      1  0.4538980000000  0.4848160000000  0.4882080000000 1.0
C      1  0.5461020000000  0.5151840000000  0.5117920000000 1.0
C      1  0.6061370000000  0.4625830000000  0.4731690000000 1.0
C      1  0.3938630000000  0.5374170000000  0.5268310000000 1.0
C      1  0.5195620000000  0.5041350000000  0.4362760000000 1.0
C      1  0.4804380000000  0.4958650000000  0.5637240000000 1.0
C      1  0.5813870000000  0.5687590000000  0.4588680000000 1.0
C      1  0.4186130000000  0.4312410000000  0.5411320000000 1.0
C      1  0.5357940000000  0.5483910000000  0.3996910000000 1.0
C      1  0.4642060000000  0.4516090000000  0.6003090000000 1.0
C      1  0.4818600000000  0.4678230000000  0.5596220000000 1.0
C      1  0.5181400000000  0.5321770000000  0.4403780000000 1.0
C      1  0.4985550000000  0.4484790000000  0.3944950000000 1.0
C      1  0.5014450000000  0.5515210000000  0.6055050000000 1.0
C      1  0.5177150000000  0.4586600000000  0.4972560000000 1.0
C      1  0.4822850000000  0.5413400000000  0.5027440000000 1.0
C      1  0.5199230000000  0.5051220000000  0.5958520000000 1.0
C      1  0.4800770000000  0.4948780000000  0.4041480000000 1.0
C      1  0.4365640000000  0.4780890000000  0.5342680000000 1.0
C      1  0.5634360000000  0.5219110000000  0.4657320000000 1.0
C      1  0.5278020000000  0.4110580000000  0.5561370000000 1.0
C      1  0.4721980000000  0.5889420000000  0.4438630000000 1.0
C      1  0.4245090000000  0.4315180000000  0.4212870000000 1.0
C      1  0.5754910000000  0.5684820000000  0.5787130000000 1.0
C      1  0.5163300000000  0.4992890000000  0.4868240000000 1.0
C      1  0.4836700000000  0.5007110000000  0.5131760000000 1.0
C      1  0.5762100000000  0.5866910000000  0.4812270000000 1.0
C      1  0.4237900000000  0.4133090000000  0.5187730000000 1.0
C      1  0.5342690000000  0.4997100000000  0.3803220000000 1.0
C      1  0.4657310000000  0.5002900000000  0.6196780000000 1.0
C      1  0.4754870000000  0.4815990000000  0.4309570000000 1.0
C      1  0.5245130000000  0.5184010000000  0.5690430000000 1.0
C      1  0.5575960000000  0.4187370000000  0.5420530000000 1.0
C      1  0.4424040000000  0.5812630000000  0.4579470000000 1.0
C      1  0.4565380000000  0.5126910000000  0.5213280000000 1.0
C      1  0.5434620000000  0.4873090000000  0.4786720000000 1.0
C      1  0.5088500000000  0.4783760000000  0.5968610000000 1.0
C      1  0.4911500000000  0.5216240000000  0.4031390000000 1.0
C      1  0.5111970000000  0.5825940000000  0.5444820000000 1.0
C      1  0.4888030000000  0.4174060000000  0.4555180000000 1.0
C      1  0.4335500000000  0.5111240000000  0.4271910000000 1.0
C      1  0.5664500000000  0.4888760000000  0.5728090000000 1.0
C      1  0.4454130000000  0.5387670000000  0.4225790000000 1.0
C      1  0.5545870000000  0.4612330000000  0.5774210000000 1.0
C      1  0.5503700000000  0.4649070000000  0.4022540000000 1.0
C      1  0.4496300000000  0.5350930000000  0.5977460000000 1.0
C      1  0.4144100000000  0.4660920000000  0.5948490000000 1.0
C      1  0.5855900000000  0.5339080000000  0.4051510000000 1.0
C      1  0.5610690000000  0.4484860000000  0.5315180000000 1.0
C      1  0.4389310000000  0.5515140000000  0.4684820000000 1.0
C      1  0.3986690000000  0.4992580000000  0.5607150000000 1.0
C      1  0.6013310000000  0.5007420000000  0.4392850000000 1.0
C      1  0.5624630000000  0.5482850000000  0.4142740000000 1.0
C      1  0.4375370000000  0.4517150000000  0.5857260000000 1.0
C      1  0.6048240000000  0.5306970000000  0.5888850000000 1.0
C      1  0.3951760000000  0.4693030000000  0.4111150000000 1.0
C      1  0.5271900000000  0.5469580000000  0.5829970000000 1.0
C      1  0.4728100000000  0.4530420000000  0.4170030000000 1.0
C      1  0.4157770000000  0.5409270000000  0.5077050000000 1.0
C      1  0.5842230000000  0.4590730000000  0.4922950000000 1.0
C      1  0.5506240000000  0.5439230000000  0.5209050000000 1.0
C      1  0.4493760000000  0.4560770000000  0.4790950000000 1.0
C      1  0.6044950000000  0.4434670000000  0.4517460000000 1.0
C      1  0.3955050000000  0.5565330000000  0.5482540000000 1.0
C      1  0.5631970000000  0.5691980000000  0.4355250000000 1.0
C      1  0.4368030000000  0.4308020000000  0.5644750000000 1.0
C      1  0.4088850000000  0.4278630000000  0.4459980000000 1.0
C      1  0.5911150000000  0.5721370000000  0.5540020000000 1.0
C      1  0.5688980000000  0.5176340000000  0.4937470000000 1.0
C      1  0.4311020000000  0.4823660000000  0.5062530000000 1.0
C      1  0.4142050000000  0.4583330000000  0.4876180000000 1.0
C      1  0.5857950000000  0.5416670000000  0.5123820000000 1.0
C      1  0.4907520000000  0.4242270000000  0.4839500000000 1.0
C      1  0.5092480000000  0.5757730000000  0.5160500000000 1.0
C      1  0.5546660000000  0.5987900000000  0.5288100000000 1.0
C      1  0.4453340000000  0.4012100000000  0.4711900000000 1.0
C      1  0.5578500000000  0.5811270000000  0.5029410000000 1.0
C      1  0.4421500000000  0.4188730000000  0.4970590000000 1.0
C      1  0.5254670000000  0.4558870000000  0.5835000000000 1.0
C      1  0.4745330000000  0.5441130000000  0.4165000000000 1.0
C      1  0.4428840000000  0.5408330000000  0.5180760000000 1.0
C      1  0.5571160000000  0.4591670000000  0.4819240000000 1.0
C      1  0.5148360000000  0.3910000000000  0.5288240000000 1.0
C      1  0.4851640000000  0.6090000000000  0.4711760000000 1.0
C      1  0.4135900000000  0.5912630000000  0.4634570000000 1.0
C      1  0.5864100000000  0.4087370000000  0.5365430000000 1.0
C      1  0.4988110000000  0.4296050000000  0.5321510000000 1.0
C      1  0.5011890000000  0.5703950000000  0.4678490000000 1.0
C      1  0.4899320000000  0.4708550000000  0.5102060000000 1.0
C      1  0.5100680000000  0.5291450000000  0.4897940000000 1.0
C      1  0.4626980000000  0.4123180000000  0.4472820000000 1.0
C      1  0.5373020000000  0.5876820000000  0.5527180000000 1.0
C      1  0.4549330000000  0.5283330000000  0.5714100000000 1.0
C      1  0.5450670000000  0.4716670000000  0.4285900000000 1.0
C      1  0.5779840000000  0.4659080000000  0.3940690000000 1.0
C      1  0.4220160000000  0.5340920000000  0.6059310000000 1.0
C      1  0.5240420000000  0.5741500000000  0.4090810000000 1.0
C      1  0.4759580000000  0.4258500000000  0.5909190000000 1.0
C      1  0.5239490000000  0.5508750000000  0.5081900000000 1.0
C      1  0.4760510000000  0.4491250000000  0.4918100000000 1.0
C      1  0.6020090000000  0.4812030000000  0.5324310000000 1.0
C      1  0.3979910000000  0.5187970000000  0.4675690000000 1.0
C      1  0.4302120000000  0.4980240000000  0.4004610000000 1.0
C      1  0.5697880000000  0.5019760000000  0.5995390000000 1.0
C      1  0.4911080000000  0.3997400000000  0.5036460000000 1.0
C      1  0.5088920000000  0.6002600000000  0.4963540000000 1.0
C      1  0.5477400000000  0.4055920000000  0.4942260000000 1.0
C      1  0.4522600000000  0.5944080000000  0.5057740000000 1.0
C      1  0.3994400000000  0.5182540000000  0.5884690000000 1.0
C      1  0.6005600000000  0.4817460000000  0.4115310000000 1.0
C      1  0.4867510000000  0.5688680000000  0.4275620000000 1.0
C      1  0.5132490000000  0.4311320000000  0.5724380000000 1.0
C      1  0.4801130000000  0.4760170000000  0.6063620000000 1.0
C      1  0.5198870000000  0.5239830000000  0.3936380000000 1.0
C      1  0.4991190000000  0.5153010000000  0.5523460000000 1.0
C      1  0.5008810000000  0.4846990000000  0.4476540000000 1.0
C      1  0.3969290000000  0.4772080000000  0.4392490000000 1.0
C      1  0.6030710000000  0.5227920000000  0.5607510000000 1.0
C      1  0.4232360000000  0.5872380000000  0.5125620000000 1.0
C      1  0.5767640000000  0.4127620000000  0.4874380000000 1.0
C      1  0.3900870000000  0.5471900000000  0.5762340000000 1.0
C      1  0.6099130000000  0.4528100000000  0.4237660000000 1.0
C      1  0.4799160000000  0.4095320000000  0.5429180000000 1.0
C      1  0.5200840000000  0.5904680000000  0.4570820000000 1.0
C      1  0.4164590000000  0.4047700000000  0.4623600000000 1.0
C      1  0.5835410000000  0.5952300000000  0.5376400000000 1.0
C      1  0.5831690000000  0.4239200000000  0.4583760000000 1.0
C      1  0.4168310000000  0.5760800000000  0.5416240000000 1.0
C      1  0.5360610000000  0.4099010000000  0.4495280000000 1.0
C      1  0.4639390000000  0.5900990000000  0.5504720000000 1.0
C      1  0.5465520000000  0.5693110000000  0.5739200000000 1.0
C      1  0.4534480000000  0.4306890000000  0.4260800000000 1.0
C      1  0.4274700000000  0.4949010000000  0.5551320000000 1.0
C      1  0.5725300000000  0.5050990000000  0.4448680000000 1.0
C      1  0.5266670000000  0.4687470000000  0.3846200000000 1.0
C      1  0.4733330000000  0.5312530000000  0.6153800000000 1.0
C      1  0.4630980000000  0.4145820000000  0.5661270000000 1.0
C      1  0.5369020000000  0.5854180000000  0.4338730000000 1.0
C      1  0.5979970000000  0.5459690000000  0.5409260000000 1.0
C      1  0.4020030000000  0.4540310000000  0.4590740000000 1.0
C      1  0.3904660000000  0.4700170000000  0.5605960000000 1.0
C      1  0.6095340000000  0.5299830000000  0.4394040000000 1.0
C      1  0.4661920000000  0.3847500000000  0.4924540000000 1.0
C      1  0.5338080000000  0.6152500000000  0.5075460000000 1.0
C      1  0.5875560000000  0.5514250000000  0.5986290000000 1.0
C      1  0.4124440000000  0.4485750000000  0.4013710000000 1.0
C      1  0.6227190000000  0.4946840000000  0.5156700000000 1.0
C      1  0.3772810000000  0.5053160000000  0.4843300000000 1.0
C      1  0.4759520000000  0.5714670000000  0.4910920000000 1.0
C      1  0.5240480000000  0.4285330000000  0.5089080000000 1.0
C      1  0.5357750000000  0.3915150000000  0.4716200000000 1.0
C      1  0.4642250000000  0.6084850000000  0.5283800000000 1.0
C      1  0.6175080000000  0.5076390000000  0.4894030000000 1.0
C      1  0.3824920000000  0.4923610000000  0.5105970000000 1.0
C      1  0.5637140000000  0.5017780000000  0.3742310000000 1.0
C      1  0.4362860000000  0.4982220000000  0.6257690000000 1.0
C      1  0.5111400000000  0.4163140000000  0.4372300000000 1.0
C      1  0.4888600000000  0.5836860000000  0.5627700000000 1.0
C      1  0.6066000000000  0.5353700000000  0.4887550000000 1.0
C      1  0.3934000000000  0.4646300000000  0.5112450000000 1.0
C      1  0.5419090000000  0.4944800000000  0.5297290000000 1.0
C      1  0.4580910000000  0.5055200000000  0.4702710000000 1.0
C      1  0.4546170000000  0.6052400000000  0.4782360000000 1.0
C      1  0.5453830000000  0.3947600000000  0.5217640000000 1.0
C      1  0.5534500000000  0.4334210000000  0.4569890000000 1.0
C      1  0.4465500000000  0.5665790000000  0.5430110000000 1.0
C      1  0.4867130000000  0.5379040000000  0.5360210000000 1.0
C      1  0.5132870000000  0.4620960000000  0.4639790000000 1.0
C      1  0.4914860000000  0.5786500000000  0.5922560000000 1.0
C      1  0.5085140000000  0.4213500000000  0.4077440000000 1.0
C      1  0.4651850000000  0.5462260000000  0.5531770000000 1.0
C      1  0.5348150000000  0.4537740000000  0.4468230000000 1.0
C      1  0.5921480000000  0.4959020000000  0.5559330000000 1.0
C      1  0.4078520000000  0.5040980000000  0.4440670000000 1.0
C      1  0.4038430000000  0.5898310000000  0.4909190000000 1.0
C      1  0.5961570000000  0.4101690000000  0.5090810000000 1.0
C      1  0.3870040000000  0.5103570000000  0.5339140000000 1.0
C      1  0.6129960000000  0.4896430000000  0.4660860000000 1.0
C      1  0.5848360000000  0.5073280000000  0.3943590000000 1.0
C      1  0.4151640000000  0.4926720000000  0.6056410000000 1.0
C      1  0.3980020000000  0.4526550000000  0.5380300000000 1.0
C      1  0.6019980000000  0.5473450000000  0.4619700000000 1.0
C      1  0.4125320000000  0.5416470000000  0.4790410000000 1.0
C      1  0.5874680000000  0.4583530000000  0.5209590000000 1.0
C      1  0.5452600000000  0.5018620000000  0.5568140000000 1.0
C      1  0.4547400000000  0.4981380000000  0.4431860000000 1.0
C      1  0.4899170000000  0.4562420000000  0.5350740000000 1.0
C      1  0.5100830000000  0.5437580000000  0.4649260000000 1.0
C      1  0.5391930000000  0.4668430000000  0.5213720000000 1.0
C      1  0.4608070000000  0.5331570000000  0.4786280000000 1.0
C      1  0.5147800000000  0.5246650000000  0.6163540000000 1.0
C      1  0.4852200000000  0.4753350000000  0.3836460000000 1.0
END
