TITL C-862131-2149-353 0.00102084422224174 125000 -397.211099701288 0 0 80 (C3i) n - 1
REM
REM in /home/nfs/bkarasulu/CARBON/AIRSS/Generating-Clusters/TERSOFF/Higher-Symm/FIRE-HFTN
REM
REM
REM
REM
REM
REM ./C.cell (b20cbc046b6831c77cfcea5457e17084)
REM AIRSS Version 0.9.1 bugfix July 2018 build 013d7b7c2542+ Fri, 06 Jul 2018 19:26:36 +0100
REM compiler GCC version 9.2.1 20190827 (Red Hat 9.2.1-1)
REM options -cpp -mtune=generic -march=x86-64 -g -O0 -fpre-include=/usr/include/finclude/math-vector-fortran.h
REM seed 1359551680 -949662671 -1438725101 843256355 -949338773 -1890574478 -1431569146 -1235956366 -1900181790 158244932 -1353133744 -503021557 849619670 -17558509 -1789728635 373068617 -435955628 1933213997 -2098378936 1114369356 1761160319 422369235 -1478510148 -968069712 -691422640 1191386832 605185742 -1108767517 883235783 14854891 306043421 1261400930 1114054538
REM
CELL 1.54180   50.00000   50.00000   50.00000   90.00000   90.00000   90.00000
LATT -1
SFAC C  
C      1  0.5729100000000  0.5439680000000  0.4942640000000 1.0
C      1  0.5416440000000  0.4560320000000  0.5603060000000 1.0
C      1  0.4688160000000  0.5439660000000  0.5662500000000 1.0
C      1  0.4272550000000  0.4560320000000  0.5061500000000 1.0
C      1  0.4585210000000  0.5439680000000  0.4401090000000 1.0
C      1  0.5313490000000  0.4560340000000  0.4341640000000 1.0
C      1  0.5640970000000  0.5182830000000  0.5166530000000 1.0
C      1  0.5178480000000  0.4817160000000  0.5638680000000 1.0
C      1  0.4538330000000  0.5182820000000  0.5474230000000 1.0
C      1  0.4360680000000  0.4817170000000  0.4837610000000 1.0
C      1  0.4823170000000  0.5182840000000  0.4365460000000 1.0
C      1  0.5463320000000  0.4817180000000  0.4529910000000 1.0
C      1  0.5503080000000  0.4431200000000  0.5301690000000 1.0
C      1  0.4992470000000  0.5568780000000  0.5586860000000 1.0
C      1  0.4490220000000  0.4431200000000  0.5287220000000 1.0
C      1  0.4498560000000  0.5568800000000  0.4702460000000 1.0
C      1  0.5009170000000  0.4431220000000  0.4417290000000 1.0
C      1  0.5511430000000  0.5568800000000  0.4716920000000 1.0
C      1  0.4601940000000  0.5795520000000  0.4906750000000 1.0
C      1  0.4883950000000  0.4204490000000  0.4608950000000 1.0
C      1  0.5282830000000  0.5795520000000  0.4704310000000 1.0
C      1  0.5399710000000  0.4204480000000  0.5097400000000 1.0
C      1  0.5117700000000  0.5795510000000  0.5395200000000 1.0
C      1  0.4718820000000  0.4204480000000  0.5299840000000 1.0
C      1  0.5131990000000  0.5580570000000  0.5162200000000 1.0
C      1  0.4927740000000  0.4419420000000  0.5195720000000 1.0
C      1  0.4796570000000  0.5580570000000  0.5035620000000 1.0
C      1  0.4869660000000  0.4419430000000  0.4841940000000 1.0
C      1  0.5073910000000  0.5580580000000  0.4808420000000 1.0
C      1  0.5205080000000  0.4419430000000  0.4968530000000 1.0
C      1  0.5642710000000  0.4899760000000  0.5271340000000 1.0
C      1  0.5088570000000  0.5100230000000  0.5692600000000 1.0
C      1  0.4446690000000  0.4899750000000  0.5423330000000 1.0
C      1  0.4358940000000  0.5100240000000  0.4732810000000 1.0
C      1  0.4913070000000  0.4899770000000  0.4311550000000 1.0
C      1  0.5554960000000  0.5100250000000  0.4580820000000 1.0
C      1  0.4416820000000  0.4407480000000  0.4767620000000 1.0
C      1  0.4911850000000  0.5592530000000  0.4379090000000 1.0
C      1  0.5495860000000  0.4407480000000  0.4613520000000 1.0
C      1  0.5584830000000  0.5592520000000  0.5236520000000 1.0
C      1  0.5089800000000  0.4407470000000  0.5625050000000 1.0
C      1  0.4505790000000  0.5592520000000  0.5390630000000 1.0
C      1  0.5783890000000  0.5124820000000  0.4776020000000 1.0
C      1  0.5588130000000  0.4875170000000  0.5567200000000 1.0
C      1  0.4805060000000  0.5124810000000  0.5793260000000 1.0
C      1  0.4217760000000  0.4875180000000  0.5228130000000 1.0
C      1  0.4413520000000  0.5124830000000  0.4436950000000 1.0
C      1  0.5196590000000  0.4875190000000  0.4210890000000 1.0
C      1  0.4579260000000  0.4171160000000  0.4667490000000 1.0
C      1  0.5079790000000  0.5828850000000  0.4469710000000 1.0
C      1  0.5501360000000  0.4171160000000  0.4804270000000 1.0
C      1  0.5422390000000  0.5828840000000  0.5336660000000 1.0
C      1  0.4921860000000  0.4171150000000  0.5534430000000 1.0
C      1  0.4500290000000  0.5828840000000  0.5199880000000 1.0
C      1  0.4570860000000  0.5339830000000  0.5188470000000 1.0
C      1  0.4624420000000  0.4660170000000  0.4722910000000 1.0
C      1  0.5054380000000  0.5339840000000  0.4536520000000 1.0
C      1  0.5430790000000  0.4660170000000  0.4815670000000 1.0
C      1  0.5377230000000  0.5339830000000  0.5281240000000 1.0
C      1  0.4947270000000  0.4660160000000  0.5467630000000 1.0
C      1  0.5090960000000  0.5301750000000  0.5472620000000 1.0
C      1  0.4638400000000  0.4698240000000  0.5315400000000 1.0
C      1  0.4548250000000  0.5301760000000  0.4844870000000 1.0
C      1  0.4910680000000  0.4698250000000  0.4531530000000 1.0
C      1  0.5363250000000  0.5301760000000  0.4688740000000 1.0
C      1  0.5453400000000  0.4698240000000  0.5159270000000 1.0
C      1  0.5248040000000  0.5168600000000  0.4302760000000 1.0
C      1  0.5730050000000  0.4831420000000  0.4866510000000 1.0
C      1  0.5482840000000  0.5168580000000  0.5565820000000 1.0
C      1  0.4753610000000  0.4831400000000  0.5701380000000 1.0
C      1  0.4271590000000  0.5168580000000  0.5137640000000 1.0
C      1  0.4518810000000  0.4831420000000  0.4438320000000 1.0
C      1  0.5156060000000  0.4770400000000  0.5222460000000 1.0
C      1  0.4887580000000  0.5229600000000  0.5246700000000 1.0
C      1  0.4732350000000  0.4770400000000  0.5026310000000 1.0
C      1  0.4845590000000  0.5229600000000  0.4781690000000 1.0
C      1  0.5114070000000  0.4770400000000  0.4757440000000 1.0
C      1  0.5269300000000  0.5229600000000  0.4977840000000 1.0
C      1  0.5000820000000  0.4860780000000  0.5002070000000 1.0
C      1  0.5000820000000  0.5139220000000  0.5002070000000 1.0
END
