TITL C-862133-5440-1207 127.255383619788 125000 -784.804080391027 0 0 137 (C1) n - 1
REM
REM in /home/nfs/bkarasulu/CARBON/AIRSS/Generating-Clusters/TERSOFF/Higher-Symm/FIRE-HFTN
REM
REM
REM
REM
REM
REM ./C.cell (b20cbc046b6831c77cfcea5457e17084)
REM AIRSS Version 0.9.1 bugfix July 2018 build 013d7b7c2542+ Fri, 06 Jul 2018 19:26:36 +0100
REM compiler GCC version 9.2.1 20190827 (Red Hat 9.2.1-1)
REM options -cpp -mtune=generic -march=x86-64 -g -O0 -fpre-include=/usr/include/finclude/math-vector-fortran.h
REM seed -1271842631 -925557724 297346004 -2031242148 -1716417179 -1318019905 156972039 17380453 -2070247195 660416443 -721324038 136756125 -720381562 -941682285 97094324 -1997084967 -434331690 1087947761 -528331743 462440661 356238824 -1639898671 -153676866 -443515304 -501156678 -535719895 -1573816273 1403293795 1283648568 -737178654 2002887583 1387112926 -418449522
REM
CELL 1.54180   50.00000   50.00000   50.00000   90.00000   90.00000   90.00000
LATT -1
SFAC C  
C      1  0.4401510000000  0.4410970000000  0.5528160000000 1.0
C      1  0.5460270000000  0.4365030000000  0.4060600000000 1.0
C      1  0.4590460000000  0.5952820000000  0.5600240000000 1.0
C      1  0.4440900000000  0.5505260000000  0.5439230000000 1.0
C      1  0.4055990000000  0.4506420000000  0.4659130000000 1.0
C      1  0.5208850000000  0.5682540000000  0.4508290000000 1.0
C      1  0.4778030000000  0.4144380000000  0.5363490000000 1.0
C      1  0.5951730000000  0.5032280000000  0.5286550000000 1.0
C      1  0.5667470000000  0.5093420000000  0.5362760000000 1.0
C      1  0.4612500000000  0.5288750000000  0.5578050000000 1.0
C      1  0.4273890000000  0.4494340000000  0.5102080000000 1.0
C      1  0.5169380000000  0.5320220000000  0.4183510000000 1.0
C      1  0.4721810000000  0.4581710000000  0.6001480000000 1.0
C      1  0.5510580000000  0.4141760000000  0.4498090000000 1.0
C      1  0.4866990000000  0.5486050000000  0.3945130000000 1.0
C      1  0.4516140000000  0.5980050000000  0.4409350000000 1.0
C      1  0.4162900000000  0.5461630000000  0.5543170000000 1.0
C      1  0.4801630000000  0.6240730000000  0.4747330000000 1.0
C      1  0.4540310000000  0.5059780000000  0.6037530000000 1.0
C      1  0.5378990000000  0.4920160000000  0.5998190000000 1.0
C      1  0.5342990000000  0.5046090000000  0.5008780000000 1.0
C      1  0.5632000000000  0.4368190000000  0.4637950000000 1.0
C      1  0.4227080000000  0.5949730000000  0.4849980000000 1.0
C      1  0.5830750000000  0.4542050000000  0.5086790000000 1.0
C      1  0.4771220000000  0.5779640000000  0.5745130000000 1.0
C      1  0.4442830000000  0.5516410000000  0.5019810000000 1.0
C      1  0.4703910000000  0.4761290000000  0.4666510000000 1.0
C      1  0.4291100000000  0.5360740000000  0.4466210000000 1.0
C      1  0.4708190000000  0.4524550000000  0.4843830000000 1.0
C      1  0.4665770000000  0.6000120000000  0.4653190000000 1.0
C      1  0.5036810000000  0.4859140000000  0.5335380000000 1.0
C      1  0.5437570000000  0.4927800000000  0.4125590000000 1.0
C      1  0.4199850000000  0.5012330000000  0.5667110000000 1.0
C      1  0.5221360000000  0.5193120000000  0.6062460000000 1.0
C      1  0.5013170000000  0.4074810000000  0.5501380000000 1.0
C      1  0.5664720000000  0.4588210000000  0.4029560000000 1.0
C      1  0.4502130000000  0.5009960000000  0.5134460000000 1.0
C      1  0.5763760000000  0.5241030000000  0.4752760000000 1.0
C      1  0.4456570000000  0.5108610000000  0.5764210000000 1.0
C      1  0.5657610000000  0.4621390000000  0.5553810000000 1.0
C      1  0.5107710000000  0.4627730000000  0.4397740000000 1.0
C      1  0.4727510000000  0.3992110000000  0.5128270000000 1.0
C      1  0.4308280000000  0.4871870000000  0.4419190000000 1.0
C      1  0.5554740000000  0.4141730000000  0.4215750000000 1.0
C      1  0.4853320000000  0.4059620000000  0.4881760000000 1.0
C      1  0.4937020000000  0.5178420000000  0.5967370000000 1.0
C      1  0.4153530000000  0.4419900000000  0.5364340000000 1.0
C      1  0.4876150000000  0.4795800000000  0.4428180000000 1.0
C      1  0.5200880000000  0.5060630000000  0.4068270000000 1.0
C      1  0.4737460000000  0.5222940000000  0.4017450000000 1.0
C      1  0.5776160000000  0.5815000000000  0.5695250000000 1.0
C      1  0.5530360000000  0.5226730000000  0.4550770000000 1.0
C      1  0.5392220000000  0.4365620000000  0.5851440000000 1.0
C      1  0.5475790000000  0.5772820000000  0.5285750000000 1.0
C      1  0.4594820000000  0.5260930000000  0.4978220000000 1.0
C      1  0.4973450000000  0.6206600000000  0.4980820000000 1.0
C      1  0.4992430000000  0.4898700000000  0.3938990000000 1.0
C      1  0.4664870000000  0.5851060000000  0.5142710000000 1.0
C      1  0.4599390000000  0.4799040000000  0.6147940000000 1.0
C      1  0.5564240000000  0.4815340000000  0.3871670000000 1.0
C      1  0.4780390000000  0.5755580000000  0.4750550000000 1.0
C      1  0.5372420000000  0.4722230000000  0.4351680000000 1.0
C      1  0.5149580000000  0.5223480000000  0.5159920000000 1.0
C      1  0.5150850000000  0.5806470000000  0.5293070000000 1.0
C      1  0.5673210000000  0.4967520000000  0.6022940000000 1.0
C      1  0.3915450000000  0.4803070000000  0.5145420000000 1.0
C      1  0.5061100000000  0.3959460000000  0.4365970000000 1.0
C      1  0.5633800000000  0.4092040000000  0.5033380000000 1.0
C      1  0.5788870000000  0.5435430000000  0.4986650000000 1.0
C      1  0.4046390000000  0.5186330000000  0.5490970000000 1.0
C      1  0.4475440000000  0.4931520000000  0.4643120000000 1.0
C      1  0.5206660000000  0.5365190000000  0.5433660000000 1.0
C      1  0.4597500000000  0.4569370000000  0.4063610000000 1.0
C      1  0.5628410000000  0.5216100000000  0.5610520000000 1.0
C      1  0.5904040000000  0.4976160000000  0.4787660000000 1.0
C      1  0.5039910000000  0.5712730000000  0.5599040000000 1.0
C      1  0.4920090000000  0.5304510000000  0.4978980000000 1.0
C      1  0.4849310000000  0.4647250000000  0.5503540000000 1.0
C      1  0.4996090000000  0.5298050000000  0.4699170000000 1.0
C      1  0.5788090000000  0.4737980000000  0.4295000000000 1.0
C      1  0.5125700000000  0.4383640000000  0.4056500000000 1.0
C      1  0.4561430000000  0.4523060000000  0.5102400000000 1.0
C      1  0.5351440000000  0.5427380000000  0.5931750000000 1.0
C      1  0.5063290000000  0.5706320000000  0.4767380000000 1.0
C      1  0.5024800000000  0.5092190000000  0.5695900000000 1.0
C      1  0.5298060000000  0.4971770000000  0.5697260000000 1.0
C      1  0.4381840000000  0.5515680000000  0.4222440000000 1.0
C      1  0.5321140000000  0.5421900000000  0.4412310000000 1.0
C      1  0.5608720000000  0.4630380000000  0.4522340000000 1.0
C      1  0.5275100000000  0.4124210000000  0.5400100000000 1.0
C      1  0.5745410000000  0.4451910000000  0.5347550000000 1.0
C      1  0.5870960000000  0.4730200000000  0.5707710000000 1.0
C      1  0.5225380000000  0.4609600000000  0.5895710000000 1.0
C      1  0.5930720000000  0.4833310000000  0.5046330000000 1.0
C      1  0.4909130000000  0.4627860000000  0.4027690000000 1.0
C      1  0.4474600000000  0.4202280000000  0.4557400000000 1.0
C      1  0.5350880000000  0.4067040000000  0.5104030000000 1.0
C      1  0.5389340000000  0.4747560000000  0.5534490000000 1.0
C      1  0.4593750000000  0.5574630000000  0.5885120000000 1.0
C      1  0.5151230000000  0.4043110000000  0.4860370000000 1.0
C      1  0.4788990000000  0.5256850000000  0.4513110000000 1.0
C      1  0.4456220000000  0.5311210000000  0.4023460000000 1.0
C      1  0.5178290000000  0.5632530000000  0.5024660000000 1.0
C      1  0.4365260000000  0.4614850000000  0.4274650000000 1.0
C      1  0.4518770000000  0.5786220000000  0.5375500000000 1.0
C      1  0.5464370000000  0.4249940000000  0.5585500000000 1.0
C      1  0.5341340000000  0.5059540000000  0.4716680000000 1.0
C      1  0.4626000000000  0.4911730000000  0.5394330000000 1.0
C      1  0.4291240000000  0.5536250000000  0.5830440000000 1.0
C      1  0.4931820000000  0.4613210000000  0.5802000000000 1.0
C      1  0.4712510000000  0.4262490000000  0.4721970000000 1.0
C      1  0.4276920000000  0.4407490000000  0.4470450000000 1.0
C      1  0.3947100000000  0.5091320000000  0.5223460000000 1.0
C      1  0.5383410000000  0.4539380000000  0.5072400000000 1.0
C      1  0.5616930000000  0.5685450000000  0.5026670000000 1.0
C      1  0.4928010000000  0.5973140000000  0.5151090000000 1.0
C      1  0.6012290000000  0.4976330000000  0.5617380000000 1.0
C      1  0.4838490000000  0.5717990000000  0.4124390000000 1.0
C      1  0.4839230000000  0.5081280000000  0.4284770000000 1.0
C      1  0.5971540000000  0.5328050000000  0.5192910000000 1.0
C      1  0.5569990000000  0.5677840000000  0.5544520000000 1.0
C      1  0.5249460000000  0.4035630000000  0.4579660000000 1.0
C      1  0.5656510000000  0.5063410000000  0.4305610000000 1.0
C      1  0.5464230000000  0.4812020000000  0.5126380000000 1.0
C      1  0.4857680000000  0.5134450000000  0.5448190000000 1.0
C      1  0.5438460000000  0.5428710000000  0.5643010000000 1.0
C      1  0.5745790000000  0.4325490000000  0.4898230000000 1.0
C      1  0.4368180000000  0.5700330000000  0.4809150000000 1.0
C      1  0.4152270000000  0.5110330000000  0.4350930000000 1.0
C      1  0.4998930000000  0.4122020000000  0.4126850000000 1.0
C      1  0.4104420000000  0.4650600000000  0.4922050000000 1.0
C      1  0.5074320000000  0.5824820000000  0.4277520000000 1.0
C      1  0.4562960000000  0.5757330000000  0.4230260000000 1.0
C      1  0.5816030000000  0.5130730000000  0.5821160000000 1.0
C      1  0.3923930000000  0.4608230000000  0.5375280000000 1.0
C      1  0.4525100000000  0.5228140000000  0.4657100000000 1.0
C      1  0.4672430000000  0.4424150000000  0.5379570000000 1.0
END
