TITL C-862501-1041-1037 -0.0701013772410563 125000 -1032.0558797688 0 0 200 (C1) n - 1
REM
REM in /home/nfs/bkarasulu/CARBON/AIRSS/Generating-Clusters/TERSOFF/Higher-Symm/FIRE-HFTN
REM
REM
REM
REM
REM
REM ./C.cell (b20cbc046b6831c77cfcea5457e17084)
REM AIRSS Version 0.9.1 bugfix July 2018 build 013d7b7c2542+ Fri, 06 Jul 2018 19:26:36 +0100
REM compiler GCC version 9.2.1 20190827 (Red Hat 9.2.1-1)
REM options -cpp -mtune=generic -march=x86-64 -g -O0 -fpre-include=/usr/include/finclude/math-vector-fortran.h
REM seed 629412296 -87725140 -1741767288 305451836 -1433093863 -1661988150 1231876382 916085572 45416233 -1527207857 -744296000 -281654155 147619807 1671640665 -778067027 -1483750509 1622432716 1802219462 818333291 2092924013 -939570948 1737724208 1783340206 982506348 -2124191864 1876971303 -1187868096 -559055979 419512008 418295448 1614798269 379112186 53262089
REM
CELL 1.54180   50.00000   50.00000   50.00000   90.00000   90.00000   90.00000
LATT -1
SFAC C  
C      1  0.4954160000000  0.5573810000000  0.5499330000000 1.0
C      1  0.5604990000000  0.4939890000000  0.5498240000000 1.0
C      1  0.5551230000000  0.5556820000000  0.4703150000000 1.0
C      1  0.5136080000000  0.4551230000000  0.5610880000000 1.0
C      1  0.5101850000000  0.5467700000000  0.4408120000000 1.0
C      1  0.4903390000000  0.4424320000000  0.4531010000000 1.0
C      1  0.4500820000000  0.5274960000000  0.5591770000000 1.0
C      1  0.4452470000000  0.4706250000000  0.4461200000000 1.0
C      1  0.5582100000000  0.5052640000000  0.4496830000000 1.0
C      1  0.4437310000000  0.4464520000000  0.4962240000000 1.0
C      1  0.4481890000000  0.5497350000000  0.5119510000000 1.0
C      1  0.5544440000000  0.4445660000000  0.5289120000000 1.0
C      1  0.4755920000000  0.5537380000000  0.4449020000000 1.0
C      1  0.5529790000000  0.4747500000000  0.4450330000000 1.0
C      1  0.5582980000000  0.5504160000000  0.5029770000000 1.0
C      1  0.5226440000000  0.4359020000000  0.4510050000000 1.0
C      1  0.5279950000000  0.5639880000000  0.5489860000000 1.0
C      1  0.4826880000000  0.4470650000000  0.5596290000000 1.0
C      1  0.4460900000000  0.5047920000000  0.4515510000000 1.0
C      1  0.4474590000000  0.4942390000000  0.5562130000000 1.0
C      1  0.5562020000000  0.5249530000000  0.5554010000000 1.0
C      1  0.4423790000000  0.4453870000000  0.5297870000000 1.0
C      1  0.4406660000000  0.5540800000000  0.4824030000000 1.0
C      1  0.5527020000000  0.4487330000000  0.4960110000000 1.0
C      1  0.3765730000000  0.4687320000000  0.5099790000000 1.0
C      1  0.5105760000000  0.3752150000000  0.4726880000000 1.0
C      1  0.4785950000000  0.5177860000000  0.3772200000000 1.0
C      1  0.6259110000000  0.5227360000000  0.5164290000000 1.0
C      1  0.6244420000000  0.4747310000000  0.4830750000000 1.0
C      1  0.3780830000000  0.5279540000000  0.4852000000000 1.0
C      1  0.4862640000000  0.6241140000000  0.4719160000000 1.0
C      1  0.4844520000000  0.3753770000000  0.5291660000000 1.0
C      1  0.5107820000000  0.6267440000000  0.5266950000000 1.0
C      1  0.5243820000000  0.4869510000000  0.3753500000000 1.0
C      1  0.5246770000000  0.5161840000000  0.6259740000000 1.0
C      1  0.4806040000000  0.4845710000000  0.6239920000000 1.0
C      1  0.3758570000000  0.4753770000000  0.4820320000000 1.0
C      1  0.5131750000000  0.3743020000000  0.5262560000000 1.0
C      1  0.4724260000000  0.5118080000000  0.6224270000000 1.0
C      1  0.6238780000000  0.5277830000000  0.4881660000000 1.0
C      1  0.6229140000000  0.4701660000000  0.5113650000000 1.0
C      1  0.3740810000000  0.5217660000000  0.5130450000000 1.0
C      1  0.4821650000000  0.6255790000000  0.5255470000000 1.0
C      1  0.4822530000000  0.3739950000000  0.4754340000000 1.0
C      1  0.5147590000000  0.6260440000000  0.4735710000000 1.0
C      1  0.5290100000000  0.4875770000000  0.6233510000000 1.0
C      1  0.5269880000000  0.5153140000000  0.3785950000000 1.0
C      1  0.4726240000000  0.4897570000000  0.3761670000000 1.0
C      1  0.5980620000000  0.5264970000000  0.5576610000000 1.0
C      1  0.5495210000000  0.5980250000000  0.5371630000000 1.0
C      1  0.5305510000000  0.5561230000000  0.5938480000000 1.0
C      1  0.4035610000000  0.4614500000000  0.5513580000000 1.0
C      1  0.4086660000000  0.5359940000000  0.4467960000000 1.0
C      1  0.5948330000000  0.4721420000000  0.4432350000000 1.0
C      1  0.4423830000000  0.4036870000000  0.5334440000000 1.0
C      1  0.4481570000000  0.5949870000000  0.4646700000000 1.0
C      1  0.5482830000000  0.4049240000000  0.4630120000000 1.0
C      1  0.4735710000000  0.4434580000000  0.6002530000000 1.0
C      1  0.4738360000000  0.5574850000000  0.4032410000000 1.0
C      1  0.5301800000000  0.4459170000000  0.4019600000000 1.0
C      1  0.5943130000000  0.5373110000000  0.4499110000000 1.0
C      1  0.5557270000000  0.5976550000000  0.4711320000000 1.0
C      1  0.5366810000000  0.5529110000000  0.4086050000000 1.0
C      1  0.4035690000000  0.4713820000000  0.4420920000000 1.0
C      1  0.4034560000000  0.5269790000000  0.5531410000000 1.0
C      1  0.5937330000000  0.4610230000000  0.5498410000000 1.0
C      1  0.4465900000000  0.4057390000000  0.4649620000000 1.0
C      1  0.4443660000000  0.5940250000000  0.5304000000000 1.0
C      1  0.5543920000000  0.4026020000000  0.5289920000000 1.0
C      1  0.4646600000000  0.4488910000000  0.4043010000000 1.0
C      1  0.4615970000000  0.5499190000000  0.5935910000000 1.0
C      1  0.5377510000000  0.4470730000000  0.5944680000000 1.0
C      1  0.4251720000000  0.4801380000000  0.5137890000000 1.0
C      1  0.5108040000000  0.4240270000000  0.4894220000000 1.0
C      1  0.4769780000000  0.5164400000000  0.4257360000000 1.0
C      1  0.5761120000000  0.5157660000000  0.5178190000000 1.0
C      1  0.5736830000000  0.4817810000000  0.4808550000000 1.0
C      1  0.4273130000000  0.5147180000000  0.4876200000000 1.0
C      1  0.4854990000000  0.5712620000000  0.4816120000000 1.0
C      1  0.4832080000000  0.4273960000000  0.5226970000000 1.0
C      1  0.5132990000000  0.5781430000000  0.5123180000000 1.0
C      1  0.5110530000000  0.4813560000000  0.4254800000000 1.0
C      1  0.5185810000000  0.5211360000000  0.5740400000000 1.0
C      1  0.4830160000000  0.4857310000000  0.5757760000000 1.0
C      1  0.4271850000000  0.4822120000000  0.4822090000000 1.0
C      1  0.5159490000000  0.4255900000000  0.5225070000000 1.0
C      1  0.4876710000000  0.5156780000000  0.5734360000000 1.0
C      1  0.5739580000000  0.5151600000000  0.4867930000000 1.0
C      1  0.5729270000000  0.4817280000000  0.5121360000000 1.0
C      1  0.4255270000000  0.5144090000000  0.5197190000000 1.0
C      1  0.4818140000000  0.5747460000000  0.5145920000000 1.0
C      1  0.4791890000000  0.4250540000000  0.4893260000000 1.0
C      1  0.5172900000000  0.5756420000000  0.4781770000000 1.0
C      1  0.5281840000000  0.4915110000000  0.5760160000000 1.0
C      1  0.5244130000000  0.5091230000000  0.4254190000000 1.0
C      1  0.4786340000000  0.4857620000000  0.4257280000000 1.0
C      1  0.5940780000000  0.5674080000000  0.4599690000000 1.0
C      1  0.4504430000000  0.5921270000000  0.5615960000000 1.0
C      1  0.5677790000000  0.4522150000000  0.5952720000000 1.0
C      1  0.4060530000000  0.4392810000000  0.4500770000000 1.0
C      1  0.4089070000000  0.5582500000000  0.5415140000000 1.0
C      1  0.5927110000000  0.4313680000000  0.5400540000000 1.0
C      1  0.5483960000000  0.4053810000000  0.5610370000000 1.0
C      1  0.5499830000000  0.5948120000000  0.4396340000000 1.0
C      1  0.4577350000000  0.4055300000000  0.4347770000000 1.0
C      1  0.4316580000000  0.5383090000000  0.5953030000000 1.0
C      1  0.4350880000000  0.4573240000000  0.4076030000000 1.0
C      1  0.5665400000000  0.5462600000000  0.4056240000000 1.0
C      1  0.5906920000000  0.5591980000000  0.5485100000000 1.0
C      1  0.4585890000000  0.5925430000000  0.4346120000000 1.0
C      1  0.5618990000000  0.4624740000000  0.4059480000000 1.0
C      1  0.4048360000000  0.4313210000000  0.5422100000000 1.0
C      1  0.4080190000000  0.5653910000000  0.4540900000000 1.0
C      1  0.5888850000000  0.4404380000000  0.4504490000000 1.0
C      1  0.5389720000000  0.4023150000000  0.4319030000000 1.0
C      1  0.5360080000000  0.6006030000000  0.5677850000000 1.0
C      1  0.4617620000000  0.4079410000000  0.5637510000000 1.0
C      1  0.4418310000000  0.5484020000000  0.4052680000000 1.0
C      1  0.4401450000000  0.4537320000000  0.5950760000000 1.0
C      1  0.5572030000000  0.5330850000000  0.5852220000000 1.0
C      1  0.5211630000000  0.4716700000000  0.5989080000000 1.0
C      1  0.6013130000000  0.5187010000000  0.4711980000000 1.0
C      1  0.4671970000000  0.6030540000000  0.5142280000000 1.0
C      1  0.4812290000000  0.5298650000000  0.6009590000000 1.0
C      1  0.4817050000000  0.4713990000000  0.3971360000000 1.0
C      1  0.5189350000000  0.5295310000000  0.4035810000000 1.0
C      1  0.3989500000000  0.4861710000000  0.4668780000000 1.0
C      1  0.3946840000000  0.5100260000000  0.5302930000000 1.0
C      1  0.6006340000000  0.4797880000000  0.5284380000000 1.0
C      1  0.5293540000000  0.3962940000000  0.5148430000000 1.0
C      1  0.5311480000000  0.6049540000000  0.4854450000000 1.0
C      1  0.4658890000000  0.3960580000000  0.4856150000000 1.0
C      1  0.5131670000000  0.4690970000000  0.3959820000000 1.0
C      1  0.6039510000000  0.5116960000000  0.5325890000000 1.0
C      1  0.4704720000000  0.6012040000000  0.4823050000000 1.0
C      1  0.4882300000000  0.5317340000000  0.4020870000000 1.0
C      1  0.4901110000000  0.4691570000000  0.6003500000000 1.0
C      1  0.5131530000000  0.5331120000000  0.6046580000000 1.0
C      1  0.3972900000000  0.4786460000000  0.5283590000000 1.0
C      1  0.4012300000000  0.5183960000000  0.4692310000000 1.0
C      1  0.6027530000000  0.4869400000000  0.4675470000000 1.0
C      1  0.5269990000000  0.3977520000000  0.4819950000000 1.0
C      1  0.5284570000000  0.6049580000000  0.5176940000000 1.0
C      1  0.4676830000000  0.3973150000000  0.5185270000000 1.0
C      1  0.4892360000000  0.4157880000000  0.5859630000000 1.0
C      1  0.5818300000000  0.4897990000000  0.4186520000000 1.0
C      1  0.4237090000000  0.5783700000000  0.4788550000000 1.0
C      1  0.5084430000000  0.5817450000000  0.5814760000000 1.0
C      1  0.5139030000000  0.4199580000000  0.4135340000000 1.0
C      1  0.4896190000000  0.5831200000000  0.4187840000000 1.0
C      1  0.4237600000000  0.5245390000000  0.4221240000000 1.0
C      1  0.4171330000000  0.4753470000000  0.5777730000000 1.0
C      1  0.5835150000000  0.5077250000000  0.5821510000000 1.0
C      1  0.5738670000000  0.4198630000000  0.4741780000000 1.0
C      1  0.5754390000000  0.5817740000000  0.5249570000000 1.0
C      1  0.4173030000000  0.4174870000000  0.5112650000000 1.0
C      1  0.4781230000000  0.4239590000000  0.4175510000000 1.0
C      1  0.5830590000000  0.4719070000000  0.5773210000000 1.0
C      1  0.4198930000000  0.5802910000000  0.5151370000000 1.0
C      1  0.5256860000000  0.5799970000000  0.4209310000000 1.0
C      1  0.5248840000000  0.4204880000000  0.5816160000000 1.0
C      1  0.4726000000000  0.5761100000000  0.5795700000000 1.0
C      1  0.4164350000000  0.5116540000000  0.5784440000000 1.0
C      1  0.4205540000000  0.4887270000000  0.4176190000000 1.0
C      1  0.5825680000000  0.5258640000000  0.4226340000000 1.0
C      1  0.5793550000000  0.4168870000000  0.5098800000000 1.0
C      1  0.5801390000000  0.5834930000000  0.4890660000000 1.0
C      1  0.4203990000000  0.4191560000000  0.4750560000000 1.0
C      1  0.5181480000000  0.5243720000000  0.5379550000000 1.0
C      1  0.5427150000000  0.5135790000000  0.5157550000000 1.0
C      1  0.5176390000000  0.5469900000000  0.5121540000000 1.0
C      1  0.4902510000000  0.4849230000000  0.5431930000000 1.0
C      1  0.4878820000000  0.5156090000000  0.4572630000000 1.0
C      1  0.5144250000000  0.4762900000000  0.4614340000000 1.0
C      1  0.4575480000000  0.4814710000000  0.5147650000000 1.0
C      1  0.4610220000000  0.5149360000000  0.4895390000000 1.0
C      1  0.5409580000000  0.4869110000000  0.4833770000000 1.0
C      1  0.4839560000000  0.4635210000000  0.5213480000000 1.0
C      1  0.4837820000000  0.5350760000000  0.4815090000000 1.0
C      1  0.5122640000000  0.4564830000000  0.4859690000000 1.0
C      1  0.5170820000000  0.5087030000000  0.4567490000000 1.0
C      1  0.5381850000000  0.5191370000000  0.4835440000000 1.0
C      1  0.5171250000000  0.5422600000000  0.4819650000000 1.0
C      1  0.4827450000000  0.4846910000000  0.4585780000000 1.0
C      1  0.4843940000000  0.5168980000000  0.5374500000000 1.0
C      1  0.5191280000000  0.4925830000000  0.5433170000000 1.0
C      1  0.4632100000000  0.4823660000000  0.4822030000000 1.0
C      1  0.4595740000000  0.5105210000000  0.5199080000000 1.0
C      1  0.5377040000000  0.4817210000000  0.5169420000000 1.0
C      1  0.4833420000000  0.4582980000000  0.4912310000000 1.0
C      1  0.4885600000000  0.5399230000000  0.5126190000000 1.0
C      1  0.5171350000000  0.4588890000000  0.5161140000000 1.0
C      1  0.4506480000000  0.5383700000000  0.4563040000000 1.0
C      1  0.4554670000000  0.4618960000000  0.5518450000000 1.0
C      1  0.5470080000000  0.4502300000000  0.4633040000000 1.0
C      1  0.4607740000000  0.5509510000000  0.5420480000000 1.0
C      1  0.5454540000000  0.4613120000000  0.5524930000000 1.0
C      1  0.5446880000000  0.5386810000000  0.4472840000000 1.0
C      1  0.5518370000000  0.5489980000000  0.5363100000000 1.0
C      1  0.4557110000000  0.4466100000000  0.4620600000000 1.0
END
