TITL C-862505-1648-454 2.1064591202577e-05 125000 -451.754369225087 0 0 84 (Ci) n - 1
REM
REM in /home/nfs/bkarasulu/CARBON/AIRSS/Generating-Clusters/TERSOFF/Higher-Symm/FIRE-HFTN
REM
REM
REM
REM
REM
REM ./C.cell (b20cbc046b6831c77cfcea5457e17084)
REM AIRSS Version 0.9.1 bugfix July 2018 build 013d7b7c2542+ Fri, 06 Jul 2018 19:26:36 +0100
REM compiler GCC version 9.2.1 20190827 (Red Hat 9.2.1-1)
REM options -cpp -mtune=generic -march=x86-64 -g -O0 -fpre-include=/usr/include/finclude/math-vector-fortran.h
REM seed 822096227 -48846503 -1032444010 -399119554 -1714180507 1799096044 -1127734760 -1590578410 1411746694 -1854485424 1554670556 -1180860080 922288289 -1880090541 -1107962066 -1666603970 -1860556115 759948183 -982558989 -368108182 1895110352 1048648246 391881409 -524712747 2110265236 -1462197676 -56168808 1139396065 -1801758772 -1102909591 1178228192 1917104353 -1216371747
REM
CELL 1.54180   50.00000   50.00000   50.00000   90.00000   90.00000   90.00000
LATT -1
SFAC C  
C      1  0.4170090000000  0.5286470000000  0.4790080000000 1.0
C      1  0.5243910000000  0.5294230000000  0.5819100000000 1.0
C      1  0.5595910000000  0.5303600000000  0.4379140000000 1.0
C      1  0.4166690000000  0.4711390000000  0.5210680000000 1.0
C      1  0.5238560000000  0.4720940000000  0.4180080000000 1.0
C      1  0.5589350000000  0.4703990000000  0.5623580000000 1.0
C      1  0.5829910000000  0.4713530000000  0.5209920000000 1.0
C      1  0.4756090000000  0.4705770000000  0.4180900000000 1.0
C      1  0.4404090000000  0.4696400000000  0.5620860000000 1.0
C      1  0.5833310000000  0.5288610000000  0.4789320000000 1.0
C      1  0.4761440000000  0.5279060000000  0.5819920000000 1.0
C      1  0.4410650000000  0.5296010000000  0.4376420000000 1.0
C      1  0.4251260000000  0.4944150000000  0.5624550000000 1.0
C      1  0.5896450000000  0.4957880000000  0.5353550000000 1.0
C      1  0.4833960000000  0.4949280000000  0.4042220000000 1.0
C      1  0.4252980000000  0.5051310000000  0.4375240000000 1.0
C      1  0.5898490000000  0.5043130000000  0.4646500000000 1.0
C      1  0.4856550000000  0.5037580000000  0.5952150000000 1.0
C      1  0.5748740000000  0.5055850000000  0.4375450000000 1.0
C      1  0.4103550000000  0.5042120000000  0.4646450000000 1.0
C      1  0.5166040000000  0.5050720000000  0.5957780000000 1.0
C      1  0.5747020000000  0.4948690000000  0.5624760000000 1.0
C      1  0.4101510000000  0.4956870000000  0.5353500000000 1.0
C      1  0.5143450000000  0.4962420000000  0.4047850000000 1.0
C      1  0.4845590000000  0.4747560000000  0.5812190000000 1.0
C      1  0.5775190000000  0.4758220000000  0.4730500000000 1.0
C      1  0.4375090000000  0.4773000000000  0.4472670000000 1.0
C      1  0.4853790000000  0.5229820000000  0.4192610000000 1.0
C      1  0.5778760000000  0.5244580000000  0.5268580000000 1.0
C      1  0.4378920000000  0.5219580000000  0.5527820000000 1.0
C      1  0.5154410000000  0.5252440000000  0.4187810000000 1.0
C      1  0.4224810000000  0.5241780000000  0.5269500000000 1.0
C      1  0.5624910000000  0.5227000000000  0.5527330000000 1.0
C      1  0.5146210000000  0.4770180000000  0.5807390000000 1.0
C      1  0.4221240000000  0.4755420000000  0.4731420000000 1.0
C      1  0.5621080000000  0.4780420000000  0.4472180000000 1.0
C      1  0.4871600000000  0.5951150000000  0.4528130000000 1.0
C      1  0.4634570000000  0.5948100000000  0.5356940000000 1.0
C      1  0.5526340000000  0.5951670000000  0.5082340000000 1.0
C      1  0.4815290000000  0.4040540000000  0.5485680000000 1.0
C      1  0.4640850000000  0.4046730000000  0.4652380000000 1.0
C      1  0.5533050000000  0.4047850000000  0.4908840000000 1.0
C      1  0.5128400000000  0.4048850000000  0.5471870000000 1.0
C      1  0.5365430000000  0.4051900000000  0.4643060000000 1.0
C      1  0.4473660000000  0.4048330000000  0.4917660000000 1.0
C      1  0.5184710000000  0.5959460000000  0.4514320000000 1.0
C      1  0.5359150000000  0.5953270000000  0.5347620000000 1.0
C      1  0.4466950000000  0.5952150000000  0.5091160000000 1.0
C      1  0.5658000000000  0.5303700000000  0.5015630000000 1.0
C      1  0.4693540000000  0.5305140000000  0.4418600000000 1.0
C      1  0.4656760000000  0.5288320000000  0.5552820000000 1.0
C      1  0.5654110000000  0.4700160000000  0.4983720000000 1.0
C      1  0.4687140000000  0.4682360000000  0.5582440000000 1.0
C      1  0.4651390000000  0.4698290000000  0.4447270000000 1.0
C      1  0.4342000000000  0.4696300000000  0.4984370000000 1.0
C      1  0.5306460000000  0.4694860000000  0.5581400000000 1.0
C      1  0.5343240000000  0.4711680000000  0.4447180000000 1.0
C      1  0.4345890000000  0.5299840000000  0.5016280000000 1.0
C      1  0.5312860000000  0.5317640000000  0.4417560000000 1.0
C      1  0.5348610000000  0.5301710000000  0.5552730000000 1.0
C      1  0.4816630000000  0.4605200000000  0.4690980000000 1.0
C      1  0.4817260000000  0.4599220000000  0.5316850000000 1.0
C      1  0.5361350000000  0.4605090000000  0.5002270000000 1.0
C      1  0.4819800000000  0.5390050000000  0.5310060000000 1.0
C      1  0.4821860000000  0.5394120000000  0.4684040000000 1.0
C      1  0.5364950000000  0.5395960000000  0.4996990000000 1.0
C      1  0.5183370000000  0.5394800000000  0.5309020000000 1.0
C      1  0.5182740000000  0.5400780000000  0.4683150000000 1.0
C      1  0.4638650000000  0.5394910000000  0.4997730000000 1.0
C      1  0.5180200000000  0.4609950000000  0.4689940000000 1.0
C      1  0.5178140000000  0.4605880000000  0.5315960000000 1.0
C      1  0.4635050000000  0.4604040000000  0.5003010000000 1.0
C      1  0.4846160000000  0.5722280000000  0.5287390000000 1.0
C      1  0.5314090000000  0.5724840000000  0.4998120000000 1.0
C      1  0.4829640000000  0.5720030000000  0.4739930000000 1.0
C      1  0.4850940000000  0.4274850000000  0.4715450000000 1.0
C      1  0.5321020000000  0.4272910000000  0.4997350000000 1.0
C      1  0.4840150000000  0.4272230000000  0.5263610000000 1.0
C      1  0.5153840000000  0.4277720000000  0.4712610000000 1.0
C      1  0.4685910000000  0.4275160000000  0.5001880000000 1.0
C      1  0.5170360000000  0.4279970000000  0.5260070000000 1.0
C      1  0.5149060000000  0.5725150000000  0.5284550000000 1.0
C      1  0.4678980000000  0.5727090000000  0.5002650000000 1.0
C      1  0.5159850000000  0.5727770000000  0.4736390000000 1.0
END
