TITL C-862131-2149-777 100.053400261687 125000 -85.9089653537708 0 0 17 (C1) n - 1
REM
REM in /home/nfs/bkarasulu/CARBON/AIRSS/Generating-Clusters/TERSOFF/Higher-Symm/FIRE-HFTN
REM
REM
REM
REM
REM
REM ./C.cell (b20cbc046b6831c77cfcea5457e17084)
REM AIRSS Version 0.9.1 bugfix July 2018 build 013d7b7c2542+ Fri, 06 Jul 2018 19:26:36 +0100
REM compiler GCC version 9.2.1 20190827 (Red Hat 9.2.1-1)
REM options -cpp -mtune=generic -march=x86-64 -g -O0 -fpre-include=/usr/include/finclude/math-vector-fortran.h
REM seed 723736633 -50519574 874613057 1426651058 -158111218 -209168830 -1806607699 -1412108282 -629367768 1670795146 -765297965 -420682540 -1131843285 -870050399 -361598460 234793713 1859000142 1927405835 803881233 1381999028 2008948336 61076841 686774928 2020186841 761144602 1595849233 -682357538 1903292727 -994557115 -1385923691 -515681726 2042249160 -1608920536
REM
CELL 1.54180   50.00000   50.00000   50.00000   90.00000   90.00000   90.00000
LATT -1
SFAC C  
C      1  0.4630710000000  0.4643610000000  0.4844520000000 1.0
C      1  0.4697240000000  0.4920930000000  0.4877390000000 1.0
C      1  0.4531910000000  0.5146500000000  0.4810800000000 1.0
C      1  0.4656430000000  0.5407690000000  0.4772060000000 1.0
C      1  0.4949620000000  0.5454480000000  0.4758760000000 1.0
C      1  0.5146780000000  0.5358720000000  0.4959240000000 1.0
C      1  0.5403360000000  0.5218700000000  0.4896870000000 1.0
C      1  0.5445590000000  0.4922080000000  0.4904970000000 1.0
C      1  0.5278860000000  0.4720260000000  0.4764860000000 1.0
C      1  0.5126530000000  0.4504000000000  0.4895880000000 1.0
C      1  0.4841870000000  0.4444230000000  0.4846050000000 1.0
C      1  0.4974810000000  0.4983020000000  0.5404660000000 1.0
C      1  0.5105510000000  0.5020710000000  0.5660150000000 1.0
C      1  0.5008970000000  0.5015680000000  0.4375160000000 1.0
C      1  0.5109310000000  0.4985610000000  0.5148380000000 1.0
C      1  0.5099460000000  0.5079740000000  0.4642530000000 1.0
C      1  0.4974490000000  0.4982150000000  0.4889470000000 1.0
END
