TITL C-862134-6730-1030 3.45224509532956 125000 -327.925103157981 0 0 58 (C1) n - 1
REM
REM in /home/nfs/bkarasulu/CARBON/AIRSS/Generating-Clusters/TERSOFF/Higher-Symm/FIRE-HFTN
REM
REM
REM
REM
REM
REM ./C.cell (b20cbc046b6831c77cfcea5457e17084)
REM AIRSS Version 0.9.1 bugfix July 2018 build 013d7b7c2542+ Fri, 06 Jul 2018 19:26:36 +0100
REM compiler GCC version 9.2.1 20190827 (Red Hat 9.2.1-1)
REM options -cpp -mtune=generic -march=x86-64 -g -O0 -fpre-include=/usr/include/finclude/math-vector-fortran.h
REM seed 1029321006 -1343816304 -357879240 -271515001 -1132987695 -1811093460 793027629 375786722 366420124 2141106727 -1150034201 -775314164 465674805 -990912851 -1934273904 909253127 110393646 2089450159 -1270695719 -321659902 -2047371248 -1222395554 995440215 518452331 -182768283 -1050198041 382823451 377594410 -2029314769 1626430874 1654108522 2023645505 -220226583
REM
CELL 1.54180   50.00000   50.00000   50.00000   90.00000   90.00000   90.00000
LATT -1
SFAC C  
C      1  0.4835050000000  0.4443300000000  0.5414710000000 1.0
C      1  0.5424840000000  0.4845870000000  0.4455380000000 1.0
C      1  0.4411760000000  0.5422870000000  0.4823850000000 1.0
C      1  0.5142750000000  0.5537250000000  0.5422470000000 1.0
C      1  0.5140960000000  0.4472890000000  0.4617890000000 1.0
C      1  0.4853940000000  0.5572810000000  0.4633820000000 1.0
C      1  0.4610830000000  0.5178530000000  0.4443540000000 1.0
C      1  0.4629630000000  0.4885830000000  0.5525870000000 1.0
C      1  0.5438130000000  0.5167140000000  0.5544260000000 1.0
C      1  0.5560200000000  0.4598590000000  0.4856420000000 1.0
C      1  0.5502500000000  0.5433130000000  0.5125130000000 1.0
C      1  0.4462960000000  0.4608800000000  0.5143540000000 1.0
C      1  0.5097940000000  0.4228330000000  0.4785170000000 1.0
C      1  0.4803300000000  0.5134280000000  0.4225100000000 1.0
C      1  0.4204590000000  0.4743450000000  0.5089150000000 1.0
C      1  0.4868660000000  0.5811270000000  0.4812460000000 1.0
C      1  0.4853530000000  0.4191140000000  0.5255490000000 1.0
C      1  0.5078480000000  0.5802320000000  0.5302690000000 1.0
C      1  0.5268210000000  0.4894440000000  0.4210860000000 1.0
C      1  0.5287730000000  0.5122130000000  0.5797250000000 1.0
C      1  0.4799700000000  0.4913990000000  0.5770870000000 1.0
C      1  0.5745820000000  0.5291690000000  0.5030350000000 1.0
C      1  0.5790850000000  0.4786110000000  0.4886910000000 1.0
C      1  0.4204470000000  0.5211940000000  0.4846150000000 1.0
C      1  0.4984470000000  0.5045970000000  0.5368430000000 1.0
C      1  0.5404530000000  0.4897620000000  0.5106870000000 1.0
C      1  0.5001420000000  0.5401290000000  0.4987590000000 1.0
C      1  0.5131840000000  0.4844490000000  0.5523410000000 1.0
C      1  0.5109170000000  0.5139160000000  0.4512870000000 1.0
C      1  0.4915780000000  0.4941570000000  0.4610180000000 1.0
C      1  0.4600430000000  0.5137410000000  0.5067400000000 1.0
C      1  0.4515280000000  0.4931270000000  0.4878020000000 1.0
C      1  0.5398870000000  0.5097440000000  0.4895150000000 1.0
C      1  0.4944730000000  0.4611240000000  0.4962370000000 1.0
C      1  0.4790320000000  0.5549410000000  0.5131330000000 1.0
C      1  0.5141430000000  0.4468560000000  0.5126920000000 1.0
C      1  0.4512050000000  0.5547940000000  0.5060990000000 1.0
C      1  0.5070810000000  0.4561590000000  0.5530320000000 1.0
C      1  0.5505460000000  0.5061930000000  0.4628300000000 1.0
C      1  0.5430520000000  0.4478900000000  0.5087560000000 1.0
C      1  0.5277980000000  0.5496350000000  0.4945650000000 1.0
C      1  0.4659220000000  0.4541790000000  0.4938360000000 1.0
C      1  0.4942710000000  0.5325070000000  0.5451940000000 1.0
C      1  0.4921520000000  0.4653870000000  0.4545250000000 1.0
C      1  0.5096420000000  0.5427130000000  0.4564640000000 1.0
C      1  0.4496700000000  0.4959490000000  0.4589800000000 1.0
C      1  0.4565670000000  0.5121980000000  0.5360800000000 1.0
C      1  0.5512100000000  0.4942040000000  0.5374370000000 1.0
C      1  0.5809330000000  0.5007340000000  0.5084920000000 1.0
C      1  0.5086290000000  0.5864350000000  0.5010090000000 1.0
C      1  0.4164690000000  0.5037760000000  0.5083300000000 1.0
C      1  0.4862070000000  0.4174810000000  0.4957130000000 1.0
C      1  0.4990830000000  0.5136180000000  0.5823850000000 1.0
C      1  0.4973870000000  0.4895280000000  0.4196800000000 1.0
C      1  0.5405940000000  0.4596210000000  0.4605670000000 1.0
C      1  0.4599770000000  0.5427880000000  0.4595100000000 1.0
C      1  0.4598810000000  0.4619970000000  0.5400540000000 1.0
C      1  0.5413080000000  0.5424930000000  0.5404920000000 1.0
END
