TITL C-862501-1041-1439 0.00615310192680002 125000 -708.175599547118 0 0 124 (C2) n - 1
REM
REM in /home/nfs/bkarasulu/CARBON/AIRSS/Generating-Clusters/TERSOFF/Higher-Symm/FIRE-HFTN
REM
REM
REM
REM
REM
REM ./C.cell (b20cbc046b6831c77cfcea5457e17084)
REM AIRSS Version 0.9.1 bugfix July 2018 build 013d7b7c2542+ Fri, 06 Jul 2018 19:26:36 +0100
REM compiler GCC version 9.2.1 20190827 (Red Hat 9.2.1-1)
REM options -cpp -mtune=generic -march=x86-64 -g -O0 -fpre-include=/usr/include/finclude/math-vector-fortran.h
REM seed 2005297069 -1845472553 82842619 124784710 -1928135228 -1631824924 -1980309728 1924769871 -1918733240 764023463 -232302864 -849563966 1758679462 -1827872089 1630151798 -1627468453 -279311072 -1508131071 1717873845 385529570 1111332255 -1381698500 1323140560 1870834700 -1668158958 -1760445289 -715602711 -1283095775 -161687793 1261808458 -714809761 515624069 -1260528461
REM
CELL 1.54180   50.00000   50.00000   50.00000   90.00000   90.00000   90.00000
LATT -1
SFAC C  
C      1  0.5625500000000  0.5315630000000  0.4461480000000 1.0
C      1  0.5625490000000  0.4684370000000  0.5538530000000 1.0
C      1  0.4377810000000  0.5271440000000  0.4490070000000 1.0
C      1  0.4377800000000  0.4728560000000  0.5509930000000 1.0
C      1  0.5613970000000  0.4722200000000  0.4487330000000 1.0
C      1  0.5613970000000  0.5277800000000  0.5512670000000 1.0
C      1  0.4361740000000  0.4677980000000  0.4459750000000 1.0
C      1  0.4361730000000  0.5322020000000  0.5540250000000 1.0
C      1  0.6078510000000  0.5030860000000  0.4681690000000 1.0
C      1  0.6078500000000  0.4969130000000  0.5318320000000 1.0
C      1  0.4011640000000  0.4817310000000  0.4775960000000 1.0
C      1  0.4011640000000  0.5182690000000  0.5224030000000 1.0
C      1  0.5884010000000  0.5205650000000  0.4809940000000 1.0
C      1  0.5884010000000  0.4794340000000  0.5190070000000 1.0
C      1  0.3829350000000  0.5017060000000  0.4668770000000 1.0
C      1  0.3829350000000  0.4982940000000  0.5331220000000 1.0
C      1  0.4293760000000  0.5169670000000  0.5300960000000 1.0
C      1  0.4293760000000  0.4830330000000  0.4699040000000 1.0
C      1  0.5508240000000  0.5112210000000  0.5294520000000 1.0
C      1  0.5508250000000  0.4887780000000  0.4705480000000 1.0
C      1  0.4437880000000  0.4904490000000  0.5275130000000 1.0
C      1  0.4437880000000  0.5095510000000  0.4724870000000 1.0
C      1  0.5596160000000  0.4828210000000  0.5274390000000 1.0
C      1  0.5596160000000  0.5171790000000  0.4725610000000 1.0
C      1  0.4537800000000  0.4261430000000  0.4740890000000 1.0
C      1  0.4537800000000  0.5738570000000  0.5259100000000 1.0
C      1  0.5503200000000  0.4239860000000  0.4754930000000 1.0
C      1  0.5503200000000  0.5760140000000  0.5245080000000 1.0
C      1  0.4535200000000  0.5715410000000  0.4754790000000 1.0
C      1  0.4535200000000  0.4284590000000  0.5245210000000 1.0
C      1  0.5504820000000  0.5790300000000  0.4718450000000 1.0
C      1  0.5504820000000  0.4209700000000  0.5281550000000 1.0
C      1  0.5184980000000  0.4834230000000  0.3820310000000 1.0
C      1  0.5184980000000  0.5165770000000  0.6179690000000 1.0
C      1  0.4846190000000  0.4838310000000  0.3817700000000 1.0
C      1  0.4846180000000  0.5161690000000  0.6182300000000 1.0
C      1  0.5169270000000  0.5156690000000  0.3825220000000 1.0
C      1  0.5169260000000  0.4843310000000  0.6174780000000 1.0
C      1  0.4831740000000  0.5161700000000  0.3820880000000 1.0
C      1  0.4831730000000  0.4838300000000  0.6179120000000 1.0
C      1  0.5365640000000  0.4410790000000  0.4236800000000 1.0
C      1  0.5365640000000  0.5589210000000  0.5763210000000 1.0
C      1  0.4666890000000  0.4400180000000  0.4244470000000 1.0
C      1  0.4666890000000  0.5599820000000  0.5755530000000 1.0
C      1  0.5341030000000  0.5599480000000  0.4217660000000 1.0
C      1  0.5341020000000  0.4400520000000  0.5782340000000 1.0
C      1  0.4646770000000  0.5581590000000  0.4250090000000 1.0
C      1  0.4646760000000  0.4418410000000  0.5749910000000 1.0
C      1  0.4637670000000  0.4704590000000  0.5960460000000 1.0
C      1  0.4637680000000  0.5295410000000  0.4039530000000 1.0
C      1  0.5352050000000  0.4700850000000  0.5960940000000 1.0
C      1  0.5352060000000  0.5299150000000  0.4039060000000 1.0
C      1  0.4654640000000  0.5311910000000  0.5971680000000 1.0
C      1  0.4654650000000  0.4688090000000  0.4028320000000 1.0
C      1  0.5373080000000  0.5298430000000  0.5959660000000 1.0
C      1  0.5373090000000  0.4701570000000  0.4040340000000 1.0
C      1  0.4431670000000  0.4832650000000  0.4211200000000 1.0
C      1  0.4431660000000  0.5167350000000  0.5788790000000 1.0
C      1  0.5593130000000  0.4856960000000  0.4215110000000 1.0
C      1  0.5593120000000  0.5143040000000  0.5784900000000 1.0
C      1  0.4423970000000  0.5134570000000  0.4220170000000 1.0
C      1  0.4423970000000  0.4865430000000  0.5779820000000 1.0
C      1  0.5585550000000  0.5158440000000  0.4206920000000 1.0
C      1  0.5585550000000  0.4841560000000  0.5793080000000 1.0
C      1  0.5174000000000  0.4252850000000  0.4841880000000 1.0
C      1  0.5174000000000  0.5747150000000  0.5158120000000 1.0
C      1  0.4823510000000  0.4344490000000  0.4835310000000 1.0
C      1  0.4823510000000  0.5655520000000  0.5164680000000 1.0
C      1  0.5167610000000  0.5770600000000  0.4825340000000 1.0
C      1  0.5167610000000  0.4229400000000  0.5174660000000 1.0
C      1  0.4828620000000  0.5653200000000  0.4848700000000 1.0
C      1  0.4828620000000  0.4346800000000  0.5151300000000 1.0
C      1  0.5155920000000  0.4557800000000  0.4425400000000 1.0
C      1  0.5155920000000  0.5442200000000  0.5574600000000 1.0
C      1  0.4853360000000  0.4589350000000  0.4412110000000 1.0
C      1  0.4853350000000  0.5410650000000  0.5587890000000 1.0
C      1  0.5153090000000  0.5447940000000  0.4423190000000 1.0
C      1  0.5153090000000  0.4552060000000  0.5576810000000 1.0
C      1  0.4853820000000  0.5407390000000  0.4412860000000 1.0
C      1  0.4853820000000  0.4592610000000  0.5587140000000 1.0
C      1  0.6087470000000  0.5251630000000  0.5269570000000 1.0
C      1  0.6087470000000  0.4748370000000  0.4730440000000 1.0
C      1  0.3919760000000  0.5367780000000  0.5020660000000 1.0
C      1  0.3919760000000  0.4632220000000  0.4979330000000 1.0
C      1  0.5960970000000  0.4634470000000  0.4961080000000 1.0
C      1  0.5960970000000  0.5365530000000  0.5038920000000 1.0
C      1  0.3809320000000  0.4714390000000  0.5231250000000 1.0
C      1  0.3809320000000  0.5285610000000  0.4768750000000 1.0
C      1  0.4842860000000  0.5148960000000  0.4245150000000 1.0
C      1  0.4842860000000  0.4851040000000  0.5754840000000 1.0
C      1  0.5170770000000  0.5161710000000  0.4271380000000 1.0
C      1  0.5170770000000  0.4838290000000  0.5728620000000 1.0
C      1  0.4850710000000  0.4841500000000  0.4237550000000 1.0
C      1  0.4850710000000  0.5158500000000  0.5762440000000 1.0
C      1  0.5176670000000  0.4834100000000  0.4262630000000 1.0
C      1  0.5176670000000  0.5165900000000  0.5737370000000 1.0
C      1  0.4736310000000  0.4865140000000  0.5165850000000 1.0
C      1  0.4736310000000  0.5134860000000  0.4834150000000 1.0
C      1  0.5362020000000  0.4702240000000  0.5144390000000 1.0
C      1  0.5362030000000  0.5297760000000  0.4855610000000 1.0
C      1  0.4910960000000  0.5156200000000  0.5146220000000 1.0
C      1  0.4910960000000  0.4843800000000  0.4853780000000 1.0
C      1  0.5266310000000  0.5215890000000  0.5125230000000 1.0
C      1  0.5266310000000  0.4784110000000  0.4874770000000 1.0
C      1  0.4448080000000  0.5572210000000  0.4498150000000 1.0
C      1  0.4448080000000  0.4427790000000  0.5501850000000 1.0
C      1  0.5559740000000  0.5618980000000  0.4455930000000 1.0
C      1  0.5559740000000  0.4381020000000  0.5544070000000 1.0
C      1  0.4454370000000  0.4388860000000  0.4476400000000 1.0
C      1  0.4454370000000  0.5611140000000  0.5523590000000 1.0
C      1  0.5569900000000  0.4409840000000  0.4493890000000 1.0
C      1  0.5569900000000  0.5590160000000  0.5506120000000 1.0
C      1  0.5211010000000  0.5463190000000  0.5292170000000 1.0
C      1  0.5211010000000  0.4536810000000  0.4707830000000 1.0
C      1  0.4798340000000  0.5387270000000  0.5298650000000 1.0
C      1  0.4798340000000  0.4612730000000  0.4701350000000 1.0
C      1  0.5214440000000  0.4511760000000  0.5295280000000 1.0
C      1  0.5214440000000  0.5488240000000  0.4704720000000 1.0
C      1  0.4806080000000  0.4608350000000  0.5300530000000 1.0
C      1  0.4806080000000  0.5391650000000  0.4699460000000 1.0
C      1  0.4372460000000  0.4244650000000  0.4993940000000 1.0
C      1  0.5657720000000  0.4230140000000  0.5016400000000 1.0
C      1  0.4372460000000  0.5755350000000  0.5006050000000 1.0
C      1  0.5657720000000  0.5769860000000  0.4983610000000 1.0
END
