TITL C-862132-7359-447 6.7895824674599 125000 -205.836144603718 0 0 42 (C1) n - 1
REM
REM in /home/nfs/bkarasulu/CARBON/AIRSS/Generating-Clusters/TERSOFF/Higher-Symm/FIRE-HFTN
REM
REM
REM
REM
REM
REM ./C.cell (b20cbc046b6831c77cfcea5457e17084)
REM AIRSS Version 0.9.1 bugfix July 2018 build 013d7b7c2542+ Fri, 06 Jul 2018 19:26:36 +0100
REM compiler GCC version 9.2.1 20190827 (Red Hat 9.2.1-1)
REM options -cpp -mtune=generic -march=x86-64 -g -O0 -fpre-include=/usr/include/finclude/math-vector-fortran.h
REM seed 90595536 1714854946 -269904302 531130527 1310330984 -764930204 -2026172257 256401673 -1668551578 1595795536 633044901 94089630 2006048137 690509197 -1883375428 -435937831 1583647018 949723437 1834689228 1213984758 1943563773 200767505 1358773781 -1647726561 -1009275478 888680656 -132243554 1290433733 1834698049 -751543599 1810232374 -550291953 -1281238194
REM
CELL 1.54180   50.00000   50.00000   50.00000   90.00000   90.00000   90.00000
LATT -1
SFAC C  
C      1  0.4652810000000  0.4423090000000  0.4772560000000 1.0
C      1  0.4776660000000  0.4876470000000  0.4567510000000 1.0
C      1  0.4664460000000  0.4796770000000  0.4963840000000 1.0
C      1  0.4833160000000  0.5491170000000  0.5124950000000 1.0
C      1  0.5194920000000  0.5545350000000  0.4752800000000 1.0
C      1  0.5299860000000  0.4450140000000  0.5212100000000 1.0
C      1  0.4736350000000  0.5160820000000  0.5417390000000 1.0
C      1  0.5297330000000  0.5131700000000  0.4423580000000 1.0
C      1  0.5226540000000  0.4800520000000  0.5484480000000 1.0
C      1  0.4364040000000  0.5037030000000  0.5268140000000 1.0
C      1  0.5562490000000  0.5167830000000  0.4746570000000 1.0
C      1  0.5593850000000  0.4894920000000  0.5304540000000 1.0
C      1  0.5131630000000  0.4393270000000  0.4744680000000 1.0
C      1  0.5170650000000  0.4744390000000  0.4517780000000 1.0
C      1  0.5460910000000  0.4774530000000  0.4852640000000 1.0
C      1  0.5223470000000  0.5484530000000  0.5279730000000 1.0
C      1  0.4713690000000  0.5672720000000  0.4700770000000 1.0
C      1  0.4836660000000  0.4356380000000  0.5228410000000 1.0
C      1  0.5125080000000  0.5197790000000  0.5569750000000 1.0
C      1  0.4888550000000  0.5275920000000  0.4502020000000 1.0
C      1  0.4833460000000  0.4759340000000  0.5346420000000 1.0
C      1  0.5439130000000  0.5284310000000  0.5304830000000 1.0
C      1  0.4494320000000  0.5246080000000  0.4823560000000 1.0
C      1  0.4439840000000  0.4615830000000  0.5293160000000 1.0
C      1  0.5056130000000  0.4504510000000  0.5393740000000 1.0
C      1  0.5494190000000  0.4881300000000  0.4542950000000 1.0
C      1  0.4953870000000  0.5557300000000  0.4570080000000 1.0
C      1  0.5444950000000  0.5055040000000  0.5556310000000 1.0
C      1  0.4602450000000  0.5159760000000  0.4559170000000 1.0
C      1  0.4531090000000  0.4867850000000  0.5471140000000 1.0
C      1  0.4603930000000  0.5508950000000  0.4924720000000 1.0
C      1  0.4624140000000  0.4500010000000  0.5074050000000 1.0
C      1  0.5314870000000  0.4526110000000  0.4931580000000 1.0
C      1  0.5457550000000  0.5436140000000  0.4664440000000 1.0
C      1  0.4886160000000  0.4537870000000  0.4598920000000 1.0
C      1  0.4910800000000  0.5452770000000  0.5456950000000 1.0
C      1  0.5019730000000  0.5012810000000  0.5279890000000 1.0
C      1  0.5474100000000  0.5044940000000  0.5037680000000 1.0
C      1  0.5105160000000  0.5419550000000  0.5002910000000 1.0
C      1  0.5064560000000  0.5046330000000  0.4656640000000 1.0
C      1  0.4476930000000  0.5018220000000  0.5004690000000 1.0
C      1  0.5139900000000  0.5107870000000  0.4988080000000 1.0
END
