TITL C-862501-1041-1124 -0.0217023115755202 125000 -657.735457273438 0 0 122 (D3) n - 1
REM
REM in /home/nfs/bkarasulu/CARBON/AIRSS/Generating-Clusters/TERSOFF/Higher-Symm/FIRE-HFTN
REM
REM
REM
REM
REM
REM ./C.cell (b20cbc046b6831c77cfcea5457e17084)
REM AIRSS Version 0.9.1 bugfix July 2018 build 013d7b7c2542+ Fri, 06 Jul 2018 19:26:36 +0100
REM compiler GCC version 9.2.1 20190827 (Red Hat 9.2.1-1)
REM options -cpp -mtune=generic -march=x86-64 -g -O0 -fpre-include=/usr/include/finclude/math-vector-fortran.h
REM seed -27782564 1485520086 -371688610 -658732212 -1790758692 -30013875 541879889 -1542462819 -1564190989 -1539738882 -2011391339 1255634137 -1590523585 -1546740008 332649305 -345584257 6188521 408682777 -1700001721 -927423448 -1416683682 -760546454 1753849568 -822289883 444413853 1179083855 39727737 -1004208905 526177559 1807478828 1041516570 -560200247 -1208886252
REM
CELL 1.54180   50.00000   50.00000   50.00000   90.00000   90.00000   90.00000
LATT -1
SFAC C  
C      1  0.4198650000000  0.5088010000000  0.5603140000000 1.0
C      1  0.5130480000000  0.5061790000000  0.6005250000000 1.0
C      1  0.5927330000000  0.5088020000000  0.5383330000000 1.0
C      1  0.5809660000000  0.5061790000000  0.4375280000000 1.0
C      1  0.4872630000000  0.5088010000000  0.3996140000000 1.0
C      1  0.4058470000000  0.5061780000000  0.4602070000000 1.0
C      1  0.4198640000000  0.4922240000000  0.4385270000000 1.0
C      1  0.5130470000000  0.4948470000000  0.3983150000000 1.0
C      1  0.5927330000000  0.4922250000000  0.4605070000000 1.0
C      1  0.5809670000000  0.4948470000000  0.5613120000000 1.0
C      1  0.4872640000000  0.4922240000000  0.5992260000000 1.0
C      1  0.4058470000000  0.4948460000000  0.5386340000000 1.0
C      1  0.5115270000000  0.4673630000000  0.4069060000000 1.0
C      1  0.4290280000000  0.4659450000000  0.4459150000000 1.0
C      1  0.4140480000000  0.4673630000000  0.5356540000000 1.0
C      1  0.4890800000000  0.4659450000000  0.5875960000000 1.0
C      1  0.5742860000000  0.4673630000000  0.5557000000000 1.0
C      1  0.5817530000000  0.4659460000000  0.4647490000000 1.0
C      1  0.5115280000000  0.5336620000000  0.5919340000000 1.0
C      1  0.4290280000000  0.5350800000000  0.5529250000000 1.0
C      1  0.4140470000000  0.5336620000000  0.4631870000000 1.0
C      1  0.4890790000000  0.5350800000000  0.4112440000000 1.0
C      1  0.5742860000000  0.5336630000000  0.4431400000000 1.0
C      1  0.5817530000000  0.5350810000000  0.5340910000000 1.0
C      1  0.4748670000000  0.5353380000000  0.5715740000000 1.0
C      1  0.5460490000000  0.5327460000000  0.5559290000000 1.0
C      1  0.5749840000000  0.5353390000000  0.4850690000000 1.0
C      1  0.5258440000000  0.5327460000000  0.4312460000000 1.0
C      1  0.4500090000000  0.5353380000000  0.4416180000000 1.0
C      1  0.4279670000000  0.5327450000000  0.5110860000000 1.0
C      1  0.4748670000000  0.4656870000000  0.4272660000000 1.0
C      1  0.5460490000000  0.4682800000000  0.4429110000000 1.0
C      1  0.5749850000000  0.4656880000000  0.5137710000000 1.0
C      1  0.5258450000000  0.4682800000000  0.5675940000000 1.0
C      1  0.4500100000000  0.4656870000000  0.5572230000000 1.0
C      1  0.4279680000000  0.4682790000000  0.4877550000000 1.0
C      1  0.5290000000000  0.6072010000000  0.4907250000000 1.0
C      1  0.5070510000000  0.6091830000000  0.4694410000000 1.0
C      1  0.4778990000000  0.6072010000000  0.4786130000000 1.0
C      1  0.4704410000000  0.6091830000000  0.5082630000000 1.0
C      1  0.4929600000000  0.6072010000000  0.5289230000000 1.0
C      1  0.5223670000000  0.6091830000000  0.5205570000000 1.0
C      1  0.5290010000000  0.3938250000000  0.5081150000000 1.0
C      1  0.5070520000000  0.3918420000000  0.5294000000000 1.0
C      1  0.4779010000000  0.3938250000000  0.5202280000000 1.0
C      1  0.4704420000000  0.3918420000000  0.4905770000000 1.0
C      1  0.4929610000000  0.3938250000000  0.4699170000000 1.0
C      1  0.5223680000000  0.3918430000000  0.4782830000000 1.0
C      1  0.4729580000000  0.4657760000000  0.4828080000000 1.0
C      1  0.4649930000000  0.4674100000000  0.5182260000000 1.0
C      1  0.4990650000000  0.4657760000000  0.5311060000000 1.0
C      1  0.5337210000000  0.4674110000000  0.5202940000000 1.0
C      1  0.5278390000000  0.4657760000000  0.4843470000000 1.0
C      1  0.5011480000000  0.4674100000000  0.4597400000000 1.0
C      1  0.4729570000000  0.5352500000000  0.5160330000000 1.0
C      1  0.4649920000000  0.5336150000000  0.4806150000000 1.0
C      1  0.4990650000000  0.5352500000000  0.4677350000000 1.0
C      1  0.5337200000000  0.5336150000000  0.4785460000000 1.0
C      1  0.5278380000000  0.5352500000000  0.5144930000000 1.0
C      1  0.5011480000000  0.5336150000000  0.5391000000000 1.0
C      1  0.5083270000000  0.4251700000000  0.5347300000000 1.0
C      1  0.5346280000000  0.4260310000000  0.5098340000000 1.0
C      1  0.5263460000000  0.4251700000000  0.4745140000000 1.0
C      1  0.4916360000000  0.4260300000000  0.4641840000000 1.0
C      1  0.4651880000000  0.4251690000000  0.4890170000000 1.0
C      1  0.4735980000000  0.4260300000000  0.5242410000000 1.0
C      1  0.5083260000000  0.5758560000000  0.4641110000000 1.0
C      1  0.5346270000000  0.5749950000000  0.4890060000000 1.0
C      1  0.5263460000000  0.5758560000000  0.5243260000000 1.0
C      1  0.4916360000000  0.5749950000000  0.5346560000000 1.0
C      1  0.4651880000000  0.5758560000000  0.5098240000000 1.0
C      1  0.4735970000000  0.5749950000000  0.4745990000000 1.0
C      1  0.5358290000000  0.5093930000000  0.4116190000000 1.0
C      1  0.4411830000000  0.5082940000000  0.4245050000000 1.0
C      1  0.4059780000000  0.5093920000000  0.5122520000000 1.0
C      1  0.4644600000000  0.5082940000000  0.5877750000000 1.0
C      1  0.5580540000000  0.5093930000000  0.5743900000000 1.0
C      1  0.5942180000000  0.5082950000000  0.4859810000000 1.0
C      1  0.5358300000000  0.4916330000000  0.5872210000000 1.0
C      1  0.4411840000000  0.4927310000000  0.5743360000000 1.0
C      1  0.4059780000000  0.4916330000000  0.4865890000000 1.0
C      1  0.4644600000000  0.4927310000000  0.4110660000000 1.0
C      1  0.5580530000000  0.4916330000000  0.4244500000000 1.0
C      1  0.5942180000000  0.4927320000000  0.5128590000000 1.0
C      1  0.5625920000000  0.4351990000000  0.5186120000000 1.0
C      1  0.5473410000000  0.4376410000000  0.4550600000000 1.0
C      1  0.4852560000000  0.4351980000000  0.4355780000000 1.0
C      1  0.4378430000000  0.4376410000000  0.4805620000000 1.0
C      1  0.4520140000000  0.4351980000000  0.5440700000000 1.0
C      1  0.5146770000000  0.4376410000000  0.5626390000000 1.0
C      1  0.5625910000000  0.5658280000000  0.4802280000000 1.0
C      1  0.5473410000000  0.5633850000000  0.5437800000000 1.0
C      1  0.4852560000000  0.5658270000000  0.5632620000000 1.0
C      1  0.4378430000000  0.5633840000000  0.5182790000000 1.0
C      1  0.4520130000000  0.5658270000000  0.4547710000000 1.0
C      1  0.5146760000000  0.5633850000000  0.4362010000000 1.0
C      1  0.5126440000000  0.5094240000000  0.4514900000000 1.0
C      1  0.4619630000000  0.5074490000000  0.4609840000000 1.0
C      1  0.4521000000000  0.5094230000000  0.5123950000000 1.0
C      1  0.4856630000000  0.5074490000000  0.5515390000000 1.0
C      1  0.5351170000000  0.5094240000000  0.5343750000000 1.0
C      1  0.5522360000000  0.5074490000000  0.4857370000000 1.0
C      1  0.5126440000000  0.4916020000000  0.5473500000000 1.0
C      1  0.4619630000000  0.4935770000000  0.5378560000000 1.0
C      1  0.4521000000000  0.4916020000000  0.4864460000000 1.0
C      1  0.4856620000000  0.4935770000000  0.4473010000000 1.0
C      1  0.5351170000000  0.4916020000000  0.4644650000000 1.0
C      1  0.5522360000000  0.4935770000000  0.5131030000000 1.0
C      1  0.5472850000000  0.4606010000000  0.5483340000000 1.0
C      1  0.5625430000000  0.4616360000000  0.4859840000000 1.0
C      1  0.5186490000000  0.4606010000000  0.4339730000000 1.0
C      1  0.4570240000000  0.4616360000000  0.4519350000000 1.0
C      1  0.4339270000000  0.4606000000000  0.5159530000000 1.0
C      1  0.4802950000000  0.4616360000000  0.5603420000000 1.0
C      1  0.5472840000000  0.5404260000000  0.4505060000000 1.0
C      1  0.5625420000000  0.5393900000000  0.5128560000000 1.0
C      1  0.5186490000000  0.5404250000000  0.5648670000000 1.0
C      1  0.4570240000000  0.5393890000000  0.5469060000000 1.0
C      1  0.4339270000000  0.5404250000000  0.4828880000000 1.0
C      1  0.4802940000000  0.5393900000000  0.4384990000000 1.0
C      1  0.4999530000000  0.5466880000000  0.4994200000000 1.0
C      1  0.4999540000000  0.4543370000000  0.4994200000000 1.0
END
