TITL C-862502-1143-279 0.000175879798237817 125000 -975.031097103616 0 0 185 (C1) n - 1
REM
REM in /home/nfs/bkarasulu/CARBON/AIRSS/Generating-Clusters/TERSOFF/Higher-Symm/FIRE-HFTN
REM
REM
REM
REM
REM
REM ./C.cell (b20cbc046b6831c77cfcea5457e17084)
REM AIRSS Version 0.9.1 bugfix July 2018 build 013d7b7c2542+ Fri, 06 Jul 2018 19:26:36 +0100
REM compiler GCC version 9.2.1 20190827 (Red Hat 9.2.1-1)
REM options -cpp -mtune=generic -march=x86-64 -g -O0 -fpre-include=/usr/include/finclude/math-vector-fortran.h
REM seed 313838447 329326118 530464727 -412225359 -363490849 -2095985444 -479076256 2043352316 624839809 -768567835 1255626239 779165094 1950419024 2048143034 1511452466 1456161373 809017686 -580237369 1060358821 753339825 496845825 219556757 -1015969234 -1358212717 -539956029 -2066767441 1107180638 -581547964 -846371651 -1669315621 -876809251 -276275740 1273070394
REM
CELL 1.54180   50.00000   50.00000   50.00000   90.00000   90.00000   90.00000
LATT -1
SFAC C  
C      1  0.4617450000000  0.4978000000000  0.4683050000000 1.0
C      1  0.4856840000000  0.5400230000000  0.4603760000000 1.0
C      1  0.5283330000000  0.5227550000000  0.4791050000000 1.0
C      1  0.5296130000000  0.4745490000000  0.4841560000000 1.0
C      1  0.4859090000000  0.4548480000000  0.4694920000000 1.0
C      1  0.5374840000000  0.4978820000000  0.4694130000000 1.0
C      1  0.5138120000000  0.5402170000000  0.4611020000000 1.0
C      1  0.4706070000000  0.5226570000000  0.4778710000000 1.0
C      1  0.4700100000000  0.4747920000000  0.4833380000000 1.0
C      1  0.5137790000000  0.4545550000000  0.4701100000000 1.0
C      1  0.4831820000000  0.5712550000000  0.5466210000000 1.0
C      1  0.5602840000000  0.5338580000000  0.5509380000000 1.0
C      1  0.5547910000000  0.4502830000000  0.5439790000000 1.0
C      1  0.4725430000000  0.4346460000000  0.5475670000000 1.0
C      1  0.4245900000000  0.5062860000000  0.5467900000000 1.0
C      1  0.5172740000000  0.5757700000000  0.5485340000000 1.0
C      1  0.4356250000000  0.5355540000000  0.5496680000000 1.0
C      1  0.4462350000000  0.4517430000000  0.5447080000000 1.0
C      1  0.5286770000000  0.4326060000000  0.5476090000000 1.0
C      1  0.5750460000000  0.5053930000000  0.5468810000000 1.0
C      1  0.4827280000000  0.3830480000000  0.4646000000000 1.0
C      1  0.3916620000000  0.4781620000000  0.4660990000000 1.0
C      1  0.4463640000000  0.6006370000000  0.4666580000000 1.0
C      1  0.5795170000000  0.5746790000000  0.4688120000000 1.0
C      1  0.5949300000000  0.4474470000000  0.4672380000000 1.0
C      1  0.5168410000000  0.3835360000000  0.4639150000000 1.0
C      1  0.6076290000000  0.4787250000000  0.4658840000000 1.0
C      1  0.5545400000000  0.6005070000000  0.4661010000000 1.0
C      1  0.4210040000000  0.5749720000000  0.4676820000000 1.0
C      1  0.4046240000000  0.4468870000000  0.4676690000000 1.0
C      1  0.5436940000000  0.5009320000000  0.4250480000000 1.0
C      1  0.5150280000000  0.4460930000000  0.4290220000000 1.0
C      1  0.4743260000000  0.4750190000000  0.4321730000000 1.0
C      1  0.4643070000000  0.5293210000000  0.4242060000000 1.0
C      1  0.5149840000000  0.5529750000000  0.4152490000000 1.0
C      1  0.4556040000000  0.5001940000000  0.4241070000000 1.0
C      1  0.4850350000000  0.4455590000000  0.4285720000000 1.0
C      1  0.5246190000000  0.4759100000000  0.4330140000000 1.0
C      1  0.5356370000000  0.5301290000000  0.4251410000000 1.0
C      1  0.4852050000000  0.5523880000000  0.4146800000000 1.0
C      1  0.4334190000000  0.4975540000000  0.4472960000000 1.0
C      1  0.4726900000000  0.5656910000000  0.4445510000000 1.0
C      1  0.5529230000000  0.5470150000000  0.4439130000000 1.0
C      1  0.5547190000000  0.4668870000000  0.4469350000000 1.0
C      1  0.4712400000000  0.4298660000000  0.4523000000000 1.0
C      1  0.5658590000000  0.4980970000000  0.4481540000000 1.0
C      1  0.5271150000000  0.5664900000000  0.4460050000000 1.0
C      1  0.4465040000000  0.5464560000000  0.4422860000000 1.0
C      1  0.4445280000000  0.4664000000000  0.4463850000000 1.0
C      1  0.5286380000000  0.4298470000000  0.4524720000000 1.0
C      1  0.5347340000000  0.6137410000000  0.4891230000000 1.0
C      1  0.6124960000000  0.4973050000000  0.4907400000000 1.0
C      1  0.5389120000000  0.3888880000000  0.4887000000000 1.0
C      1  0.4082670000000  0.4256340000000  0.4937770000000 1.0
C      1  0.4022170000000  0.5625510000000  0.4921610000000 1.0
C      1  0.4686720000000  0.6150980000000  0.4894260000000 1.0
C      1  0.3864300000000  0.4966870000000  0.4908360000000 1.0
C      1  0.4611200000000  0.3890640000000  0.4897330000000 1.0
C      1  0.5922580000000  0.4248670000000  0.4923040000000 1.0
C      1  0.5958360000000  0.5629320000000  0.4946980000000 1.0
C      1  0.4836680000000  0.5455750000000  0.3805610000000 1.0
C      1  0.5397220000000  0.5275170000000  0.3928280000000 1.0
C      1  0.5239220000000  0.4743560000000  0.3993340000000 1.0
C      1  0.4837530000000  0.4425890000000  0.3942310000000 1.0
C      1  0.4545750000000  0.4951960000000  0.3886630000000 1.0
C      1  0.5171510000000  0.5464330000000  0.3813730000000 1.0
C      1  0.4609920000000  0.5266650000000  0.3919950000000 1.0
C      1  0.4753670000000  0.4733400000000  0.3986770000000 1.0
C      1  0.5167510000000  0.4433380000000  0.3948200000000 1.0
C      1  0.5453930000000  0.4958350000000  0.3899730000000 1.0
C      1  0.4520960000000  0.5002500000000  0.6253710000000 1.0
C      1  0.4814300000000  0.5492830000000  0.6223920000000 1.0
C      1  0.5428370000000  0.5280590000000  0.6232490000000 1.0
C      1  0.5391110000000  0.4681490000000  0.6260860000000 1.0
C      1  0.4870640000000  0.4455910000000  0.6223000000000 1.0
C      1  0.5518590000000  0.4962930000000  0.6262410000000 1.0
C      1  0.5141380000000  0.5382250000000  0.6214700000000 1.0
C      1  0.4563810000000  0.5335070000000  0.6234420000000 1.0
C      1  0.4680120000000  0.4734730000000  0.6250920000000 1.0
C      1  0.5165370000000  0.4435890000000  0.6223380000000 1.0
C      1  0.5662450000000  0.5044790000000  0.5975880000000 1.0
C      1  0.5298630000000  0.4275430000000  0.5986140000000 1.0
C      1  0.4562400000000  0.4578170000000  0.5965410000000 1.0
C      1  0.4349650000000  0.5385840000000  0.5999320000000 1.0
C      1  0.5117620000000  0.5556810000000  0.5940780000000 1.0
C      1  0.4374580000000  0.5072530000000  0.5966900000000 1.0
C      1  0.4719700000000  0.4312290000000  0.5988290000000 1.0
C      1  0.5485430000000  0.4528230000000  0.5967760000000 1.0
C      1  0.5643830000000  0.5370060000000  0.6004130000000 1.0
C      1  0.4840830000000  0.5698410000000  0.5980640000000 1.0
C      1  0.4002830000000  0.5056440000000  0.5294190000000 1.0
C      1  0.4784460000000  0.5977670000000  0.5287780000000 1.0
C      1  0.5786490000000  0.5456300000000  0.5288310000000 1.0
C      1  0.5742530000000  0.4344480000000  0.5289170000000 1.0
C      1  0.4626680000000  0.4069650000000  0.5336740000000 1.0
C      1  0.5991730000000  0.5057020000000  0.5296320000000 1.0
C      1  0.5232580000000  0.6004190000000  0.5313240000000 1.0
C      1  0.4197890000000  0.5469590000000  0.5269030000000 1.0
C      1  0.4264600000000  0.4353810000000  0.5302690000000 1.0
C      1  0.5385800000000  0.4054000000000  0.5329300000000 1.0
C      1  0.5929440000000  0.4531420000000  0.5128340000000 1.0
C      1  0.4843560000000  0.3984980000000  0.5104950000000 1.0
C      1  0.3895960000000  0.4785500000000  0.5172550000000 1.0
C      1  0.4518490000000  0.5970190000000  0.5121910000000 1.0
C      1  0.5717150000000  0.5727240000000  0.5155280000000 1.0
C      1  0.4077490000000  0.4535120000000  0.5135990000000 1.0
C      1  0.5161840000000  0.3979900000000  0.5101840000000 1.0
C      1  0.6103590000000  0.4788440000000  0.5169380000000 1.0
C      1  0.5483170000000  0.5965130000000  0.5135280000000 1.0
C      1  0.4275090000000  0.5734080000000  0.5129430000000 1.0
C      1  0.4845520000000  0.5804870000000  0.4713680000000 1.0
C      1  0.5651640000000  0.5439820000000  0.4719450000000 1.0
C      1  0.5639320000000  0.4529160000000  0.4733970000000 1.0
C      1  0.4539270000000  0.4290530000000  0.4777650000000 1.0
C      1  0.4237040000000  0.5147810000000  0.4730890000000 1.0
C      1  0.5145200000000  0.5805090000000  0.4727040000000 1.0
C      1  0.4339900000000  0.5435780000000  0.4701530000000 1.0
C      1  0.4357730000000  0.4526860000000  0.4733330000000 1.0
C      1  0.5462040000000  0.4291120000000  0.4776950000000 1.0
C      1  0.5754120000000  0.5151280000000  0.4741020000000 1.0
C      1  0.5089920000000  0.5352190000000  0.5715170000000 1.0
C      1  0.5382380000000  0.4998640000000  0.5834480000000 1.0
C      1  0.5157460000000  0.4612000000000  0.5592370000000 1.0
C      1  0.4745240000000  0.4771130000000  0.5798930000000 1.0
C      1  0.4644150000000  0.5227950000000  0.5564640000000 1.0
C      1  0.4871430000000  0.5396500000000  0.5547530000000 1.0
C      1  0.4636890000000  0.5044370000000  0.5792740000000 1.0
C      1  0.4874220000000  0.4629930000000  0.5579960000000 1.0
C      1  0.5285270000000  0.4727040000000  0.5826560000000 1.0
C      1  0.5319070000000  0.5194760000000  0.5633460000000 1.0
C      1  0.4413020000000  0.5531470000000  0.5750430000000 1.0
C      1  0.5328550000000  0.5694970000000  0.5754990000000 1.0
C      1  0.5768370000000  0.4885590000000  0.5715590000000 1.0
C      1  0.5150420000000  0.4218860000000  0.5739630000000 1.0
C      1  0.4359830000000  0.4629270000000  0.5713960000000 1.0
C      1  0.5575140000000  0.5520850000000  0.5755880000000 1.0
C      1  0.4660980000000  0.5702200000000  0.5743760000000 1.0
C      1  0.4248080000000  0.4903710000000  0.5721860000000 1.0
C      1  0.4857490000000  0.4238190000000  0.5741080000000 1.0
C      1  0.5667270000000  0.4605770000000  0.5703510000000 1.0
C      1  0.6047970000000  0.4883320000000  0.4356240000000 1.0
C      1  0.5180530000000  0.3944240000000  0.4328420000000 1.0
C      1  0.4061150000000  0.4535210000000  0.4353170000000 1.0
C      1  0.4219190000000  0.5795510000000  0.4347430000000 1.0
C      1  0.5484700000000  0.6010050000000  0.4352520000000 1.0
C      1  0.3943090000000  0.4876170000000  0.4356610000000 1.0
C      1  0.4818190000000  0.3940300000000  0.4334270000000 1.0
C      1  0.5932070000000  0.4541800000000  0.4350070000000 1.0
C      1  0.5776590000000  0.5798450000000  0.4357730000000 1.0
C      1  0.4511970000000  0.6005710000000  0.4354060000000 1.0
C      1  0.4469090000000  0.5525990000000  0.4953550000000 1.0
C      1  0.5284660000000  0.5732920000000  0.4980840000000 1.0
C      1  0.5713500000000  0.4986030000000  0.4989960000000 1.0
C      1  0.5247230000000  0.4268220000000  0.4996790000000 1.0
C      1  0.4315550000000  0.4680700000000  0.4988290000000 1.0
C      1  0.5517890000000  0.5525980000000  0.4973470000000 1.0
C      1  0.4700590000000  0.5736540000000  0.4954800000000 1.0
C      1  0.4276810000000  0.4987430000000  0.4983440000000 1.0
C      1  0.4758960000000  0.4271300000000  0.4993980000000 1.0
C      1  0.5685420000000  0.4678360000000  0.4989550000000 1.0
C      1  0.4486510000000  0.5051630000000  0.5218030000000 1.0
C      1  0.4834160000000  0.5548500000000  0.5159600000000 1.0
C      1  0.5339870000000  0.5293560000000  0.5097230000000 1.0
C      1  0.5403370000000  0.4714790000000  0.5180470000000 1.0
C      1  0.4842180000000  0.4488720000000  0.5186040000000 1.0
C      1  0.5501280000000  0.5047370000000  0.5225130000000 1.0
C      1  0.5144380000000  0.5548180000000  0.5208250000000 1.0
C      1  0.4648930000000  0.5291460000000  0.5081660000000 1.0
C      1  0.4598900000000  0.4721520000000  0.5177380000000 1.0
C      1  0.5165110000000  0.4483630000000  0.5192630000000 1.0
C      1  0.4821270000000  0.5925150000000  0.4265660000000 1.0
C      1  0.5782650000000  0.5486770000000  0.4240950000000 1.0
C      1  0.5642920000000  0.4460970000000  0.4246760000000 1.0
C      1  0.4545710000000  0.4167210000000  0.4270150000000 1.0
C      1  0.4119360000000  0.5137320000000  0.4276320000000 1.0
C      1  0.5172510000000  0.5930290000000  0.4274210000000 1.0
C      1  0.4210240000000  0.5482680000000  0.4229120000000 1.0
C      1  0.4348610000000  0.4452660000000  0.4244840000000 1.0
C      1  0.5453690000000  0.4171690000000  0.4269190000000 1.0
C      1  0.5869900000000  0.5141550000000  0.4281970000000 1.0
C      1  0.5646350000000  0.4068470000000  0.5078250000000 1.0
C      1  0.6001620000000  0.5285100000000  0.5052640000000 1.0
C      1  0.3985970000000  0.5284690000000  0.5041960000000 1.0
C      1  0.5016230000000  0.6108980000000  0.5044320000000 1.0
C      1  0.4361340000000  0.4078250000000  0.5090590000000 1.0
END
