TITL C-862128-1543-622 4.38987375473202 125000 -204.733415320103 0 0 39 (C1) n - 1
REM
REM in /home/nfs/bkarasulu/CARBON/AIRSS/Generating-Clusters/TERSOFF/Higher-Symm/FIRE-HFTN
REM
REM
REM
REM
REM
REM ./C.cell (b20cbc046b6831c77cfcea5457e17084)
REM AIRSS Version 0.9.1 bugfix July 2018 build 013d7b7c2542+ Fri, 06 Jul 2018 19:26:36 +0100
REM compiler GCC version 9.2.1 20190827 (Red Hat 9.2.1-1)
REM options -cpp -mtune=generic -march=x86-64 -g -O0 -fpre-include=/usr/include/finclude/math-vector-fortran.h
REM seed -191017405 1583738504 129998918 -1278201109 -381067192 -1876497257 -306064230 1876610880 1325946100 754113751 1763546725 2076216724 1940835611 -84070032 -270243431 1539089312 -1686189652 925990917 638921195 -805685504 -2024742004 653870603 -384586117 1551155122 -2066346035 548373557 -613949546 -1391775333 -146446822 661712802 1491019759 777007092 8169110
REM
CELL 1.54180   50.00000   50.00000   50.00000   90.00000   90.00000   90.00000
LATT -1
SFAC C  
C      1  0.5025400000000  0.5349520000000  0.4497240000000 1.0
C      1  0.5520370000000  0.5353940000000  0.4707330000000 1.0
C      1  0.4654210000000  0.5006060000000  0.4621690000000 1.0
C      1  0.5048630000000  0.5217510000000  0.5689450000000 1.0
C      1  0.4858460000000  0.5459750000000  0.5251240000000 1.0
C      1  0.4779840000000  0.5199180000000  0.4437850000000 1.0
C      1  0.5706030000000  0.5235240000000  0.4902110000000 1.0
C      1  0.5133590000000  0.5305340000000  0.5176530000000 1.0
C      1  0.5164180000000  0.4872290000000  0.4270420000000 1.0
C      1  0.5253020000000  0.4448880000000  0.5136250000000 1.0
C      1  0.4624270000000  0.5043110000000  0.5466450000000 1.0
C      1  0.5055130000000  0.4408760000000  0.4917530000000 1.0
C      1  0.5298080000000  0.4621810000000  0.5591680000000 1.0
C      1  0.4800660000000  0.4573580000000  0.4899620000000 1.0
C      1  0.4642920000000  0.5067960000000  0.4906840000000 1.0
C      1  0.5182430000000  0.4841890000000  0.4920680000000 1.0
C      1  0.5544810000000  0.4879400000000  0.5252780000000 1.0
C      1  0.4686470000000  0.4468700000000  0.5173540000000 1.0
C      1  0.5626750000000  0.5158550000000  0.5174910000000 1.0
C      1  0.5107580000000  0.5061200000000  0.5440120000000 1.0
C      1  0.4676250000000  0.5550950000000  0.5013030000000 1.0
C      1  0.4201520000000  0.5324130000000  0.4968540000000 1.0
C      1  0.5357380000000  0.4884860000000  0.5483950000000 1.0
C      1  0.4707870000000  0.4703260000000  0.4618550000000 1.0
C      1  0.5329820000000  0.4987510000000  0.4477940000000 1.0
C      1  0.4849180000000  0.4881800000000  0.5366530000000 1.0
C      1  0.4434870000000  0.4404950000000  0.4302060000000 1.0
C      1  0.4787240000000  0.4860710000000  0.5061600000000 1.0
C      1  0.4851040000000  0.4570160000000  0.5402430000000 1.0
C      1  0.5131730000000  0.4462080000000  0.5414730000000 1.0
C      1  0.4485310000000  0.5297130000000  0.5027930000000 1.0
C      1  0.4772660000000  0.5670920000000  0.4767890000000 1.0
C      1  0.5254920000000  0.5229160000000  0.4644700000000 1.0
C      1  0.5401300000000  0.4702910000000  0.5056340000000 1.0
C      1  0.4589790000000  0.5296660000000  0.5335900000000 1.0
C      1  0.5425520000000  0.5334160000000  0.5287460000000 1.0
C      1  0.4677190000000  0.4543640000000  0.4378360000000 1.0
C      1  0.5153320000000  0.5125720000000  0.4908630000000 1.0
C      1  0.5200270000000  0.5596580000000  0.5049150000000 1.0
END
