TITL C-862501-1041-750 1.02734964987716e-05 125000 -552.206452855485 0 0 90 (C5) n - 1
REM
REM in /home/nfs/bkarasulu/CARBON/AIRSS/Generating-Clusters/TERSOFF/Higher-Symm/FIRE-HFTN
REM
REM
REM
REM
REM
REM ./C.cell (b20cbc046b6831c77cfcea5457e17084)
REM AIRSS Version 0.9.1 bugfix July 2018 build 013d7b7c2542+ Fri, 06 Jul 2018 19:26:36 +0100
REM compiler GCC version 9.2.1 20190827 (Red Hat 9.2.1-1)
REM options -cpp -mtune=generic -march=x86-64 -g -O0 -fpre-include=/usr/include/finclude/math-vector-fortran.h
REM seed 267743810 -595519350 1800643580 469054567 -921106318 -1641592662 1601407710 -1020327838 -494763179 -463700922 -1397611451 -1899326703 -540189999 -17807158 -774032859 -853216960 -1824518170 1978110140 -2009992832 -51238984 -1509155204 1711441159 -1659369510 -1640511306 -1309502381 -1003390686 978466005 768537778 104087648 -1636082568 -1740168228 931263084 492447818
REM
CELL 1.54180   50.00000   50.00000   50.00000   90.00000   90.00000   90.00000
LATT -1
SFAC C  
C      1  0.4722790000000  0.5477810000000  0.5531870000000 1.0
C      1  0.4722790000000  0.5653490000000  0.4709930000000 1.0
C      1  0.4722790000000  0.4926070000000  0.4288850000000 1.0
C      1  0.4722790000000  0.4300810000000  0.4850560000000 1.0
C      1  0.4722790000000  0.4641810000000  0.5618790000000 1.0
C      1  0.5129470000000  0.5881230000000  0.4819250000000 1.0
C      1  0.5129470000000  0.5100420000000  0.4106050000000 1.0
C      1  0.5129470000000  0.4180830000000  0.4628250000000 1.0
C      1  0.5129470000000  0.4393310000000  0.5664200000000 1.0
C      1  0.5129470000000  0.5444220000000  0.5782250000000 1.0
C      1  0.4734760000000  0.4588350000000  0.4825170000000 1.0
C      1  0.4734760000000  0.4706520000000  0.5337470000000 1.0
C      1  0.4734760000000  0.5230270000000  0.5383400000000 1.0
C      1  0.4734760000000  0.5435790000000  0.4899480000000 1.0
C      1  0.4734760000000  0.5039070000000  0.4554470000000 1.0
C      1  0.5090400000000  0.4909210000000  0.5818520000000 1.0
C      1  0.5090400000000  0.5750400000000  0.5339290000000 1.0
C      1  0.5090400000000  0.5554570000000  0.4391170000000 1.0
C      1  0.5090400000000  0.4592340000000  0.4284440000000 1.0
C      1  0.5090400000000  0.4193480000000  0.5166590000000 1.0
C      1  0.5267530000000  0.4832240000000  0.4187700000000 1.0
C      1  0.5267530000000  0.4175620000000  0.4908540000000 1.0
C      1  0.5267530000000  0.4658270000000  0.5755770000000 1.0
C      1  0.5267520000000  0.5613180000000  0.5558550000000 1.0
C      1  0.5267520000000  0.5720700000000  0.4589430000000 1.0
C      1  0.5217290000000  0.4768630000000  0.5145930000000 1.0
C      1  0.5217290000000  0.5067290000000  0.5265140000000 1.0
C      1  0.5217290000000  0.5272950000000  0.5017940000000 1.0
C      1  0.5217290000000  0.5101410000000  0.4745950000000 1.0
C      1  0.5217290000000  0.4789720000000  0.4825050000000 1.0
C      1  0.5232970000000  0.4340650000000  0.5385290000000 1.0
C      1  0.5232970000000  0.5162680000000  0.5746140000000 1.0
C      1  0.5232970000000  0.5759900000000  0.5075850000000 1.0
C      1  0.5232970000000  0.5306960000000  0.4300730000000 1.0
C      1  0.5232970000000  0.4429820000000  0.4491980000000 1.0
C      1  0.5413780000000  0.5526670000000  0.5011290000000 1.0
C      1  0.5413780000000  0.5173480000000  0.4502600000000 1.0
C      1  0.5413780000000  0.4580550000000  0.4681300000000 1.0
C      1  0.5413780000000  0.4567280000000  0.5300430000000 1.0
C      1  0.5413780000000  0.5152010000000  0.5504380000000 1.0
C      1  0.4562460000000  0.5385440000000  0.4339910000000 1.0
C      1  0.4562460000000  0.4491330000000  0.4429450000000 1.0
C      1  0.4562460000000  0.4300180000000  0.5307470000000 1.0
C      1  0.4562460000000  0.5076160000000  0.5760580000000 1.0
C      1  0.4562460000000  0.5746890000000  0.5162600000000 1.0
C      1  0.4780770000000  0.5705150000000  0.5362530000000 1.0
C      1  0.4780770000000  0.5562690000000  0.4441390000000 1.0
C      1  0.4780770000000  0.4642610000000  0.4292230000000 1.0
C      1  0.4780770000000  0.4216440000000  0.5121180000000 1.0
C      1  0.4780770000000  0.4873120000000  0.5782660000000 1.0
C      1  0.4273420000000  0.4540980000000  0.4895270000000 1.0
C      1  0.4273420000000  0.4758550000000  0.5404190000000 1.0
C      1  0.4273420000000  0.5309800000000  0.5354540000000 1.0
C      1  0.4273420000000  0.5432920000000  0.4814920000000 1.0
C      1  0.4273420000000  0.4957760000000  0.4531080000000 1.0
C      1  0.4327350000000  0.5555330000000  0.5124070000000 1.0
C      1  0.4327350000000  0.5289600000000  0.4510190000000 1.0
C      1  0.4327350000000  0.4623660000000  0.4573210000000 1.0
C      1  0.4327350000000  0.4477800000000  0.5226040000000 1.0
C      1  0.4327350000000  0.5053610000000  0.5566490000000 1.0
C      1  0.5627460000000  0.5333740000000  0.4621310000000 1.0
C      1  0.5627460000000  0.4742970000000  0.4565570000000 1.0
C      1  0.5627460000000  0.4507410000000  0.5110200000000 1.0
C      1  0.5627460000000  0.4952590000000  0.5502540000000 1.0
C      1  0.5627460000000  0.5463290000000  0.5200380000000 1.0
C      1  0.5500440000000  0.4693990000000  0.5555350000000 1.0
C      1  0.5500440000000  0.5433610000000  0.5462650000000 1.0
C      1  0.5500440000000  0.5574000000000  0.4730580000000 1.0
C      1  0.5500440000000  0.4921140000000  0.4370840000000 1.0
C      1  0.5500440000000  0.4377270000000  0.4880580000000 1.0
C      1  0.4957400000000  0.5415320000000  0.5079200000000 1.0
C      1  0.4957400000000  0.5203660000000  0.4629480000000 1.0
C      1  0.4957400000000  0.4710550000000  0.4691810000000 1.0
C      1  0.4957400000000  0.4617450000000  0.5180050000000 1.0
C      1  0.4957400000000  0.5053020000000  0.5419460000000 1.0
C      1  0.4512530000000  0.5242240000000  0.4915140000000 1.0
C      1  0.4512530000000  0.4994150000000  0.4743390000000 1.0
C      1  0.4512530000000  0.4754140000000  0.4926270000000 1.0
C      1  0.4512530000000  0.4853910000000  0.5211040000000 1.0
C      1  0.4512530000000  0.5155570000000  0.5204160000000 1.0
C      1  0.4845430000000  0.4395920000000  0.5698150000000 1.0
C      1  0.4845430000000  0.5477310000000  0.5790250000000 1.0
C      1  0.4845430000000  0.5899070000000  0.4790260000000 1.0
C      1  0.4845430000000  0.5078350000000  0.4080120000000 1.0
C      1  0.4845430000000  0.4149350000000  0.4641230000000 1.0
C      1  0.5803740000000  0.4868180000000  0.4774560000000 1.0
C      1  0.5803740000000  0.4744860000000  0.5055700000000 1.0
C      1  0.5803740000000  0.4974130000000  0.5259870000000 1.0
C      1  0.5803740000000  0.5239150000000  0.5104910000000 1.0
C      1  0.5803740000000  0.5173670000000  0.4804970000000 1.0
END
