TITL C-862507-1800-227 -5.60643840817053e-05 125000 -284.102494165115 0 0 52 (C4) n - 1
REM
REM in /home/nfs/bkarasulu/CARBON/AIRSS/Generating-Clusters/TERSOFF/Higher-Symm/FIRE-HFTN
REM
REM
REM
REM
REM
REM ./C.cell (b20cbc046b6831c77cfcea5457e17084)
REM AIRSS Version 0.9.1 bugfix July 2018 build 013d7b7c2542+ Fri, 06 Jul 2018 19:26:36 +0100
REM compiler GCC version 9.2.1 20190827 (Red Hat 9.2.1-1)
REM options -cpp -mtune=generic -march=x86-64 -g -O0 -fpre-include=/usr/include/finclude/math-vector-fortran.h
REM seed 696132824 632123929 -390725223 1741536828 -1051229412 1705637860 726206605 -748055809 1729539323 2055574819 31755603 -778517611 -1539504895 68271903 1490426988 -1977958484 -1482002993 -884962711 1702589685 1700756135 -680792995 -2070287177 -277047567 -894735376 -358621063 165423834 -1247589869 -158783233 -959325823 -661172624 81569910 1450527539 -1228428612
REM
CELL 1.54180   50.00000   50.00000   50.00000   90.00000   90.00000   90.00000
LATT -1
SFAC C  
C      1  0.5062670000000  0.5390590000000  0.4460130000000 1.0
C      1  0.4609410000000  0.5062670000000  0.4460130000000 1.0
C      1  0.4937330000000  0.4609410000000  0.4460130000000 1.0
C      1  0.5390590000000  0.4937330000000  0.4460130000000 1.0
C      1  0.4752460000000  0.5351220000000  0.4476220000000 1.0
C      1  0.4648780000000  0.4752460000000  0.4476220000000 1.0
C      1  0.5247540000000  0.4648780000000  0.4476220000000 1.0
C      1  0.5351220000000  0.5247540000000  0.4476220000000 1.0
C      1  0.5212690000000  0.4942420000000  0.4919990000000 1.0
C      1  0.5057580000000  0.5212690000000  0.4919990000000 1.0
C      1  0.4787310000000  0.5057580000000  0.4919990000000 1.0
C      1  0.4942420000000  0.4787310000000  0.4919990000000 1.0
C      1  0.5429280000000  0.4706090000000  0.5347950000000 1.0
C      1  0.5293910000000  0.5429280000000  0.5347950000000 1.0
C      1  0.4570720000000  0.5293910000000  0.5347950000000 1.0
C      1  0.4706090000000  0.4570720000000  0.5347950000000 1.0
C      1  0.4597680000000  0.5550200000000  0.4947770000000 1.0
C      1  0.4449800000000  0.4597680000000  0.4947770000000 1.0
C      1  0.5402320000000  0.4449800000000  0.4947770000000 1.0
C      1  0.5550200000000  0.5402320000000  0.4947770000000 1.0
C      1  0.4332310000000  0.5108640000000  0.4954930000000 1.0
C      1  0.4891360000000  0.4332310000000  0.4954930000000 1.0
C      1  0.5667690000000  0.4891360000000  0.4954930000000 1.0
C      1  0.5108640000000  0.5667690000000  0.4954930000000 1.0
C      1  0.4924960000000  0.5228470000000  0.5615490000000 1.0
C      1  0.4771530000000  0.4924960000000  0.5615490000000 1.0
C      1  0.5075040000000  0.4771530000000  0.5615490000000 1.0
C      1  0.5228470000000  0.5075040000000  0.5615490000000 1.0
C      1  0.4373900000000  0.4843830000000  0.5111280000000 1.0
C      1  0.5156170000000  0.4373900000000  0.5111280000000 1.0
C      1  0.5626100000000  0.5156170000000  0.5111280000000 1.0
C      1  0.4843830000000  0.5626100000000  0.5111280000000 1.0
C      1  0.5106390000000  0.5211550000000  0.5237640000000 1.0
C      1  0.4788450000000  0.5106390000000  0.5237640000000 1.0
C      1  0.4893610000000  0.4788450000000  0.5237640000000 1.0
C      1  0.5211550000000  0.4893610000000  0.5237640000000 1.0
C      1  0.4411310000000  0.5363060000000  0.5101790000000 1.0
C      1  0.4636940000000  0.4411310000000  0.5101790000000 1.0
C      1  0.5588690000000  0.4636940000000  0.5101790000000 1.0
C      1  0.5363060000000  0.5588690000000  0.5101790000000 1.0
C      1  0.4447630000000  0.4604660000000  0.4647360000000 1.0
C      1  0.5395340000000  0.4447630000000  0.4647360000000 1.0
C      1  0.5552370000000  0.5395340000000  0.4647360000000 1.0
C      1  0.4604660000000  0.5552370000000  0.4647360000000 1.0
C      1  0.5438030000000  0.4892590000000  0.4760130000000 1.0
C      1  0.5107410000000  0.5438030000000  0.4760130000000 1.0
C      1  0.4561970000000  0.5107410000000  0.4760130000000 1.0
C      1  0.4892590000000  0.4561970000000  0.4760130000000 1.0
C      1  0.4826800000000  0.5483000000000  0.5419310000000 1.0
C      1  0.4517000000000  0.4826800000000  0.5419310000000 1.0
C      1  0.5173200000000  0.4517000000000  0.5419310000000 1.0
C      1  0.5483000000000  0.5173200000000  0.5419310000000 1.0
END
