TITL C-862134-6730-332 14.1053083786196 125000 -1101.82588890903 0 0 191 (C3) n - 1
REM
REM in /home/nfs/bkarasulu/CARBON/AIRSS/Generating-Clusters/TERSOFF/Higher-Symm/FIRE-HFTN
REM
REM
REM
REM
REM
REM ./C.cell (b20cbc046b6831c77cfcea5457e17084)
REM AIRSS Version 0.9.1 bugfix July 2018 build 013d7b7c2542+ Fri, 06 Jul 2018 19:26:36 +0100
REM compiler GCC version 9.2.1 20190827 (Red Hat 9.2.1-1)
REM options -cpp -mtune=generic -march=x86-64 -g -O0 -fpre-include=/usr/include/finclude/math-vector-fortran.h
REM seed 1021910990 54508718 -1268538911 1415082141 13876932 2066176650 -2131189029 1888843398 -654873195 585893669 1671891312 -2024574099 -1312476734 -1759169667 -1391176628 -2010282402 1848608623 270198180 353842200 -1427635079 -108548221 -1735412711 255584893 129486124 450119916 -506859237 -688528350 -896069371 -1085028360 -422224261 -1121490211 1730644335 -593787299
REM
CELL 1.54180   50.00000   50.00000   50.00000   90.00000   90.00000   90.00000
LATT -1
SFAC C  
C      1  0.4333750000000  0.5162390000000  0.4061660000000 1.0
C      1  0.4333750000000  0.5736330000000  0.5603690000000 1.0
C      1  0.4333750000000  0.4113930000000  0.5329720000000 1.0
C      1  0.5077200000000  0.4843890000000  0.6235880000000 1.0
C      1  0.5077210000000  0.4012650000000  0.4240750000000 1.0
C      1  0.5077200000000  0.6156110000000  0.4518450000000 1.0
C      1  0.4717590000000  0.4398770000000  0.4599640000000 1.0
C      1  0.4717590000000  0.5652240000000  0.4673390000000 1.0
C      1  0.4717590000000  0.4961640000000  0.5722050000000 1.0
C      1  0.4502090000000  0.5427770000000  0.4707490000000 1.0
C      1  0.4502090000000  0.5044340000000  0.5510600000000 1.0
C      1  0.4502090000000  0.4540540000000  0.4776980000000 1.0
C      1  0.5627750000000  0.5386080000000  0.5051130000000 1.0
C      1  0.5627750000000  0.4767580000000  0.5302680000000 1.0
C      1  0.5627750000000  0.4858980000000  0.4641270000000 1.0
C      1  0.5389830000000  0.5290310000000  0.5190670000000 1.0
C      1  0.5389830000000  0.4694630000000  0.5149970000000 1.0
C      1  0.5389830000000  0.5027710000000  0.4654440000000 1.0
C      1  0.4989200000000  0.4535620000000  0.4588730000000 1.0
C      1  0.4989200000000  0.5593260000000  0.4797360000000 1.0
C      1  0.4989200000000  0.4883760000000  0.5608990000000 1.0
C      1  0.4463790000000  0.5414870000000  0.5145830000000 1.0
C      1  0.4463790000000  0.4671170000000  0.5280260000000 1.0
C      1  0.4463790000000  0.4926600000000  0.4568990000000 1.0
C      1  0.6107220000000  0.5332200000000  0.5352040000000 1.0
C      1  0.6107220000000  0.4533930000000  0.5105560000000 1.0
C      1  0.6107220000000  0.5146520000000  0.4537480000000 1.0
C      1  0.5763020000000  0.4409770000000  0.5475620000000 1.0
C      1  0.5763020000000  0.4888120000000  0.4244920000000 1.0
C      1  0.5763020000000  0.5714760000000  0.5274540000000 1.0
C      1  0.5962820000000  0.4936990000000  0.5999860000000 1.0
C      1  0.5962830000000  0.4170500000000  0.4439390000000 1.0
C      1  0.5962830000000  0.5905150000000  0.4555830000000 1.0
C      1  0.4996840000000  0.4438750000000  0.3985450000000 1.0
C      1  0.4996830000000  0.6164150000000  0.5015110000000 1.0
C      1  0.4996830000000  0.4409740000000  0.5994520000000 1.0
C      1  0.4667810000000  0.4033950000000  0.5221080000000 1.0
C      1  0.4667810000000  0.5296460000000  0.4046720000000 1.0
C      1  0.4667810000000  0.5682230000000  0.5727270000000 1.0
C      1  0.4621870000000  0.4703520000000  0.6162300000000 1.0
C      1  0.4621870000000  0.4146560000000  0.4155980000000 1.0
C      1  0.4621870000000  0.6162560000000  0.4676800000000 1.0
C      1  0.5328310000000  0.5835390000000  0.5525380000000 1.0
C      1  0.5328310000000  0.4132220000000  0.5454660000000 1.0
C      1  0.5328320000000  0.5045040000000  0.4015030000000 1.0
C      1  0.5608210000000  0.5525200000000  0.3987150000000 1.0
C      1  0.5608210000000  0.5619460000000  0.5955150000000 1.0
C      1  0.5608210000000  0.3867990000000  0.5052780000000 1.0
C      1  0.5265150000000  0.4813720000000  0.5739470000000 1.0
C      1  0.5265150000000  0.4457640000000  0.4462830000000 1.0
C      1  0.5265150000000  0.5741280000000  0.4792780000000 1.0
C      1  0.5302470000000  0.4336910000000  0.5980700000000 1.0
C      1  0.5302480000000  0.4487140000000  0.3929290000000 1.0
C      1  0.5302470000000  0.6188600000000  0.5085090000000 1.0
C      1  0.4899120000000  0.6208860000000  0.4743160000000 1.0
C      1  0.4899120000000  0.4622900000000  0.6169210000000 1.0
C      1  0.4899120000000  0.4180880000000  0.4082700000000 1.0
C      1  0.4184160000000  0.4695450000000  0.4147680000000 1.0
C      1  0.4184160000000  0.5895310000000  0.5156300000000 1.0
C      1  0.4184160000000  0.4421880000000  0.5691100000000 1.0
C      1  0.4702460000000  0.3916550000000  0.5505960000000 1.0
C      1  0.4702460000000  0.5108450000000  0.3802610000000 1.0
C      1  0.4702460000000  0.5987640000000  0.5686500000000 1.0
C      1  0.4581540000000  0.3881120000000  0.4275360000000 1.0
C      1  0.4581540000000  0.6191900000000  0.4387230000000 1.0
C      1  0.4581540000000  0.4939620000000  0.6332490000000 1.0
C      1  0.4638530000000  0.4821820000000  0.3873230000000 1.0
C      1  0.4638520000000  0.6069800000000  0.5402960000000 1.0
C      1  0.4638520000000  0.4121020000000  0.5718880000000 1.0
C      1  0.4701540000000  0.3852830000000  0.4545600000000 1.0
C      1  0.4701540000000  0.5972010000000  0.4227610000000 1.0
C      1  0.4701540000000  0.5187810000000  0.6221870000000 1.0
C      1  0.6039530000000  0.4801150000000  0.4960160000000 1.0
C      1  0.6039530000000  0.5138830000000  0.4841600000000 1.0
C      1  0.6039530000000  0.5072670000000  0.5193320000000 1.0
C      1  0.4865850000000  0.4320710000000  0.5710880000000 1.0
C      1  0.4865860000000  0.4728900000000  0.4050170000000 1.0
C      1  0.4865850000000  0.5963030000000  0.5234030000000 1.0
C      1  0.5269030000000  0.3910340000000  0.4677210000000 1.0
C      1  0.5269030000000  0.5829280000000  0.4211610000000 1.0
C      1  0.5269020000000  0.5273030000000  0.6106260000000 1.0
C      1  0.5378190000000  0.5268810000000  0.4482370000000 1.0
C      1  0.5378180000000  0.5318780000000  0.5485500000000 1.0
C      1  0.5378190000000  0.4425060000000  0.5027210000000 1.0
C      1  0.4997260000000  0.5955400000000  0.4306770000000 1.0
C      1  0.4997250000000  0.5127550000000  0.6167900000000 1.0
C      1  0.4997260000000  0.3929690000000  0.4520400000000 1.0
C      1  0.5329990000000  0.5558730000000  0.4090190000000 1.0
C      1  0.5329990000000  0.5513460000000  0.5932670000000 1.0
C      1  0.5329990000000  0.3940460000000  0.4972220000000 1.0
C      1  0.5217400000000  0.5286320000000  0.4202490000000 1.0
C      1  0.5217400000000  0.5552410000000  0.5640600000000 1.0
C      1  0.5217400000000  0.4173920000000  0.5151990000000 1.0
C      1  0.4909080000000  0.4241900000000  0.5197090000000 1.0
C      1  0.4909080000000  0.5213270000000  0.4238810000000 1.0
C      1  0.4909080000000  0.5557480000000  0.5559180000000 1.0
C      1  0.5670640000000  0.5249980000000  0.5502780000000 1.0
C      1  0.5670640000000  0.4444500000000  0.4958990000000 1.0
C      1  0.5670640000000  0.5318170000000  0.4533320000000 1.0
C      1  0.4137340000000  0.5582380000000  0.4568980000000 1.0
C      1  0.4137330000000  0.5086990000000  0.5713760000000 1.0
C      1  0.4137340000000  0.4343280000000  0.4712340000000 1.0
C      1  0.5689220000000  0.5036680000000  0.5937990000000 1.0
C      1  0.5689230000000  0.4174240000000  0.4556660000000 1.0
C      1  0.5689230000000  0.5801730000000  0.4500430000000 1.0
C      1  0.4391520000000  0.4494620000000  0.5053100000000 1.0
C      1  0.4391520000000  0.5211600000000  0.4529660000000 1.0
C      1  0.4391520000000  0.5306420000000  0.5412310000000 1.0
C      1  0.4361390000000  0.4873320000000  0.3984040000000 1.0
C      1  0.4361390000000  0.5948090000000  0.5392160000000 1.0
C      1  0.4361390000000  0.4191230000000  0.5618880000000 1.0
C      1  0.5364240000000  0.4025360000000  0.4199960000000 1.0
C      1  0.5364240000000  0.6185080000000  0.4549840000000 1.0
C      1  0.5364230000000  0.4802210000000  0.6245270000000 1.0
C      1  0.4513640000000  0.5283160000000  0.6015670000000 1.0
C      1  0.4513640000000  0.3983720000000  0.4731280000000 1.0
C      1  0.4513640000000  0.5745760000000  0.4248130000000 1.0
C      1  0.4250100000000  0.4083260000000  0.4644110000000 1.0
C      1  0.4250100000000  0.5771480000000  0.4377910000000 1.0
C      1  0.4250100000000  0.5157910000000  0.5973050000000 1.0
C      1  0.5618630000000  0.5014350000000  0.4002340000000 1.0
C      1  0.5618630000000  0.5861730000000  0.5505140000000 1.0
C      1  0.5618630000000  0.4136570000000  0.5487600000000 1.0
C      1  0.5153390000000  0.5247530000000  0.5056090000000 1.0
C      1  0.5153390000000  0.4832560000000  0.5180210000000 1.0
C      1  0.5153390000000  0.4932560000000  0.4758780000000 1.0
C      1  0.4257650000000  0.5523840000000  0.4903570000000 1.0
C      1  0.4257650000000  0.4826490000000  0.5495760000000 1.0
C      1  0.4257650000000  0.4662310000000  0.4595740000000 1.0
C      1  0.5766490000000  0.5278650000000  0.4815420000000 1.0
C      1  0.5766490000000  0.5025430000000  0.5327500000000 1.0
C      1  0.5766490000000  0.4708560000000  0.4852160000000 1.0
C      1  0.5870770000000  0.5479420000000  0.5477940000000 1.0
C      1  0.5870770000000  0.4351290000000  0.5170110000000 1.0
C      1  0.5870770000000  0.5181940000000  0.4347030000000 1.0
C      1  0.4906040000000  0.4921500000000  0.4304960000000 1.0
C      1  0.4906030000000  0.5646070000000  0.5273420000000 1.0
C      1  0.4906030000000  0.4445080000000  0.5416690000000 1.0
C      1  0.5786600000000  0.5767210000000  0.4975780000000 1.0
C      1  0.5786600000000  0.4642270000000  0.5670420000000 1.0
C      1  0.5786600000000  0.4603170000000  0.4348880000000 1.0
C      1  0.4555200000000  0.5895400000000  0.4769400000000 1.0
C      1  0.4555200000000  0.4756910000000  0.5884630000000 1.0
C      1  0.4555210000000  0.4360330000000  0.4341050000000 1.0
C      1  0.5161210000000  0.6035270000000  0.5379210000000 1.0
C      1  0.5161210000000  0.4158860000000  0.5700860000000 1.0
C      1  0.5161210000000  0.4818510000000  0.3915010000000 1.0
C      1  0.4944050000000  0.4823750000000  0.4595890000000 1.0
C      1  0.4944050000000  0.5443000000000  0.5043300000000 1.0
C      1  0.4944050000000  0.4745900000000  0.5355890000000 1.0
C      1  0.4103890000000  0.4429560000000  0.4993180000000 1.0
C      1  0.4103890000000  0.5296030000000  0.4503290000000 1.0
C      1  0.4103890000000  0.5287050000000  0.5498610000000 1.0
C      1  0.5573250000000  0.4454410000000  0.4542710000000 1.0
C      1  0.5573250000000  0.5673720000000  0.4750040000000 1.0
C      1  0.5573250000000  0.4884520000000  0.5702330000000 1.0
C      1  0.5773280000000  0.5699710000000  0.5724260000000 1.0
C      1  0.5773280000000  0.4027820000000  0.5237720000000 1.0
C      1  0.5773280000000  0.5285120000000  0.4033090000000 1.0
C      1  0.3964980000000  0.5167710000000  0.4731770000000 1.0
C      1  0.3964980000000  0.5153340000000  0.5273250000000 1.0
C      1  0.3964980000000  0.4691590000000  0.4990060000000 1.0
C      1  0.4699770000000  0.4906200000000  0.4721500000000 1.0
C      1  0.4699770000000  0.5292990000000  0.5051900000000 1.0
C      1  0.4699770000000  0.4813460000000  0.5221670000000 1.0
C      1  0.3975950000000  0.4853610000000  0.4690350000000 1.0
C      1  0.3975950000000  0.5346260000000  0.5021930000000 1.0
C      1  0.3975950000000  0.4812770000000  0.5282790000000 1.0
C      1  0.4077600000000  0.5578940000000  0.5514070000000 1.0
C      1  0.4077600000000  0.4270240000000  0.5238230000000 1.0
C      1  0.4077600000000  0.5163470000000  0.4242780000000 1.0
C      1  0.5351940000000  0.5888310000000  0.5035280000000 1.0
C      1  0.5351950000000  0.4530200000000  0.5745550000000 1.0
C      1  0.5351950000000  0.4594140000000  0.4214250000000 1.0
C      1  0.3996260000000  0.5649560000000  0.5223290000000 1.0
C      1  0.3996260000000  0.4486750000000  0.5444780000000 1.0
C      1  0.3996260000000  0.4876340000000  0.4327010000000 1.0
C      1  0.4299340000000  0.4680020000000  0.5763950000000 1.0
C      1  0.4299350000000  0.4503290000000  0.4334800000000 1.0
C      1  0.4299340000000  0.5829340000000  0.4896330000000 1.0
C      1  0.5459750000000  0.6258710000000  0.4819820000000 1.0
C      1  0.5459750000000  0.4531590000000  0.6174060000000 1.0
C      1  0.5459750000000  0.4222350000000  0.4001210000000 1.0
C      1  0.5489190000000  0.5062620000000  0.6147470000000 1.0
C      1  0.5489190000000  0.3979850000000  0.4474390000000 1.0
C      1  0.5489190000000  0.5970170000000  0.4373220000000 1.0
C      1  0.6021050000000  0.5894720000000  0.4845020000000 1.0
C      1  0.6021050000000  0.4691760000000  0.5846230000000 1.0
C      1  0.6021050000000  0.4426170000000  0.4303830000000 1.0
C      1  0.4366890000000  0.5004210000000  0.4998360000000 1.0
C      1  0.4679000000000  0.5004220000000  0.4998360000000 1.0
END
