TITL C-862128-1543-408 0.297361108186605 125000 -648.767469775231 0 0 117 (C1) n - 1
REM
REM in /home/nfs/bkarasulu/CARBON/AIRSS/Generating-Clusters/TERSOFF/Higher-Symm/FIRE-HFTN
REM
REM
REM
REM
REM
REM ./C.cell (b20cbc046b6831c77cfcea5457e17084)
REM AIRSS Version 0.9.1 bugfix July 2018 build 013d7b7c2542+ Fri, 06 Jul 2018 19:26:36 +0100
REM compiler GCC version 9.2.1 20190827 (Red Hat 9.2.1-1)
REM options -cpp -mtune=generic -march=x86-64 -g -O0 -fpre-include=/usr/include/finclude/math-vector-fortran.h
REM seed 1858614275 1949273980 -331720562 -1242110042 -526402847 -1629224495 -1187130908 -795095744 223420605 1028907513 2024529407 -1446521215 -1417839564 -1366003917 361646737 1843527621 -399613947 84627512 1404107061 -1891863476 -1443164797 1748894110 460637498 -1841177556 550928116 -1687498793 957248105 -18999370 1111797847 -312302743 -458388793 1989972593 1984857183
REM
CELL 1.54180   50.00000   50.00000   50.00000   90.00000   90.00000   90.00000
LATT -1
SFAC C  
C      1  0.5128720000000  0.4448900000000  0.4259400000000 1.0
C      1  0.4297790000000  0.4424820000000  0.5278390000000 1.0
C      1  0.5595580000000  0.4432810000000  0.5496290000000 1.0
C      1  0.5532660000000  0.4826190000000  0.4294740000000 1.0
C      1  0.4134510000000  0.4786240000000  0.4897840000000 1.0
C      1  0.5360960000000  0.4786800000000  0.5846060000000 1.0
C      1  0.5555920000000  0.4786310000000  0.4626500000000 1.0
C      1  0.4405480000000  0.4766450000000  0.4699080000000 1.0
C      1  0.5050260000000  0.4742960000000  0.5696730000000 1.0
C      1  0.5689390000000  0.5463030000000  0.4808710000000 1.0
C      1  0.4458750000000  0.5497530000000  0.4455450000000 1.0
C      1  0.4814480000000  0.5497270000000  0.5707700000000 1.0
C      1  0.4326230000000  0.5123700000000  0.5554450000000 1.0
C      1  0.5840190000000  0.5123200000000  0.5335520000000 1.0
C      1  0.4842750000000  0.5131280000000  0.4095020000000 1.0
C      1  0.5007980000000  0.4961630000000  0.4741970000000 1.0
C      1  0.4825980000000  0.4953500000000  0.5057220000000 1.0
C      1  0.5173350000000  0.4918920000000  0.5164950000000 1.0
C      1  0.4550380000000  0.4570340000000  0.5701320000000 1.0
C      1  0.5818510000000  0.4589430000000  0.5057940000000 1.0
C      1  0.4634360000000  0.4582420000000  0.4258180000000 1.0
C      1  0.5293320000000  0.5358590000000  0.4170710000000 1.0
C      1  0.4156090000000  0.5339230000000  0.5141800000000 1.0
C      1  0.5546870000000  0.5327720000000  0.5670530000000 1.0
C      1  0.5333540000000  0.5511160000000  0.5814560000000 1.0
C      1  0.5518840000000  0.5536000000000  0.4301730000000 1.0
C      1  0.4133290000000  0.5520620000000  0.4878630000000 1.0
C      1  0.4655690000000  0.5017920000000  0.5943160000000 1.0
C      1  0.6006810000000  0.5014630000000  0.4835480000000 1.0
C      1  0.4339130000000  0.5007700000000  0.4212040000000 1.0
C      1  0.5797680000000  0.5059660000000  0.5060070000000 1.0
C      1  0.4627500000000  0.5083660000000  0.4277370000000 1.0
C      1  0.4587420000000  0.5072030000000  0.5652020000000 1.0
C      1  0.5088450000000  0.5828160000000  0.5433760000000 1.0
C      1  0.5338410000000  0.5833560000000  0.4741400000000 1.0
C      1  0.4593200000000  0.5841880000000  0.4793370000000 1.0
C      1  0.4195600000000  0.4900890000000  0.5432290000000 1.0
C      1  0.5795050000000  0.4902910000000  0.5515940000000 1.0
C      1  0.5029970000000  0.4914030000000  0.4074460000000 1.0
C      1  0.5437100000000  0.4490170000000  0.5740700000000 1.0
C      1  0.5416900000000  0.4520530000000  0.4281430000000 1.0
C      1  0.4174910000000  0.4488260000000  0.5014810000000 1.0
C      1  0.4764720000000  0.5313300000000  0.5962690000000 1.0
C      1  0.5945590000000  0.5298780000000  0.4720110000000 1.0
C      1  0.4258880000000  0.5301830000000  0.4300170000000 1.0
C      1  0.4904540000000  0.5217300000000  0.5287360000000 1.0
C      1  0.5312220000000  0.5157050000000  0.4954410000000 1.0
C      1  0.4784960000000  0.5214550000000  0.4731140000000 1.0
C      1  0.3955900000000  0.5319200000000  0.4735960000000 1.0
C      1  0.5283170000000  0.5320700000000  0.6044440000000 1.0
C      1  0.5754320000000  0.5345550000000  0.4227000000000 1.0
C      1  0.5610070000000  0.5845420000000  0.5164380000000 1.0
C      1  0.4820710000000  0.5877590000000  0.4350600000000 1.0
C      1  0.4584940000000  0.5859630000000  0.5384370000000 1.0
C      1  0.4312560000000  0.4633890000000  0.5486040000000 1.0
C      1  0.5772930000000  0.4639630000000  0.5382240000000 1.0
C      1  0.4935540000000  0.4649540000000  0.4163490000000 1.0
C      1  0.5165780000000  0.5661480000000  0.5205500000000 1.0
C      1  0.5113740000000  0.5703730000000  0.4910450000000 1.0
C      1  0.4802180000000  0.5684600000000  0.4929430000000 1.0
C      1  0.4100460000000  0.4990090000000  0.5154190000000 1.0
C      1  0.5600790000000  0.4993450000000  0.5740910000000 1.0
C      1  0.5310090000000  0.5018570000000  0.4136750000000 1.0
C      1  0.4398830000000  0.5348510000000  0.5351290000000 1.0
C      1  0.5609480000000  0.5331040000000  0.5355820000000 1.0
C      1  0.4969870000000  0.5367600000000  0.4253770000000 1.0
C      1  0.4686170000000  0.4351260000000  0.4441640000000 1.0
C      1  0.4682750000000  0.4328600000000  0.5576240000000 1.0
C      1  0.5608650000000  0.4381210000000  0.5011150000000 1.0
C      1  0.5143680000000  0.5386230000000  0.5261880000000 1.0
C      1  0.5150500000000  0.5388850000000  0.4841980000000 1.0
C      1  0.4744890000000  0.5406720000000  0.4948610000000 1.0
C      1  0.5831280000000  0.4752720000000  0.4777030000000 1.0
C      1  0.4398280000000  0.4749530000000  0.4385360000000 1.0
C      1  0.4772920000000  0.4746750000000  0.5841220000000 1.0
C      1  0.5657180000000  0.4207140000000  0.4778450000000 1.0
C      1  0.4461630000000  0.4170700000000  0.4494130000000 1.0
C      1  0.4827000000000  0.4145770000000  0.5752910000000 1.0
C      1  0.5127780000000  0.5153020000000  0.4496900000000 1.0
C      1  0.4501680000000  0.5103520000000  0.5105320000000 1.0
C      1  0.5368890000000  0.5062260000000  0.5398180000000 1.0
C      1  0.5661290000000  0.5559430000000  0.5129410000000 1.0
C      1  0.4754010000000  0.5597060000000  0.4307450000000 1.0
C      1  0.4552430000000  0.5593000000000  0.5497780000000 1.0
C      1  0.4381340000000  0.5163250000000  0.4834200000000 1.0
C      1  0.5177440000000  0.5135220000000  0.5617260000000 1.0
C      1  0.5406150000000  0.5216140000000  0.4549350000000 1.0
C      1  0.5210320000000  0.5069270000000  0.5906130000000 1.0
C      1  0.5630060000000  0.5123300000000  0.4387810000000 1.0
C      1  0.4114210000000  0.5066790000000  0.4731120000000 1.0
C      1  0.4779450000000  0.5243260000000  0.5542310000000 1.0
C      1  0.5590670000000  0.5199270000000  0.4925910000000 1.0
C      1  0.4623280000000  0.5249230000000  0.4502270000000 1.0
C      1  0.4670010000000  0.4725680000000  0.4822320000000 1.0
C      1  0.5038010000000  0.4690310000000  0.5408610000000 1.0
C      1  0.5305000000000  0.4761850000000  0.4789090000000 1.0
C      1  0.4978580000000  0.4212450000000  0.4404790000000 1.0
C      1  0.4502220000000  0.4198140000000  0.5340400000000 1.0
C      1  0.5526750000000  0.4223260000000  0.5277480000000 1.0
C      1  0.4812750000000  0.4340570000000  0.5096110000000 1.0
C      1  0.5145310000000  0.4367300000000  0.5089860000000 1.0
C      1  0.4984080000000  0.4326760000000  0.4817420000000 1.0
C      1  0.5023030000000  0.4049880000000  0.4689650000000 1.0
C      1  0.4715630000000  0.4045610000000  0.5143760000000 1.0
C      1  0.5254220000000  0.4086600000000  0.5175350000000 1.0
C      1  0.4368690000000  0.5646080000000  0.4701860000000 1.0
C      1  0.5080030000000  0.5640910000000  0.5679720000000 1.0
C      1  0.5519820000000  0.5618030000000  0.4606520000000 1.0
C      1  0.4764590000000  0.3953720000000  0.4847350000000 1.0
C      1  0.4987820000000  0.3977740000000  0.5290240000000 1.0
C      1  0.5259500000000  0.3981650000000  0.4880290000000 1.0
C      1  0.4845300000000  0.5987130000000  0.5389050000000 1.0
C      1  0.5490250000000  0.5992430000000  0.4943330000000 1.0
C      1  0.4704580000000  0.6010300000000  0.4579910000000 1.0
C      1  0.5348910000000  0.4552770000000  0.4998550000000 1.0
C      1  0.4810910000000  0.4507280000000  0.4680490000000 1.0
C      1  0.4837820000000  0.4478000000000  0.5353630000000 1.0
END
