TITL C-862134-6730-1266 -0.0872980980542508 125000 -959.500898235228 0 0 172 (C3) n - 1
REM
REM in /home/nfs/bkarasulu/CARBON/AIRSS/Generating-Clusters/TERSOFF/Higher-Symm/FIRE-HFTN
REM
REM
REM
REM
REM
REM ./C.cell (b20cbc046b6831c77cfcea5457e17084)
REM AIRSS Version 0.9.1 bugfix July 2018 build 013d7b7c2542+ Fri, 06 Jul 2018 19:26:36 +0100
REM compiler GCC version 9.2.1 20190827 (Red Hat 9.2.1-1)
REM options -cpp -mtune=generic -march=x86-64 -g -O0 -fpre-include=/usr/include/finclude/math-vector-fortran.h
REM seed 2017607878 -422888826 1301553455 -1257325483 438692233 -959138921 -1426547596 1514988977 1151824719 1745906108 1203689408 -1286152379 1072017986 -1241567523 -81589259 -17177353 -1558851591 1672378166 1396801896 -293005612 -1873028631 1992964959 -1962905650 2121306307 -853474650 -1732944131 925372273 113053647 1765897947 -1808650900 1321068290 -588279436 811850761
REM
CELL 1.54180   50.00000   50.00000   50.00000   90.00000   90.00000   90.00000
LATT -1
SFAC C  
C      1  0.5420540000000  0.5388750000000  0.5831480000000 1.0
C      1  0.5128180000000  0.4438900000000  0.5831470000000 1.0
C      1  0.4451770000000  0.5167020000000  0.5831480000000 1.0
C      1  0.5736410000000  0.4332220000000  0.4813220000000 1.0
C      1  0.4055260000000  0.4693620000000  0.4813220000000 1.0
C      1  0.5208820000000  0.5968840000000  0.4813230000000 1.0
C      1  0.5196360000000  0.4385400000000  0.4321120000000 1.0
C      1  0.4371330000000  0.5134730000000  0.4321130000000 1.0
C      1  0.5432790000000  0.5474560000000  0.4321130000000 1.0
C      1  0.5549910000000  0.5033240000000  0.4484710000000 1.0
C      1  0.4755610000000  0.4504620000000  0.4484700000000 1.0
C      1  0.4694960000000  0.5456820000000  0.4484710000000 1.0
C      1  0.4110640000000  0.5607700000000  0.5181630000000 1.0
C      1  0.5972740000000  0.5463830000000  0.5181620000000 1.0
C      1  0.4917100000000  0.3923140000000  0.5181610000000 1.0
C      1  0.4175090000000  0.5469730000000  0.4574090000000 1.0
C      1  0.5821020000000  0.5477010000000  0.4574090000000 1.0
C      1  0.5004370000000  0.4047950000000  0.4574090000000 1.0
C      1  0.5033650000000  0.5324100000000  0.5469220000000 1.0
C      1  0.5265630000000  0.4806290000000  0.5469210000000 1.0
C      1  0.4701200000000  0.4864280000000  0.5469220000000 1.0
C      1  0.4821820000000  0.5111050000000  0.3956530000000 1.0
C      1  0.5187030000000  0.5096270000000  0.3956530000000 1.0
C      1  0.4991630000000  0.4787370000000  0.3956520000000 1.0
C      1  0.4045880000000  0.4426830000000  0.5200650000000 1.0
C      1  0.4982460000000  0.6110360000000  0.5200660000000 1.0
C      1  0.5972150000000  0.4457490000000  0.5200650000000 1.0
C      1  0.4131860000000  0.4835650000000  0.5565590000000 1.0
C      1  0.5293520000000  0.5831480000000  0.5565600000000 1.0
C      1  0.5575100000000  0.4327540000000  0.5565590000000 1.0
C      1  0.4045750000000  0.5360410000000  0.5616810000000 1.0
C      1  0.5791030000000  0.5643670000000  0.5616810000000 1.0
C      1  0.5163700000000  0.3990590000000  0.5616800000000 1.0
C      1  0.5479190000000  0.4944050000000  0.5303840000000 1.0
C      1  0.4713730000000  0.4610460000000  0.5303840000000 1.0
C      1  0.4807560000000  0.5440170000000  0.5303850000000 1.0
C      1  0.4521560000000  0.5134250000000  0.5130910000000 1.0
C      1  0.5357270000000  0.5344690000000  0.5130910000000 1.0
C      1  0.5121660000000  0.4515730000000  0.5130910000000 1.0
C      1  0.4424750000000  0.5574350000000  0.4437560000000 1.0
C      1  0.5786800000000  0.5208480000000  0.4437560000000 1.0
C      1  0.4788930000000  0.4211850000000  0.4437560000000 1.0
C      1  0.4364660000000  0.5240520000000  0.5371280000000 1.0
C      1  0.5527750000000  0.5427440000000  0.5371280000000 1.0
C      1  0.5108080000000  0.4326710000000  0.5371280000000 1.0
C      1  0.4596530000000  0.5492320000000  0.5771980000000 1.0
C      1  0.5629880000000  0.5100720000000  0.5771970000000 1.0
C      1  0.4774070000000  0.4401620000000  0.5771970000000 1.0
C      1  0.4978470000000  0.5893870000000  0.4422140000000 1.0
C      1  0.5786650000000  0.4569200000000  0.4422130000000 1.0
C      1  0.4235360000000  0.4531630000000  0.4422130000000 1.0
C      1  0.3951500000000  0.5004740000000  0.5098580000000 1.0
C      1  0.5530130000000  0.5903130000000  0.5098580000000 1.0
C      1  0.5518850000000  0.4086810000000  0.5098570000000 1.0
C      1  0.4521800000000  0.4098480000000  0.4384230000000 1.0
C      1  0.4460140000000  0.5862370000000  0.4384240000000 1.0
C      1  0.6018540000000  0.5033830000000  0.4384230000000 1.0
C      1  0.4443270000000  0.6035950000000  0.4896070000000 1.0
C      1  0.6177300000000  0.4961650000000  0.4896060000000 1.0
C      1  0.4379910000000  0.3997080000000  0.4896060000000 1.0
C      1  0.4903930000000  0.3952040000000  0.5479730000000 1.0
C      1  0.4142250000000  0.5604650000000  0.5479740000000 1.0
C      1  0.5954300000000  0.5437980000000  0.5479740000000 1.0
C      1  0.4562780000000  0.4456190000000  0.4943750000000 1.0
C      1  0.4749430000000  0.5648030000000  0.4943760000000 1.0
C      1  0.5688270000000  0.4890460000000  0.4943750000000 1.0
C      1  0.5152570000000  0.5204410000000  0.5255270000000 1.0
C      1  0.5102520000000  0.4763140000000  0.5255270000000 1.0
C      1  0.4745400000000  0.5027120000000  0.5255270000000 1.0
C      1  0.5118810000000  0.5371500000000  0.5951030000000 1.0
C      1  0.5264110000000  0.4708820000000  0.5951030000000 1.0
C      1  0.4617560000000  0.4914330000000  0.5951030000000 1.0
C      1  0.5133650000000  0.4792980000000  0.4241720000000 1.0
C      1  0.4755660000000  0.4985250000000  0.4241720000000 1.0
C      1  0.5111170000000  0.5216470000000  0.4241720000000 1.0
C      1  0.6228200000000  0.4989330000000  0.4588440000000 1.0
C      1  0.4378430000000  0.3939160000000  0.4588440000000 1.0
C      1  0.4393850000000  0.6066200000000  0.4588450000000 1.0
C      1  0.5647250000000  0.5362150000000  0.4829270000000 1.0
C      1  0.4991780000000  0.4255870000000  0.4829270000000 1.0
C      1  0.4361450000000  0.5376660000000  0.4829270000000 1.0
C      1  0.4405610000000  0.4621320000000  0.5294840000000 1.0
C      1  0.4971030000000  0.5701570000000  0.5294850000000 1.0
C      1  0.5623850000000  0.4671780000000  0.5294840000000 1.0
C      1  0.4154510000000  0.4870610000000  0.4358350000000 1.0
C      1  0.5312460000000  0.5794390000000  0.4358360000000 1.0
C      1  0.5533510000000  0.4329690000000  0.4358350000000 1.0
C      1  0.4393850000000  0.5731020000000  0.5591370000000 1.0
C      1  0.5937940000000  0.5156900000000  0.5591360000000 1.0
C      1  0.4668690000000  0.4106740000000  0.5591360000000 1.0
C      1  0.4002450000000  0.4934710000000  0.4624500000000 1.0
C      1  0.5444010000000  0.5894030000000  0.4624500000000 1.0
C      1  0.5554020000000  0.4165940000000  0.4624490000000 1.0
C      1  0.4143820000000  0.5877050000000  0.5020170000000 1.0
C      1  0.6189410000000  0.5300430000000  0.5020160000000 1.0
C      1  0.4667250000000  0.3817200000000  0.5020160000000 1.0
C      1  0.4536430000000  0.4620550000000  0.5842250000000 1.0
C      1  0.4904960000000  0.5588660000000  0.5842250000000 1.0
C      1  0.5559100000000  0.4785450000000  0.5842240000000 1.0
C      1  0.4415290000000  0.4966870000000  0.4922360000000 1.0
C      1  0.5265440000000  0.5520410000000  0.4922360000000 1.0
C      1  0.5319750000000  0.4507390000000  0.4922360000000 1.0
C      1  0.4273640000000  0.4595010000000  0.5692570000000 1.0
C      1  0.5014230000000  0.5829020000000  0.5692570000000 1.0
C      1  0.5712620000000  0.4570640000000  0.5692570000000 1.0
C      1  0.4129150000000  0.4258130000000  0.4919420000000 1.0
C      1  0.4794730000000  0.6122590000000  0.4919430000000 1.0
C      1  0.6076610000000  0.4613950000000  0.4919420000000 1.0
C      1  0.5289580000000  0.4271350000000  0.5618550000000 1.0
C      1  0.4225960000000  0.5111010000000  0.5618550000000 1.0
C      1  0.5484940000000  0.5612300000000  0.5618550000000 1.0
C      1  0.5600300000000  0.4559060000000  0.4978570000000 1.0
C      1  0.4319760000000  0.4698070000000  0.4978570000000 1.0
C      1  0.5080420000000  0.5737540000000  0.4978570000000 1.0
C      1  0.5625110000000  0.4903390000000  0.4093240000000 1.0
C      1  0.4605550000000  0.4504430000000  0.4093240000000 1.0
C      1  0.4769820000000  0.5586880000000  0.4093250000000 1.0
C      1  0.4254820000000  0.4395010000000  0.5448910000000 1.0
C      1  0.4850430000000  0.5945310000000  0.5448920000000 1.0
C      1  0.5895230000000  0.4654350000000  0.5448910000000 1.0
C      1  0.4459850000000  0.4187960000000  0.5384190000000 1.0
C      1  0.4568610000000  0.5871270000000  0.5384200000000 1.0
C      1  0.5972020000000  0.4935440000000  0.5384190000000 1.0
C      1  0.4381760000000  0.5111920000000  0.4654360000000 1.0
C      1  0.5407820000000  0.5476930000000  0.4654360000000 1.0
C      1  0.5210900000000  0.4405830000000  0.4654350000000 1.0
C      1  0.4054080000000  0.4425490000000  0.4667880000000 1.0
C      1  0.4977190000000  0.6103920000000  0.4667880000000 1.0
C      1  0.5969210000000  0.4465270000000  0.4667870000000 1.0
C      1  0.4914330000000  0.5631720000000  0.4558220000000 1.0
C      1  0.5591700000000  0.4755810000000  0.4558210000000 1.0
C      1  0.4494450000000  0.4607150000000  0.4558210000000 1.0
C      1  0.5309490000000  0.4003770000000  0.4720650000000 1.0
C      1  0.3984270000000  0.5227570000000  0.4720660000000 1.0
C      1  0.5706720000000  0.5763340000000  0.4720660000000 1.0
C      1  0.5037910000000  0.5497360000000  0.4180010000000 1.0
C      1  0.5413540000000  0.4715970000000  0.4180000000000 1.0
C      1  0.4549030000000  0.4781360000000  0.4180010000000 1.0
C      1  0.5172890000000  0.4062040000000  0.5032850000000 1.0
C      1  0.4103030000000  0.5316740000000  0.5032860000000 1.0
C      1  0.5724560000000  0.5615910000000  0.5032860000000 1.0
C      1  0.4851970000000  0.4559470000000  0.4970380000000 1.0
C      1  0.4694290000000  0.5345940000000  0.4970380000000 1.0
C      1  0.5454230000000  0.5089260000000  0.4970380000000 1.0
C      1  0.5533950000000  0.5158630000000  0.5480210000000 1.0
C      1  0.4872180000000  0.4455750000000  0.5480200000000 1.0
C      1  0.4594350000000  0.5380300000000  0.5480210000000 1.0
C      1  0.5187250000000  0.5069890000000  0.4764950000000 1.0
C      1  0.4968680000000  0.4800370000000  0.4764950000000 1.0
C      1  0.4844550000000  0.5124420000000  0.4764950000000 1.0
C      1  0.5686360000000  0.4256860000000  0.5290930000000 1.0
C      1  0.4015020000000  0.4774640000000  0.5290940000000 1.0
C      1  0.5299100000000  0.5963170000000  0.5290940000000 1.0
C      1  0.5157080000000  0.4879550000000  0.5726390000000 1.0
C      1  0.4818930000000  0.4921660000000  0.5726390000000 1.0
C      1  0.5024470000000  0.5193450000000  0.5726390000000 1.0
C      1  0.4554860000000  0.5818820000000  0.5082070000000 1.0
C      1  0.5933470000000  0.4973570000000  0.5082060000000 1.0
C      1  0.4512150000000  0.4202290000000  0.5082060000000 1.0
C      1  0.5499240000000  0.5211150000000  0.4083230000000 1.0
C      1  0.4935010000000  0.4459550000000  0.4083220000000 1.0
C      1  0.4566220000000  0.5323990000000  0.4083230000000 1.0
C      1  0.4969190000000  0.4699540000000  0.4482470000000 1.0
C      1  0.4756970000000  0.5174390000000  0.4482480000000 1.0
C      1  0.5274310000000  0.5120750000000  0.4482480000000 1.0
C      1  0.5090530000000  0.5284120000000  0.6228690000000 1.0
C      1  0.5202580000000  0.4777000000000  0.6228690000000 1.0
C      1  0.4707380000000  0.4933530000000  0.6228690000000 1.0
C      1  0.4721740000000  0.5856250000000  0.4236080000000 1.0
C      1  0.5882430000000  0.4810340000000  0.4236070000000 1.0
C      1  0.4396300000000  0.4328100000000  0.4236070000000 1.0
C      1  0.5000160000000  0.4998230000000  0.5132580000000 1.0
END
