TITL C-862133-5440-1124 -2.93526437247068e-06 125000 -374.695203107191 0 0 79 (Td) n - 1
REM
REM in /home/nfs/bkarasulu/CARBON/AIRSS/Generating-Clusters/TERSOFF/Higher-Symm/FIRE-HFTN
REM
REM
REM
REM
REM
REM ./C.cell (b20cbc046b6831c77cfcea5457e17084)
REM AIRSS Version 0.9.1 bugfix July 2018 build 013d7b7c2542+ Fri, 06 Jul 2018 19:26:36 +0100
REM compiler GCC version 9.2.1 20190827 (Red Hat 9.2.1-1)
REM options -cpp -mtune=generic -march=x86-64 -g -O0 -fpre-include=/usr/include/finclude/math-vector-fortran.h
REM seed 1853146332 1124242342 711340342 -1328415252 -905045587 -1559027030 903923535 1932960240 -655628656 -1937805936 1753975898 -164216605 -1289484535 -1516924620 2122047744 -1642348136 -1415240275 627082321 432405236 173841740 -1264817493 -1598396310 -484023870 1229707706 1173337521 -1377639417 -845874326 -937019818 864824367 1099610796 -768609324 -1009225553 320981956
REM
CELL 1.54180   50.00000   50.00000   50.00000   90.00000   90.00000   90.00000
LATT -1
SFAC C  
C      1  0.5493830000000  0.5070300000000  0.4704780000000 1.0
C      1  0.4708040000000  0.5490000000000  0.5070880000000 1.0
C      1  0.5074130000000  0.4704210000000  0.5490570000000 1.0
C      1  0.4508920000000  0.4924790000000  0.4704780000000 1.0
C      1  0.4508920000000  0.5070300000000  0.5291460000000 1.0
C      1  0.5493830000000  0.4924790000000  0.5291460000000 1.0
C      1  0.5294710000000  0.4505090000000  0.5070880000000 1.0
C      1  0.5294710000000  0.5490000000000  0.4925360000000 1.0
C      1  0.4708040000000  0.4505090000000  0.4925360000000 1.0
C      1  0.4928620000000  0.5290880000000  0.5490570000000 1.0
C      1  0.4928620000000  0.4704210000000  0.4505670000000 1.0
C      1  0.5074130000000  0.5290880000000  0.4505670000000 1.0
C      1  0.5074130000000  0.5490000000000  0.4704780000000 1.0
C      1  0.5493830000000  0.4704210000000  0.5070880000000 1.0
C      1  0.4708040000000  0.5070300000000  0.5490570000000 1.0
C      1  0.4928620000000  0.4505090000000  0.4704780000000 1.0
C      1  0.5074130000000  0.4505090000000  0.5291460000000 1.0
C      1  0.4928620000000  0.5490000000000  0.5291460000000 1.0
C      1  0.4508920000000  0.5290880000000  0.5070880000000 1.0
C      1  0.5493830000000  0.5290880000000  0.4925360000000 1.0
C      1  0.4508920000000  0.4704210000000  0.4925360000000 1.0
C      1  0.5294710000000  0.4924790000000  0.5490570000000 1.0
C      1  0.4708040000000  0.4924790000000  0.4505670000000 1.0
C      1  0.5294710000000  0.5070300000000  0.4505670000000 1.0
C      1  0.4533150000000  0.5246740000000  0.4301970000000 1.0
C      1  0.4305220000000  0.4529320000000  0.5247310000000 1.0
C      1  0.5250570000000  0.4301390000000  0.4529900000000 1.0
C      1  0.5469600000000  0.4748350000000  0.4301970000000 1.0
C      1  0.5469600000000  0.5246740000000  0.5694270000000 1.0
C      1  0.4533150000000  0.4748350000000  0.5694270000000 1.0
C      1  0.5697530000000  0.5465770000000  0.5247310000000 1.0
C      1  0.5697530000000  0.4529320000000  0.4748930000000 1.0
C      1  0.4305220000000  0.5465770000000  0.4748930000000 1.0
C      1  0.4752180000000  0.5693700000000  0.4529900000000 1.0
C      1  0.4752180000000  0.4301390000000  0.5466340000000 1.0
C      1  0.5250570000000  0.5693700000000  0.5466340000000 1.0
C      1  0.5250570000000  0.4529320000000  0.4301970000000 1.0
C      1  0.4533150000000  0.4301390000000  0.5247310000000 1.0
C      1  0.4305220000000  0.5246740000000  0.4529900000000 1.0
C      1  0.4752180000000  0.5465770000000  0.4301970000000 1.0
C      1  0.5250570000000  0.5465770000000  0.5694270000000 1.0
C      1  0.4752180000000  0.4529320000000  0.5694270000000 1.0
C      1  0.5469600000000  0.5693700000000  0.5247310000000 1.0
C      1  0.4533150000000  0.5693700000000  0.4748930000000 1.0
C      1  0.5469600000000  0.4301390000000  0.4748930000000 1.0
C      1  0.5697530000000  0.4748350000000  0.4529900000000 1.0
C      1  0.4305220000000  0.4748350000000  0.5466340000000 1.0
C      1  0.5697530000000  0.5246740000000  0.5466340000000 1.0
C      1  0.5806480000000  0.4933850000000  0.5322330000000 1.0
C      1  0.5325580000000  0.5802650000000  0.4934420000000 1.0
C      1  0.4937680000000  0.5321750000000  0.5803230000000 1.0
C      1  0.4196270000000  0.5061240000000  0.5322330000000 1.0
C      1  0.4196270000000  0.4933850000000  0.4673910000000 1.0
C      1  0.5806480000000  0.5061240000000  0.4673910000000 1.0
C      1  0.4677170000000  0.4192440000000  0.4934420000000 1.0
C      1  0.4677170000000  0.5802650000000  0.5061820000000 1.0
C      1  0.5325580000000  0.4192440000000  0.5061820000000 1.0
C      1  0.5065070000000  0.4673330000000  0.5803230000000 1.0
C      1  0.5065070000000  0.5321750000000  0.4193010000000 1.0
C      1  0.4937680000000  0.4673330000000  0.4193010000000 1.0
C      1  0.4937680000000  0.5802650000000  0.5322330000000 1.0
C      1  0.5806480000000  0.5321750000000  0.4934420000000 1.0
C      1  0.5325580000000  0.4933850000000  0.5803230000000 1.0
C      1  0.5065070000000  0.4192440000000  0.5322330000000 1.0
C      1  0.4937680000000  0.4192440000000  0.4673910000000 1.0
C      1  0.5065070000000  0.5802650000000  0.4673910000000 1.0
C      1  0.4196270000000  0.4673330000000  0.4934420000000 1.0
C      1  0.5806480000000  0.4673330000000  0.5061820000000 1.0
C      1  0.4196270000000  0.5321750000000  0.5061820000000 1.0
C      1  0.4677170000000  0.5061240000000  0.5803230000000 1.0
C      1  0.5325580000000  0.5061240000000  0.4193010000000 1.0
C      1  0.4677170000000  0.4933850000000  0.4193010000000 1.0
C      1  0.5001380000000  0.5341630000000  0.4998120000000 1.0
C      1  0.5001380000000  0.4653460000000  0.4998120000000 1.0
C      1  0.5001380000000  0.4997540000000  0.5342210000000 1.0
C      1  0.5345460000000  0.4997540000000  0.4998120000000 1.0
C      1  0.5001380000000  0.4997540000000  0.4654030000000 1.0
C      1  0.4657290000000  0.4997540000000  0.4998120000000 1.0
C      1  0.5001380000000  0.4997540000000  0.4998120000000 1.0
END
