TITL C-862130-1496-477 0.000249507470685291 125000 -140.742094052521 0 0 25 (C1) n - 1
REM
REM in /home/nfs/bkarasulu/CARBON/AIRSS/Generating-Clusters/TERSOFF/Higher-Symm/FIRE-HFTN
REM
REM
REM
REM
REM
REM ./C.cell (b20cbc046b6831c77cfcea5457e17084)
REM AIRSS Version 0.9.1 bugfix July 2018 build 013d7b7c2542+ Fri, 06 Jul 2018 19:26:36 +0100
REM compiler GCC version 9.2.1 20190827 (Red Hat 9.2.1-1)
REM options -cpp -mtune=generic -march=x86-64 -g -O0 -fpre-include=/usr/include/finclude/math-vector-fortran.h
REM seed -1939255921 -635143175 -1761744919 812436255 -2031625721 1596358280 412155131 -1493527809 -1209330745 -759119659 -1024427760 -37586064 14773936 188587864 -939525392 -1977911772 102368649 1079802139 1600059380 2039959847 1149576239 -1009209412 1079300928 1216939978 -1727451440 -561590420 1062177995 1870542702 -738958331 535562055 1293171162 453770319 1414667125
REM
CELL 1.54180   50.00000   50.00000   50.00000   90.00000   90.00000   90.00000
LATT -1
SFAC C  
C      1  0.4789190000000  0.4475460000000  0.4951670000000 1.0
C      1  0.4748150000000  0.5249720000000  0.4669760000000 1.0
C      1  0.4758160000000  0.5163770000000  0.5352830000000 1.0
C      1  0.5064470000000  0.4463180000000  0.5034610000000 1.0
C      1  0.5024410000000  0.5221240000000  0.4589330000000 1.0
C      1  0.5034500000000  0.5237480000000  0.5406380000000 1.0
C      1  0.5025900000000  0.5598110000000  0.5131950000000 1.0
C      1  0.5005210000000  0.4630860000000  0.5474480000000 1.0
C      1  0.4992190000000  0.4780890000000  0.4455050000000 1.0
C      1  0.4732230000000  0.4746880000000  0.5396080000000 1.0
C      1  0.4723560000000  0.4792470000000  0.4590260000000 1.0
C      1  0.4744640000000  0.5508780000000  0.5083220000000 1.0
C      1  0.4677950000000  0.4729490000000  0.4875610000000 1.0
C      1  0.4672360000000  0.5255570000000  0.4948080000000 1.0
C      1  0.4665820000000  0.4960630000000  0.5113840000000 1.0
C      1  0.5229790000000  0.5039060000000  0.5315700000000 1.0
C      1  0.5228000000000  0.4683230000000  0.4898100000000 1.0
C      1  0.5213920000000  0.5232340000000  0.4819510000000 1.0
C      1  0.5221720000000  0.4818360000000  0.5498260000000 1.0
C      1  0.5204100000000  0.4651890000000  0.4607870000000 1.0
C      1  0.5223820000000  0.5501980000000  0.4936960000000 1.0
C      1  0.5102040000000  0.5519290000000  0.5400820000000 1.0
C      1  0.5093420000000  0.4410890000000  0.5313290000000 1.0
C      1  0.5074600000000  0.5043480000000  0.4369460000000 1.0
C      1  0.5247330000000  0.4983390000000  0.5012150000000 1.0
END
