TITL C-862502-1143-1226 0.00280362306163855 125000 -198.161316315682 0 0 39 (C1) n - 1
REM
REM in /home/nfs/bkarasulu/CARBON/AIRSS/Generating-Clusters/TERSOFF/Higher-Symm/FIRE-HFTN
REM
REM
REM
REM
REM
REM ./C.cell (b20cbc046b6831c77cfcea5457e17084)
REM AIRSS Version 0.9.1 bugfix July 2018 build 013d7b7c2542+ Fri, 06 Jul 2018 19:26:36 +0100
REM compiler GCC version 9.2.1 20190827 (Red Hat 9.2.1-1)
REM options -cpp -mtune=generic -march=x86-64 -g -O0 -fpre-include=/usr/include/finclude/math-vector-fortran.h
REM seed 1229020045 592274351 1518476044 579244367 -602658503 1486943205 1722529416 1961321229 -1296365692 -1602536578 1707220045 1791192629 1890878439 -449773147 1979804277 -1324165047 -922739490 543640647 -369184961 154528520 766656102 594995666 987857755 -593175619 -821676948 378078077 -1202472519 -2012298806 -960114976 -487395835 -804529222 2008685245 706923504
REM
CELL 1.54180   50.00000   50.00000   50.00000   90.00000   90.00000   90.00000
LATT -1
SFAC C  
C      1  0.5131950000000  0.5311840000000  0.5318160000000 1.0
C      1  0.4871670000000  0.5316010000000  0.4668440000000 1.0
C      1  0.4877950000000  0.4703660000000  0.5312520000000 1.0
C      1  0.5123650000000  0.4697110000000  0.4684260000000 1.0
C      1  0.5558470000000  0.5266960000000  0.5393790000000 1.0
C      1  0.4460300000000  0.5262580000000  0.4603490000000 1.0
C      1  0.4466690000000  0.4787680000000  0.5319790000000 1.0
C      1  0.5533820000000  0.4786210000000  0.4673300000000 1.0
C      1  0.5163500000000  0.4955990000000  0.5664710000000 1.0
C      1  0.4857400000000  0.4951880000000  0.4311410000000 1.0
C      1  0.4898870000000  0.5079580000000  0.5690840000000 1.0
C      1  0.5121070000000  0.5079960000000  0.4301370000000 1.0
C      1  0.5577940000000  0.4686640000000  0.5078920000000 1.0
C      1  0.4426370000000  0.4696040000000  0.4911900000000 1.0
C      1  0.4476000000000  0.5165280000000  0.5010620000000 1.0
C      1  0.5499600000000  0.5150720000000  0.4995560000000 1.0
C      1  0.5145160000000  0.5553240000000  0.4938870000000 1.0
C      1  0.4862210000000  0.5554240000000  0.5053760000000 1.0
C      1  0.4860450000000  0.4459000000000  0.4939900000000 1.0
C      1  0.5143560000000  0.4458430000000  0.5048640000000 1.0
C      1  0.4639130000000  0.5418600000000  0.4863620000000 1.0
C      1  0.5363400000000  0.5412660000000  0.5127330000000 1.0
C      1  0.5378340000000  0.4573550000000  0.4854490000000 1.0
C      1  0.4628520000000  0.4581420000000  0.5134420000000 1.0
C      1  0.5143160000000  0.5475520000000  0.4647400000000 1.0
C      1  0.4863940000000  0.5478610000000  0.5347790000000 1.0
C      1  0.4852320000000  0.4544320000000  0.4650590000000 1.0
C      1  0.5150010000000  0.4554000000000  0.5332020000000 1.0
C      1  0.5262780000000  0.4851410000000  0.5391250000000 1.0
C      1  0.4744910000000  0.4843750000000  0.4577820000000 1.0
C      1  0.4750050000000  0.5190590000000  0.5443110000000 1.0
C      1  0.5255840000000  0.5188060000000  0.4558730000000 1.0
C      1  0.4485200000000  0.4943180000000  0.4727030000000 1.0
C      1  0.5521960000000  0.4939230000000  0.5250880000000 1.0
C      1  0.5481750000000  0.5068720000000  0.4714760000000 1.0
C      1  0.4514660000000  0.5073050000000  0.5288770000000 1.0
C      1  0.4988550000000  0.5015640000000  0.5268320000000 1.0
C      1  0.5009960000000  0.5005090000000  0.4716100000000 1.0
C      1  0.4877450000000  0.5045250000000  0.4989420000000 1.0
END
