TITL C-862134-6730-789 -0.000542297208728293 125000 -422.706990133367 0 0 72 (D5) n - 1
REM
REM in /home/nfs/bkarasulu/CARBON/AIRSS/Generating-Clusters/TERSOFF/Higher-Symm/FIRE-HFTN
REM
REM
REM
REM
REM
REM ./C.cell (b20cbc046b6831c77cfcea5457e17084)
REM AIRSS Version 0.9.1 bugfix July 2018 build 013d7b7c2542+ Fri, 06 Jul 2018 19:26:36 +0100
REM compiler GCC version 9.2.1 20190827 (Red Hat 9.2.1-1)
REM options -cpp -mtune=generic -march=x86-64 -g -O0 -fpre-include=/usr/include/finclude/math-vector-fortran.h
REM seed -2122757634 1588575475 -587406553 1151220239 449436206 -839798910 -2031310782 -1253376442 -1693793557 291086453 -1081817245 -798946214 513573870 -56484646 -1495208712 1034918180 -924551742 -261653120 -953006088 -326126566 1768934333 -1343479581 -1327703955 1098716807 -794792280 594904406 557283783 -205994391 -813341672 641878872 1677212522 570469869 880793610
REM
CELL 1.54180   50.00000   50.00000   50.00000   90.00000   90.00000   90.00000
LATT -1
SFAC C  
C      1  0.4371750000000  0.4610940000000  0.5428640000000 1.0
C      1  0.4371750000000  0.5292780000000  0.5497450000000 1.0
C      1  0.4371740000000  0.5568920000000  0.4870240000000 1.0
C      1  0.4371730000000  0.5057740000000  0.4413810000000 1.0
C      1  0.4371740000000  0.4465680000000  0.4758920000000 1.0
C      1  0.5642880000000  0.4610920000000  0.4558980000000 1.0
C      1  0.5642880000000  0.5292750000000  0.4490140000000 1.0
C      1  0.5642890000000  0.5568930000000  0.5117320000000 1.0
C      1  0.5642900000000  0.5057780000000  0.5573790000000 1.0
C      1  0.5642890000000  0.4465700000000  0.5228720000000 1.0
C      1  0.4978720000000  0.4260410000000  0.5131660000000 1.0
C      1  0.4978730000000  0.4902020000000  0.5739040000000 1.0
C      1  0.4978720000000  0.5677950000000  0.5316530000000 1.0
C      1  0.4978710000000  0.5515890000000  0.4448020000000 1.0
C      1  0.4978710000000  0.4639800000000  0.4333760000000 1.0
C      1  0.5035910000000  0.4260400000000  0.4855990000000 1.0
C      1  0.5035900000000  0.4901970000000  0.4248560000000 1.0
C      1  0.5035910000000  0.5677930000000  0.4671030000000 1.0
C      1  0.5035920000000  0.5515920000000  0.5539550000000 1.0
C      1  0.5035920000000  0.4639850000000  0.5653870000000 1.0
C      1  0.4622970000000  0.5693830000000  0.4958840000000 1.0
C      1  0.4622960000000  0.5180610000000  0.4322390000000 1.0
C      1  0.4622970000000  0.4416710000000  0.4613810000000 1.0
C      1  0.4622980000000  0.4457810000000  0.5430380000000 1.0
C      1  0.4622980000000  0.5247120000000  0.5643620000000 1.0
C      1  0.5391650000000  0.5693830000000  0.5028720000000 1.0
C      1  0.5391670000000  0.5180650000000  0.5665210000000 1.0
C      1  0.5391660000000  0.4416730000000  0.5373830000000 1.0
C      1  0.5391650000000  0.4457790000000  0.4557260000000 1.0
C      1  0.5391640000000  0.5247080000000  0.4343970000000 1.0
C      1  0.4228070000000  0.4724940000000  0.4765170000000 1.0
C      1  0.4228080000000  0.4697010000000  0.5184010000000 1.0
C      1  0.4228080000000  0.5086710000000  0.5340000000000 1.0
C      1  0.4228070000000  0.5355500000000  0.5017570000000 1.0
C      1  0.4228070000000  0.5131910000000  0.4662310000000 1.0
C      1  0.5786560000000  0.4724960000000  0.5222450000000 1.0
C      1  0.5786550000000  0.4697000000000  0.4803610000000 1.0
C      1  0.5786550000000  0.5086700000000  0.4647590000000 1.0
C      1  0.5786560000000  0.5355500000000  0.4970010000000 1.0
C      1  0.5786560000000  0.5131930000000  0.5325290000000 1.0
C      1  0.4806890000000  0.5048020000000  0.4141370000000 1.0
C      1  0.4806900000000  0.4203590000000  0.4683970000000 1.0
C      1  0.4806910000000  0.4458680000000  0.5654750000000 1.0
C      1  0.4806910000000  0.5460770000000  0.5712120000000 1.0
C      1  0.4806890000000  0.5825010000000  0.4776810000000 1.0
C      1  0.5207740000000  0.5048080000000  0.5846230000000 1.0
C      1  0.5207740000000  0.4203610000000  0.5303680000000 1.0
C      1  0.5207720000000  0.4458640000000  0.4332890000000 1.0
C      1  0.5207720000000  0.5460730000000  0.4275450000000 1.0
C      1  0.5207730000000  0.5825020000000  0.5210740000000 1.0
C      1  0.4782030000000  0.4647410000000  0.4558720000000 1.0
C      1  0.4782040000000  0.4476710000000  0.5193940000000 1.0
C      1  0.4782050000000  0.5028090000000  0.5552580000000 1.0
C      1  0.4782040000000  0.5539570000000  0.5139010000000 1.0
C      1  0.4782030000000  0.5304290000000  0.4524770000000 1.0
C      1  0.5232600000000  0.4647440000000  0.5428910000000 1.0
C      1  0.5232590000000  0.4476700000000  0.4793690000000 1.0
C      1  0.5232580000000  0.5028060000000  0.4435020000000 1.0
C      1  0.5232590000000  0.5539560000000  0.4848560000000 1.0
C      1  0.5232600000000  0.5304330000000  0.5462810000000 1.0
C      1  0.4810010000000  0.5145000000000  0.4776490000000 1.0
C      1  0.4810010000000  0.4837580000000  0.4788000000000 1.0
C      1  0.4810010000000  0.4753540000000  0.5083930000000 1.0
C      1  0.4810020000000  0.5009010000000  0.5255310000000 1.0
C      1  0.4810010000000  0.5250950000000  0.5065300000000 1.0
C      1  0.5204620000000  0.5145020000000  0.5211110000000 1.0
C      1  0.5204620000000  0.4837600000000  0.5199610000000 1.0
C      1  0.5204620000000  0.4753530000000  0.4903690000000 1.0
C      1  0.5204610000000  0.5008990000000  0.4732290000000 1.0
C      1  0.5204620000000  0.5250940000000  0.4922290000000 1.0
C      1  0.4281050000000  0.4999210000000  0.4993810000000 1.0
C      1  0.5733580000000  0.4999220000000  0.4993790000000 1.0
END
