TITL C-862128-1543-689 9.56101111658551 125000 -385.094926382556 0 0 67 (C1) n - 1
REM
REM in /home/nfs/bkarasulu/CARBON/AIRSS/Generating-Clusters/TERSOFF/Higher-Symm/FIRE-HFTN
REM
REM
REM
REM
REM
REM ./C.cell (b20cbc046b6831c77cfcea5457e17084)
REM AIRSS Version 0.9.1 bugfix July 2018 build 013d7b7c2542+ Fri, 06 Jul 2018 19:26:36 +0100
REM compiler GCC version 9.2.1 20190827 (Red Hat 9.2.1-1)
REM options -cpp -mtune=generic -march=x86-64 -g -O0 -fpre-include=/usr/include/finclude/math-vector-fortran.h
REM seed 82283741 1401906535 -1111108589 -364058052 -1877966540 1512965000 -68366487 826273634 971945091 -2023149099 -1530804041 -475729713 989442456 -1716798309 -736929774 -146619275 -1353274196 -1929074761 -2112565665 -684738914 -1339608591 480000178 -1367247882 -1722720918 -111794780 -1942534015 -867336064 394973344 1512557785 2124901555 1716025427 -189513752 579733059
REM
CELL 1.54180   50.00000   50.00000   50.00000   90.00000   90.00000   90.00000
LATT -1
SFAC C  
C      1  0.4520410000000  0.5858270000000  0.4800850000000 1.0
C      1  0.4478300000000  0.4959080000000  0.5078070000000 1.0
C      1  0.5187770000000  0.4880670000000  0.4436830000000 1.0
C      1  0.5123460000000  0.4911750000000  0.4730440000000 1.0
C      1  0.5050910000000  0.5538690000000  0.5654690000000 1.0
C      1  0.4646250000000  0.5397530000000  0.5378040000000 1.0
C      1  0.5482230000000  0.4466630000000  0.4671750000000 1.0
C      1  0.4643390000000  0.5147510000000  0.4616100000000 1.0
C      1  0.5621460000000  0.4625040000000  0.5163230000000 1.0
C      1  0.5269410000000  0.5352770000000  0.5628400000000 1.0
C      1  0.4940530000000  0.6034570000000  0.4573730000000 1.0
C      1  0.4734480000000  0.5167220000000  0.5212610000000 1.0
C      1  0.5622650000000  0.4692970000000  0.4540270000000 1.0
C      1  0.5526780000000  0.5198540000000  0.4925650000000 1.0
C      1  0.4879520000000  0.4879160000000  0.5579370000000 1.0
C      1  0.4748230000000  0.4223050000000  0.5001670000000 1.0
C      1  0.4469300000000  0.4943520000000  0.4501210000000 1.0
C      1  0.5413040000000  0.4521090000000  0.4955250000000 1.0
C      1  0.4547020000000  0.5415010000000  0.4631730000000 1.0
C      1  0.5112200000000  0.4589060000000  0.4360230000000 1.0
C      1  0.4505530000000  0.4622050000000  0.5206360000000 1.0
C      1  0.4880550000000  0.4413500000000  0.5489500000000 1.0
C      1  0.5414190000000  0.5331260000000  0.5373640000000 1.0
C      1  0.5591610000000  0.5439430000000  0.4481850000000 1.0
C      1  0.5477920000000  0.4943200000000  0.4478110000000 1.0
C      1  0.5063980000000  0.4918970000000  0.5801420000000 1.0
C      1  0.4505510000000  0.4402070000000  0.5009280000000 1.0
C      1  0.4810980000000  0.4592670000000  0.4379330000000 1.0
C      1  0.5223820000000  0.4380740000000  0.4543030000000 1.0
C      1  0.5266820000000  0.5208160000000  0.5118910000000 1.0
C      1  0.5689920000000  0.5198680000000  0.5375120000000 1.0
C      1  0.5096160000000  0.5792360000000  0.4536350000000 1.0
C      1  0.4375530000000  0.5287320000000  0.4992960000000 1.0
C      1  0.4712430000000  0.6305940000000  0.4933400000000 1.0
C      1  0.4594290000000  0.4953150000000  0.5612060000000 1.0
C      1  0.4629960000000  0.4562330000000  0.5462500000000 1.0
C      1  0.5088920000000  0.4510550000000  0.5672400000000 1.0
C      1  0.5267710000000  0.5123150000000  0.5806570000000 1.0
C      1  0.4946250000000  0.5048840000000  0.4331070000000 1.0
C      1  0.4773650000000  0.5465540000000  0.5627820000000 1.0
C      1  0.5264940000000  0.4910720000000  0.5238280000000 1.0
C      1  0.5372610000000  0.4540080000000  0.5603370000000 1.0
C      1  0.4952410000000  0.4235510000000  0.5263630000000 1.0
C      1  0.4403090000000  0.4983590000000  0.5393840000000 1.0
C      1  0.5819390000000  0.4823680000000  0.5066260000000 1.0
C      1  0.4543120000000  0.5604980000000  0.5210430000000 1.0
C      1  0.5000610000000  0.5524190000000  0.4595050000000 1.0
C      1  0.5294750000000  0.4803580000000  0.4952920000000 1.0
C      1  0.4700110000000  0.4857560000000  0.4317860000000 1.0
C      1  0.5532390000000  0.5194880000000  0.4627850000000 1.0
C      1  0.5131270000000  0.4390710000000  0.5034070000000 1.0
C      1  0.4384330000000  0.4808290000000  0.4762750000000 1.0
C      1  0.5663520000000  0.4951200000000  0.5531210000000 1.0
C      1  0.5483220000000  0.4743500000000  0.5415760000000 1.0
C      1  0.4778440000000  0.4725470000000  0.4880560000000 1.0
C      1  0.4963590000000  0.5233930000000  0.5019780000000 1.0
C      1  0.4853480000000  0.5028040000000  0.4805120000000 1.0
C      1  0.4574190000000  0.5576110000000  0.4901180000000 1.0
C      1  0.4724400000000  0.6066080000000  0.4769250000000 1.0
C      1  0.5760780000000  0.5113240000000  0.5089740000000 1.0
C      1  0.4784290000000  0.4511970000000  0.4664510000000 1.0
C      1  0.4979160000000  0.4277340000000  0.4751800000000 1.0
C      1  0.4998080000000  0.4823660000000  0.5313750000000 1.0
C      1  0.4887140000000  0.5481830000000  0.4868220000000 1.0
C      1  0.4923150000000  0.5345930000000  0.4360680000000 1.0
C      1  0.4915600000000  0.4627050000000  0.5117100000000 1.0
C      1  0.4378870000000  0.4514820000000  0.4773260000000 1.0
END
