TITL C-862507-1800-1346 -3.13928150702504e-05 125000 -541.392293523546 0 0 107 (Cs) n - 1
REM
REM in /home/nfs/bkarasulu/CARBON/AIRSS/Generating-Clusters/TERSOFF/Higher-Symm/FIRE-HFTN
REM
REM
REM
REM
REM
REM ./C.cell (b20cbc046b6831c77cfcea5457e17084)
REM AIRSS Version 0.9.1 bugfix July 2018 build 013d7b7c2542+ Fri, 06 Jul 2018 19:26:36 +0100
REM compiler GCC version 9.2.1 20190827 (Red Hat 9.2.1-1)
REM options -cpp -mtune=generic -march=x86-64 -g -O0 -fpre-include=/usr/include/finclude/math-vector-fortran.h
REM seed 610698983 -31960573 -1988129679 1387508040 -1455241658 1986381641 1832298037 847110119 -1162813072 -1384765650 -2091599488 1358777456 838343686 1885133562 -1871463303 -1365380987 2077355411 -266510615 -490441525 1281342982 390908108 -244595831 1491173924 41047592 -400613028 -945206066 473999709 -1736658042 -1468445748 1954210986 1174275611 588451151 -1679775052
REM
CELL 1.54180   50.00000   50.00000   50.00000   90.00000   90.00000   90.00000
LATT -1
SFAC C  
C      1  0.5117430000000  0.4718140000000  0.4765000000000 1.0
C      1  0.5283640000000  0.5103560000000  0.4772980000000 1.0
C      1  0.4888480000000  0.5240750000000  0.4746440000000 1.0
C      1  0.4722000000000  0.4857140000000  0.4781150000000 1.0
C      1  0.5117430000000  0.4718140000000  0.5216870000000 1.0
C      1  0.5283640000000  0.5103560000000  0.5208890000000 1.0
C      1  0.4888480000000  0.5240750000000  0.5235430000000 1.0
C      1  0.4722000000000  0.4857140000000  0.5200720000000 1.0
C      1  0.4510600000000  0.5085080000000  0.4837490000000 1.0
C      1  0.4899820000000  0.4481740000000  0.4840750000000 1.0
C      1  0.5560670000000  0.4916190000000  0.4841760000000 1.0
C      1  0.5081090000000  0.5488330000000  0.4846550000000 1.0
C      1  0.4510600000000  0.5085080000000  0.5144380000000 1.0
C      1  0.4899820000000  0.4481740000000  0.5141110000000 1.0
C      1  0.5560670000000  0.4916190000000  0.5140110000000 1.0
C      1  0.5081090000000  0.5488330000000  0.5135310000000 1.0
C      1  0.4877410000000  0.4426500000000  0.4425610000000 1.0
C      1  0.5612300000000  0.4870820000000  0.4427720000000 1.0
C      1  0.5123710000000  0.5550490000000  0.4434630000000 1.0
C      1  0.4422950000000  0.5100670000000  0.4427930000000 1.0
C      1  0.4877410000000  0.4426490000000  0.5556250000000 1.0
C      1  0.5612300000000  0.4870820000000  0.5554140000000 1.0
C      1  0.5123710000000  0.5550490000000  0.5547230000000 1.0
C      1  0.4422950000000  0.5100670000000  0.5553930000000 1.0
C      1  0.5335660000000  0.4472530000000  0.5141460000000 1.0
C      1  0.5509540000000  0.5362100000000  0.5143460000000 1.0
C      1  0.4646560000000  0.5482280000000  0.5141940000000 1.0
C      1  0.4481570000000  0.4635980000000  0.5139610000000 1.0
C      1  0.5335660000000  0.4472530000000  0.4840400000000 1.0
C      1  0.5509540000000  0.5362100000000  0.4838400000000 1.0
C      1  0.4646560000000  0.5482280000000  0.4839920000000 1.0
C      1  0.4481570000000  0.4635980000000  0.4842250000000 1.0
C      1  0.4926760000000  0.5605880000000  0.5749210000000 1.0
C      1  0.4560510000000  0.5031670000000  0.5859130000000 1.0
C      1  0.4973450000000  0.4590840000000  0.5833300000000 1.0
C      1  0.5440420000000  0.4956170000000  0.5828100000000 1.0
C      1  0.4926760000000  0.5605880000000  0.4232650000000 1.0
C      1  0.4560510000000  0.5031670000000  0.4122740000000 1.0
C      1  0.4973450000000  0.4590850000000  0.4148570000000 1.0
C      1  0.5440420000000  0.4956170000000  0.4153760000000 1.0
C      1  0.4869320000000  0.4752730000000  0.5460470000000 1.0
C      1  0.5286410000000  0.4859330000000  0.5451300000000 1.0
C      1  0.5149840000000  0.5254730000000  0.5476810000000 1.0
C      1  0.4741220000000  0.5162810000000  0.5505330000000 1.0
C      1  0.4869320000000  0.4752730000000  0.4521390000000 1.0
C      1  0.5286410000000  0.4859330000000  0.4530570000000 1.0
C      1  0.5149840000000  0.5254730000000  0.4505050000000 1.0
C      1  0.4741220000000  0.5162820000000  0.4476540000000 1.0
C      1  0.4517700000000  0.5547990000000  0.4319730000000 1.0
C      1  0.4455080000000  0.4550920000000  0.4319290000000 1.0
C      1  0.5450970000000  0.4444170000000  0.4321980000000 1.0
C      1  0.5513040000000  0.5457690000000  0.4302350000000 1.0
C      1  0.4517700000000  0.5547990000000  0.5662140000000 1.0
C      1  0.4455080000000  0.4550920000000  0.5662570000000 1.0
C      1  0.5450970000000  0.4444170000000  0.5659880000000 1.0
C      1  0.5513040000000  0.5457690000000  0.5679520000000 1.0
C      1  0.5451360000000  0.5679490000000  0.5174480000000 1.0
C      1  0.4321820000000  0.5456120000000  0.5173170000000 1.0
C      1  0.4516510000000  0.4318920000000  0.5174680000000 1.0
C      1  0.5651910000000  0.4511220000000  0.5173230000000 1.0
C      1  0.5451360000000  0.5679490000000  0.4807380000000 1.0
C      1  0.4321820000000  0.5456120000000  0.4808690000000 1.0
C      1  0.4516510000000  0.4318920000000  0.4807180000000 1.0
C      1  0.5651910000000  0.4511220000000  0.4808630000000 1.0
C      1  0.5259660000000  0.4674630000000  0.5757960000000 1.0
C      1  0.5300340000000  0.5218630000000  0.5778030000000 1.0
C      1  0.4756180000000  0.5334080000000  0.5823890000000 1.0
C      1  0.4673080000000  0.4754710000000  0.5763650000000 1.0
C      1  0.5259660000000  0.4674630000000  0.4223900000000 1.0
C      1  0.5300340000000  0.5218630000000  0.4203830000000 1.0
C      1  0.4756180000000  0.5334080000000  0.4157980000000 1.0
C      1  0.4673080000000  0.4754710000000  0.4218210000000 1.0
C      1  0.5322830000000  0.4206940000000  0.5546440000000 1.0
C      1  0.5763570000000  0.5355480000000  0.5562020000000 1.0
C      1  0.4622270000000  0.5786600000000  0.5524610000000 1.0
C      1  0.4215230000000  0.4667700000000  0.5544430000000 1.0
C      1  0.5322830000000  0.4206940000000  0.4435430000000 1.0
C      1  0.5763570000000  0.5355480000000  0.4419840000000 1.0
C      1  0.4622270000000  0.5786600000000  0.4457260000000 1.0
C      1  0.4215230000000  0.4667700000000  0.4437430000000 1.0
C      1  0.5004540000000  0.5803620000000  0.4818110000000 1.0
C      1  0.4193740000000  0.5017470000000  0.4824010000000 1.0
C      1  0.4968610000000  0.4164850000000  0.4820440000000 1.0
C      1  0.5861070000000  0.5032370000000  0.4819560000000 1.0
C      1  0.5004540000000  0.5803610000000  0.5163760000000 1.0
C      1  0.4193740000000  0.5017470000000  0.5157850000000 1.0
C      1  0.4968610000000  0.4164850000000  0.5161420000000 1.0
C      1  0.5861070000000  0.5032370000000  0.5162300000000 1.0
C      1  0.5244740000000  0.4219270000000  0.4714270000000 1.0
C      1  0.5766500000000  0.5292570000000  0.4704060000000 1.0
C      1  0.4725560000000  0.5745100000000  0.4724320000000 1.0
C      1  0.4229510000000  0.4738380000000  0.4717680000000 1.0
C      1  0.5244740000000  0.4219270000000  0.5267600000000 1.0
C      1  0.5766500000000  0.5292570000000  0.5277810000000 1.0
C      1  0.4725560000000  0.5745100000000  0.5257550000000 1.0
C      1  0.4229510000000  0.4738380000000  0.5264180000000 1.0
C      1  0.5381240000000  0.5691420000000  0.5497370000000 1.0
C      1  0.4328300000000  0.5380310000000  0.5486190000000 1.0
C      1  0.4594670000000  0.4334320000000  0.5490160000000 1.0
C      1  0.5666030000000  0.4578250000000  0.5483520000000 1.0
C      1  0.5381240000000  0.5691420000000  0.4484490000000 1.0
C      1  0.4328300000000  0.5380310000000  0.4495670000000 1.0
C      1  0.4594670000000  0.4334320000000  0.4491710000000 1.0
C      1  0.5666030000000  0.4578250000000  0.4498340000000 1.0
C      1  0.5050560000000  0.5258000000000  0.4032930000000 1.0
C      1  0.5050560000000  0.5258000000000  0.5948940000000 1.0
C      1  0.5005440000000  0.4988910000000  0.4990930000000 1.0
END
