TITL C-862132-7359-187 0.000189540467371899 125000 -260.818685621309 0 0 49 (S4) n - 1
REM
REM in /home/nfs/bkarasulu/CARBON/AIRSS/Generating-Clusters/TERSOFF/Higher-Symm/FIRE-HFTN
REM
REM
REM
REM
REM
REM ./C.cell (b20cbc046b6831c77cfcea5457e17084)
REM AIRSS Version 0.9.1 bugfix July 2018 build 013d7b7c2542+ Fri, 06 Jul 2018 19:26:36 +0100
REM compiler GCC version 9.2.1 20190827 (Red Hat 9.2.1-1)
REM options -cpp -mtune=generic -march=x86-64 -g -O0 -fpre-include=/usr/include/finclude/math-vector-fortran.h
REM seed -1286795282 -1695669603 1584711253 1405242346 -1512967619 1545664421 1776185450 -1030935844 -172535256 2136362617 -228480195 399473416 999497223 -1888866006 -1202896588 686697279 -296450306 -1072663547 938156159 1141517694 1260203893 -1538267222 -1772667182 -1261922464 966984673 878565474 1331185158 -1647500808 -2085479484 667644238 -2144414225 1064144834 1503884927
REM
CELL 1.54180   50.00000   50.00000   50.00000   90.00000   90.00000   90.00000
LATT -1
SFAC C  
C      1  0.4527180000000  0.5548850000000  0.5066590000000 1.0
C      1  0.5479240000000  0.5054150000000  0.4454230000000 1.0
C      1  0.4527180000000  0.4441790000000  0.4948920000000 1.0
C      1  0.5479240000000  0.4936480000000  0.5561280000000 1.0
C      1  0.5004720000000  0.4646430000000  0.4528360000000 1.0
C      1  0.5001700000000  0.4515920000000  0.5356650000000 1.0
C      1  0.5004720000000  0.5344210000000  0.5487150000000 1.0
C      1  0.5001700000000  0.5474720000000  0.4658870000000 1.0
C      1  0.5174550000000  0.4930680000000  0.5234480000000 1.0
C      1  0.4831870000000  0.5222040000000  0.5072390000000 1.0
C      1  0.5174550000000  0.5059960000000  0.4781030000000 1.0
C      1  0.4831870000000  0.4768600000000  0.4943120000000 1.0
C      1  0.4301260000000  0.4623630000000  0.5023390000000 1.0
C      1  0.5705160000000  0.5010950000000  0.5379440000000 1.0
C      1  0.4301260000000  0.5367000000000  0.4992120000000 1.0
C      1  0.5705160000000  0.4979680000000  0.4636070000000 1.0
C      1  0.5641750000000  0.4849320000000  0.4913760000000 1.0
C      1  0.4364670000000  0.4901330000000  0.5153760000000 1.0
C      1  0.5641750000000  0.5141320000000  0.5101750000000 1.0
C      1  0.4364670000000  0.5089310000000  0.4861750000000 1.0
C      1  0.5306080000000  0.5512710000000  0.4769870000000 1.0
C      1  0.4700340000000  0.4757440000000  0.4490360000000 1.0
C      1  0.5306080000000  0.4477930000000  0.5245640000000 1.0
C      1  0.4700340000000  0.5233200000000  0.5525150000000 1.0
C      1  0.4704900000000  0.5504140000000  0.4789550000000 1.0
C      1  0.5301520000000  0.4777110000000  0.4498930000000 1.0
C      1  0.4704900000000  0.4486500000000  0.5225960000000 1.0
C      1  0.5301520000000  0.5213520000000  0.5516580000000 1.0
C      1  0.4615450000000  0.5541060000000  0.5358590000000 1.0
C      1  0.5390970000000  0.5346150000000  0.4462020000000 1.0
C      1  0.4615450000000  0.4449580000000  0.4656920000000 1.0
C      1  0.5390970000000  0.4644480000000  0.5553490000000 1.0
C      1  0.4991300000000  0.4544220000000  0.4817950000000 1.0
C      1  0.5015120000000  0.4805510000000  0.5458850000000 1.0
C      1  0.4991300000000  0.5446420000000  0.5197560000000 1.0
C      1  0.5015120000000  0.5185130000000  0.4556660000000 1.0
C      1  0.5428510000000  0.5206430000000  0.4855810000000 1.0
C      1  0.4577910000000  0.4843380000000  0.4796640000000 1.0
C      1  0.5428510000000  0.4784200000000  0.5159700000000 1.0
C      1  0.4577910000000  0.5147260000000  0.5218870000000 1.0
C      1  0.4569560000000  0.4746730000000  0.5344950000000 1.0
C      1  0.5436860000000  0.5332510000000  0.5256350000000 1.0
C      1  0.4569560000000  0.5243910000000  0.4670560000000 1.0
C      1  0.5436860000000  0.4658130000000  0.4759170000000 1.0
C      1  0.4746910000000  0.5078640000000  0.4493130000000 1.0
C      1  0.5259510000000  0.4480700000000  0.4924440000000 1.0
C      1  0.4746910000000  0.4912000000000  0.5522380000000 1.0
C      1  0.5259510000000  0.5509940000000  0.5091070000000 1.0
C      1  0.5003210000000  0.4995320000000  0.5007760000000 1.0
END
