TITL C-862502-1143-808 -6.73712576523259e-07 125000 -610.696115525106 0 0 101 (C1) n - 1
REM
REM in /home/nfs/bkarasulu/CARBON/AIRSS/Generating-Clusters/TERSOFF/Higher-Symm/FIRE-HFTN
REM
REM
REM
REM
REM
REM ./C.cell (b20cbc046b6831c77cfcea5457e17084)
REM AIRSS Version 0.9.1 bugfix July 2018 build 013d7b7c2542+ Fri, 06 Jul 2018 19:26:36 +0100
REM compiler GCC version 9.2.1 20190827 (Red Hat 9.2.1-1)
REM options -cpp -mtune=generic -march=x86-64 -g -O0 -fpre-include=/usr/include/finclude/math-vector-fortran.h
REM seed -1725962368 -327708290 -2123762553 118041260 -1754034305 -1402970415 1634286500 -1740214578 1492318241 -1951534851 11758660 -253270505 312369009 -1303878675 2036705836 296118386 924151768 -1687725756 -1206997502 1054062277 -1897579307 -1680142316 -1312648712 679835671 -1817649331 -1655087708 1569862120 -19282460 -720425194 1310889435 -958442292 1943256464 384062064
REM
CELL 1.54180   50.00000   50.00000   50.00000   90.00000   90.00000   90.00000
LATT -1
SFAC C  
C      1  0.5021650000000  0.4593120000000  0.5755390000000 1.0
C      1  0.4549300000000  0.5843290000000  0.4995470000000 1.0
C      1  0.5739670000000  0.4987620000000  0.4623230000000 1.0
C      1  0.5022070000000  0.5351770000000  0.5677380000000 1.0
C      1  0.5013310000000  0.5367780000000  0.4264160000000 1.0
C      1  0.5000040000000  0.4640210000000  0.4268910000000 1.0
C      1  0.5405940000000  0.4250690000000  0.5001620000000 1.0
C      1  0.4647590000000  0.4255420000000  0.5001100000000 1.0
C      1  0.5362830000000  0.5648990000000  0.4996090000000 1.0
C      1  0.4222300000000  0.4989780000000  0.4582730000000 1.0
C      1  0.5752960000000  0.4986520000000  0.5380440000000 1.0
C      1  0.4230020000000  0.5002600000000  0.5375240000000 1.0
C      1  0.4646450000000  0.4979140000000  0.5674800000000 1.0
C      1  0.5753450000000  0.4606650000000  0.4999150000000 1.0
C      1  0.5007370000000  0.5681150000000  0.4626840000000 1.0
C      1  0.5410300000000  0.4983450000000  0.5739940000000 1.0
C      1  0.5377730000000  0.4992330000000  0.4311950000000 1.0
C      1  0.4580410000000  0.5005790000000  0.4202740000000 1.0
C      1  0.4198320000000  0.5427530000000  0.4976240000000 1.0
C      1  0.4323470000000  0.4620100000000  0.4993960000000 1.0
C      1  0.5724940000000  0.5354350000000  0.4999370000000 1.0
C      1  0.5025170000000  0.4347920000000  0.4635260000000 1.0
C      1  0.5007690000000  0.5783930000000  0.5402460000000 1.0
C      1  0.5022030000000  0.4236670000000  0.5395150000000 1.0
C      1  0.5724770000000  0.5488040000000  0.4719470000000 1.0
C      1  0.5533830000000  0.4695010000000  0.5722460000000 1.0
C      1  0.4714280000000  0.5716390000000  0.5508860000000 1.0
C      1  0.4307350000000  0.4488930000000  0.4714820000000 1.0
C      1  0.5744200000000  0.4481660000000  0.5287130000000 1.0
C      1  0.4277690000000  0.5512670000000  0.5283630000000 1.0
C      1  0.4523920000000  0.5259120000000  0.5683200000000 1.0
C      1  0.5509280000000  0.5270510000000  0.4288480000000 1.0
C      1  0.4492630000000  0.4699850000000  0.4268160000000 1.0
C      1  0.5316330000000  0.4264020000000  0.5509610000000 1.0
C      1  0.4752590000000  0.4308540000000  0.4508810000000 1.0
C      1  0.5289470000000  0.5702440000000  0.4501490000000 1.0
C      1  0.5499650000000  0.5695050000000  0.4724150000000 1.0
C      1  0.4740720000000  0.5473610000000  0.5685650000000 1.0
C      1  0.5745000000000  0.4698370000000  0.5504650000000 1.0
C      1  0.4529040000000  0.4280540000000  0.4713660000000 1.0
C      1  0.4482940000000  0.5730970000000  0.5295230000000 1.0
C      1  0.5531400000000  0.4265540000000  0.5290240000000 1.0
C      1  0.5317520000000  0.4477170000000  0.5724120000000 1.0
C      1  0.5296560000000  0.5492680000000  0.4280540000000 1.0
C      1  0.4719990000000  0.4492700000000  0.4270630000000 1.0
C      1  0.4279730000000  0.5290100000000  0.5503810000000 1.0
C      1  0.4285150000000  0.4693960000000  0.4486900000000 1.0
C      1  0.5729290000000  0.5273390000000  0.4499010000000 1.0
C      1  0.5282100000000  0.4517800000000  0.4291370000000 1.0
C      1  0.4513680000000  0.4274540000000  0.5282940000000 1.0
C      1  0.4282640000000  0.5299290000000  0.4478530000000 1.0
C      1  0.4726360000000  0.5502550000000  0.4277110000000 1.0
C      1  0.5289660000000  0.5489370000000  0.5702590000000 1.0
C      1  0.4721310000000  0.4489240000000  0.5714020000000 1.0
C      1  0.5491520000000  0.5686340000000  0.5268630000000 1.0
C      1  0.4485010000000  0.5739310000000  0.4689020000000 1.0
C      1  0.5513490000000  0.4281550000000  0.4707760000000 1.0
C      1  0.5731780000000  0.4707750000000  0.4491130000000 1.0
C      1  0.4291670000000  0.4713350000000  0.5486370000000 1.0
C      1  0.5730400000000  0.5276080000000  0.5498180000000 1.0
C      1  0.4492330000000  0.5304540000000  0.4261400000000 1.0
C      1  0.4305680000000  0.4498080000000  0.5270560000000 1.0
C      1  0.5287110000000  0.4302760000000  0.4500530000000 1.0
C      1  0.5505630000000  0.4720420000000  0.4286290000000 1.0
C      1  0.5517240000000  0.5278230000000  0.5713160000000 1.0
C      1  0.4506860000000  0.4714880000000  0.5698600000000 1.0
C      1  0.5722170000000  0.5487820000000  0.5277940000000 1.0
C      1  0.5731540000000  0.4490000000000  0.4708330000000 1.0
C      1  0.4272920000000  0.5524920000000  0.4686490000000 1.0
C      1  0.4727660000000  0.5711390000000  0.4498650000000 1.0
C      1  0.4725970000000  0.4273550000000  0.5503370000000 1.0
C      1  0.5293860000000  0.5709910000000  0.5498650000000 1.0
C      1  0.5239580000000  0.5371630000000  0.4972620000000 1.0
C      1  0.5478770000000  0.4969610000000  0.5241060000000 1.0
C      1  0.5049280000000  0.5167020000000  0.5451380000000 1.0
C      1  0.4800960000000  0.4517770000000  0.5022060000000 1.0
C      1  0.5270490000000  0.4525270000000  0.5034150000000 1.0
C      1  0.4754610000000  0.5625050000000  0.4990040000000 1.0
C      1  0.4454360000000  0.5079690000000  0.5185280000000 1.0
C      1  0.5480850000000  0.4975800000000  0.4780850000000 1.0
C      1  0.4503950000000  0.4994290000000  0.4728040000000 1.0
C      1  0.5046740000000  0.4724990000000  0.5475160000000 1.0
C      1  0.4885010000000  0.4795820000000  0.4509930000000 1.0
C      1  0.5000250000000  0.5199350000000  0.4519920000000 1.0
C      1  0.5474200000000  0.5183570000000  0.4998860000000 1.0
C      1  0.4949700000000  0.5588100000000  0.5185600000000 1.0
C      1  0.5271770000000  0.4957220000000  0.5465320000000 1.0
C      1  0.4600560000000  0.4748290000000  0.4973310000000 1.0
C      1  0.4427840000000  0.5227610000000  0.4939370000000 1.0
C      1  0.5479500000000  0.4747940000000  0.5015650000000 1.0
C      1  0.5038220000000  0.4516430000000  0.5260170000000 1.0
C      1  0.5009500000000  0.5400840000000  0.4742970000000 1.0
C      1  0.5040580000000  0.4555590000000  0.4842400000000 1.0
C      1  0.4836220000000  0.4946310000000  0.5452870000000 1.0
C      1  0.4712250000000  0.5028530000000  0.4488940000000 1.0
C      1  0.5244400000000  0.4998530000000  0.4587730000000 1.0
C      1  0.4706260000000  0.4946040000000  0.5187770000000 1.0
C      1  0.5030570000000  0.4847740000000  0.4762780000000 1.0
C      1  0.4710690000000  0.5355800000000  0.4860860000000 1.0
C      1  0.5039680000000  0.5297020000000  0.5187270000000 1.0
C      1  0.4887780000000  0.5079290000000  0.4983110000000 1.0
END
