TITL C-862502-1143-457 0.00525815728054904 125000 -645.798269666226 0 0 116 (C3) n - 1
REM
REM in /home/nfs/bkarasulu/CARBON/AIRSS/Generating-Clusters/TERSOFF/Higher-Symm/FIRE-HFTN
REM
REM
REM
REM
REM
REM ./C.cell (b20cbc046b6831c77cfcea5457e17084)
REM AIRSS Version 0.9.1 bugfix July 2018 build 013d7b7c2542+ Fri, 06 Jul 2018 19:26:36 +0100
REM compiler GCC version 9.2.1 20190827 (Red Hat 9.2.1-1)
REM options -cpp -mtune=generic -march=x86-64 -g -O0 -fpre-include=/usr/include/finclude/math-vector-fortran.h
REM seed -1290167179 -1223543419 -5675976 -1444246463 1706339361 1495606030 -1520163234 -1904559768 -157076077 1796674643 607126683 1722140027 -1259913731 -442034261 1905428169 -1461434345 -160115475 -255108086 1569697194 -2016041592 1201124211 1476006258 -1783797089 -1963902977 -1344445494 479273771 -638462199 17347646 2048693977 940548966 -1980669340 -717316910 -1131079871
REM
CELL 1.54180   50.00000   50.00000   50.00000   90.00000   90.00000   90.00000
LATT -1
SFAC C  
C      1  0.4815970000000  0.4414680000000  0.4343730000000 1.0
C      1  0.4516160000000  0.4414680000000  0.5484200000000 1.0
C      1  0.5653750000000  0.4414680000000  0.5173600000000 1.0
C      1  0.4456040000000  0.5738380000000  0.4257360000000 1.0
C      1  0.4621330000000  0.5738380000000  0.5839090000000 1.0
C      1  0.5908500000000  0.5738380000000  0.4905080000000 1.0
C      1  0.5988050000000  0.5624820000000  0.4617570000000 1.0
C      1  0.4167280000000  0.5624820000000  0.4332230000000 1.0
C      1  0.4830550000000  0.5624820000000  0.6051730000000 1.0
C      1  0.5636610000000  0.5268420000000  0.4750180000000 1.0
C      1  0.4457850000000  0.5268420000000  0.4570270000000 1.0
C      1  0.4891420000000  0.5268420000000  0.5681070000000 1.0
C      1  0.4938510000000  0.4965950000000  0.5590770000000 1.0
C      1  0.5534870000000  0.4965950000000  0.4754560000000 1.0
C      1  0.4512510000000  0.4965950000000  0.4656200000000 1.0
C      1  0.5587380000000  0.4125030000000  0.5107720000000 1.0
C      1  0.4792100000000  0.4125030000000  0.4434150000000 1.0
C      1  0.4606410000000  0.4125030000000  0.5459660000000 1.0
C      1  0.4981130000000  0.5394910000000  0.5955830000000 1.0
C      1  0.5829710000000  0.5394900000000  0.4535110000000 1.0
C      1  0.4175040000000  0.5394900000000  0.4510580000000 1.0
C      1  0.4480680000000  0.4814490000000  0.4266640000000 1.0
C      1  0.4617060000000  0.4814490000000  0.5813110000000 1.0
C      1  0.5888150000000  0.4814490000000  0.4921770000000 1.0
C      1  0.5217990000000  0.4033850000000  0.4746220000000 1.0
C      1  0.4663730000000  0.4033850000000  0.4934800000000 1.0
C      1  0.5104170000000  0.4033850000000  0.5320510000000 1.0
C      1  0.5264690000000  0.4815210000000  0.5563180000000 1.0
C      1  0.5347890000000  0.4815210000000  0.4485870000000 1.0
C      1  0.4373300000000  0.4815210000000  0.4952480000000 1.0
C      1  0.5221100000000  0.5293050000000  0.4347570000000 1.0
C      1  0.4316930000000  0.5293050000000  0.5131430000000 1.0
C      1  0.5447860000000  0.5293050000000  0.5522530000000 1.0
C      1  0.5934760000000  0.4836540000000  0.5600910000000 1.0
C      1  0.5045520000000  0.4836540000000  0.3886710000000 1.0
C      1  0.4005600000000  0.4836540000000  0.5513910000000 1.0
C      1  0.5180010000000  0.4995470000000  0.5932350000000 1.0
C      1  0.5709940000000  0.4995470000000  0.4374620000000 1.0
C      1  0.4095940000000  0.4995470000000  0.4694550000000 1.0
C      1  0.5741210000000  0.4408160000000  0.5463370000000 1.0
C      1  0.5023180000000  0.4408160000000  0.4123100000000 1.0
C      1  0.4221490000000  0.4408160000000  0.5415060000000 1.0
C      1  0.4547770000000  0.4528950000000  0.4266870000000 1.0
C      1  0.4583700000000  0.4528950000000  0.5754900000000 1.0
C      1  0.5854410000000  0.4528950000000  0.4979770000000 1.0
C      1  0.4420910000000  0.5742640000000  0.5576720000000 1.0
C      1  0.5781500000000  0.5742640000000  0.5209830000000 1.0
C      1  0.4783470000000  0.5742640000000  0.4214970000000 1.0
C      1  0.5189870000000  0.4332730000000  0.5039230000000 1.0
C      1  0.4931540000000  0.4332730000000  0.4812640000000 1.0
C      1  0.4864470000000  0.4332730000000  0.5149660000000 1.0
C      1  0.4159420000000  0.5149590000000  0.4170120000000 1.0
C      1  0.4694100000000  0.5149590000000  0.6139590000000 1.0
C      1  0.6132370000000  0.5149590000000  0.4691810000000 1.0
C      1  0.5228730000000  0.4574990000000  0.4641910000000 1.0
C      1  0.4568020000000  0.4574990000000  0.4977650000000 1.0
C      1  0.5189140000000  0.4574990000000  0.5381970000000 1.0
C      1  0.5157560000000  0.5041570000000  0.4482550000000 1.0
C      1  0.4465600000000  0.5041580000000  0.5118960000000 1.0
C      1  0.5362730000000  0.5041580000000  0.5400010000000 1.0
C      1  0.4107920000000  0.4723520000000  0.5042630000000 1.0
C      1  0.5475450000000  0.4723520000000  0.5747940000000 1.0
C      1  0.5402510000000  0.4723520000000  0.4210970000000 1.0
C      1  0.5341520000000  0.4286720000000  0.4612740000000 1.0
C      1  0.4486360000000  0.4286720000000  0.4894550000000 1.0
C      1  0.5158000000000  0.4286720000000  0.5494240000000 1.0
C      1  0.5400170000000  0.5732290000000  0.4927690000000 1.0
C      1  0.4729800000000  0.5732290000000  0.4686290000000 1.0
C      1  0.4855920000000  0.5732290000000  0.5387550000000 1.0
C      1  0.5927320000000  0.4943470000000  0.4607730000000 1.0
C      1  0.4189120000000  0.4943470000000  0.4389740000000 1.0
C      1  0.4869440000000  0.4943470000000  0.6004060000000 1.0
C      1  0.5373850000000  0.4556050000000  0.5131980000000 1.0
C      1  0.4919870000000  0.4556050000000  0.4606930000000 1.0
C      1  0.4692160000000  0.4556050000000  0.5262610000000 1.0
C      1  0.4890040000000  0.4035310000000  0.4703120000000 1.0
C      1  0.4790370000000  0.4035310000000  0.5240360000000 1.0
C      1  0.5305470000000  0.4035310000000  0.5058060000000 1.0
C      1  0.5749240000000  0.5287570000000  0.5488100000000 1.0
C      1  0.5040590000000  0.5287570000000  0.4103770000000 1.0
C      1  0.4196050000000  0.5287570000000  0.5409650000000 1.0
C      1  0.4726380000000  0.5537630000000  0.4905910000000 1.0
C      1  0.5047820000000  0.5537630000000  0.5280690000000 1.0
C      1  0.5211680000000  0.5537630000000  0.4814930000000 1.0
C      1  0.4186090000000  0.5048930000000  0.5584290000000 1.0
C      1  0.5905470000000  0.5048930000000  0.5409410000000 1.0
C      1  0.4894330000000  0.5048930000000  0.4007820000000 1.0
C      1  0.4734990000000  0.4735380000000  0.4755810000000 1.0
C      1  0.4913530000000  0.4735380000000  0.5348290000000 1.0
C      1  0.5337360000000  0.4735380000000  0.4897430000000 1.0
C      1  0.6086970000000  0.5246730000000  0.4971240000000 1.0
C      1  0.4424110000000  0.5246730000000  0.4069730000000 1.0
C      1  0.4474810000000  0.5246730000000  0.5960560000000 1.0
C      1  0.4528740000000  0.5416470000000  0.4285380000000 1.0
C      1  0.4609240000000  0.5416470000000  0.5762120000000 1.0
C      1  0.5847890000000  0.5416470000000  0.4954030000000 1.0
C      1  0.6001730000000  0.5013340000000  0.5130060000000 1.0
C      1  0.4604270000000  0.5013340000000  0.4064130000000 1.0
C      1  0.4379880000000  0.5013340000000  0.5807340000000 1.0
C      1  0.4486470000000  0.5825240000000  0.4556830000000 1.0
C      1  0.4865470000000  0.5825240000000  0.5663000000000 1.0
C      1  0.5633940000000  0.5825240000000  0.4781690000000 1.0
C      1  0.4569090000000  0.5708930000000  0.5322110000000 1.0
C      1  0.5486910000000  0.5708930000000  0.5208820000000 1.0
C      1  0.4929890000000  0.5708930000000  0.4470610000000 1.0
C      1  0.5327040000000  0.5534690000000  0.5381160000000 1.0
C      1  0.5159070000000  0.5534690000000  0.4522880000000 1.0
C      1  0.4499770000000  0.5534690000000  0.5097490000000 1.0
C      1  0.5182950000000  0.4635890000000  0.4038680000000 1.0
C      1  0.4068500000000  0.4635890000000  0.5318910000000 1.0
C      1  0.5734440000000  0.4635900000000  0.5643940000000 1.0
C      1  0.5347930000000  0.5243520000000  0.5820150000000 1.0
C      1  0.5528800000000  0.5243520000000  0.4285300000000 1.0
C      1  0.4109150000000  0.5243520000000  0.4896080000000 1.0
C      1  0.4995290000000  0.5425320000000  0.5000510000000 1.0
C      1  0.4995290000000  0.5128170000000  0.5000510000000 1.0
END
