TITL C-862131-2149-1439 -0.0470696022286629 125000 -645.748595299852 0 0 110 (C1) n - 1
REM
REM in /home/nfs/bkarasulu/CARBON/AIRSS/Generating-Clusters/TERSOFF/Higher-Symm/FIRE-HFTN
REM
REM
REM
REM
REM
REM ./C.cell (b20cbc046b6831c77cfcea5457e17084)
REM AIRSS Version 0.9.1 bugfix July 2018 build 013d7b7c2542+ Fri, 06 Jul 2018 19:26:36 +0100
REM compiler GCC version 9.2.1 20190827 (Red Hat 9.2.1-1)
REM options -cpp -mtune=generic -march=x86-64 -g -O0 -fpre-include=/usr/include/finclude/math-vector-fortran.h
REM seed -1874551926 -1173803001 355954185 -1757544516 -265825678 1722559330 572913364 -2140822401 154023293 -769261111 -1594999634 -1453023008 334900619 -1135990051 187158149 834654375 622563138 1832935308 2039597630 -17654243 613160951 -942486724 1861646239 1531318835 -1526555222 -1598499735 1656542706 519821048 -1568022018 304986687 -121451297 137537542 -1307779658
REM
CELL 1.54180   50.00000   50.00000   50.00000   90.00000   90.00000   90.00000
LATT -1
SFAC C  
C      1  0.4304880000000  0.4650620000000  0.5615290000000 1.0
C      1  0.4968410000000  0.6133730000000  0.5204150000000 1.0
C      1  0.4761220000000  0.4944240000000  0.4744680000000 1.0
C      1  0.5227870000000  0.5432040000000  0.4791530000000 1.0
C      1  0.4478320000000  0.4410670000000  0.5585530000000 1.0
C      1  0.4757540000000  0.5439380000000  0.5148410000000 1.0
C      1  0.5646750000000  0.5777990000000  0.4736860000000 1.0
C      1  0.5514780000000  0.5218740000000  0.5108100000000 1.0
C      1  0.4622060000000  0.4656670000000  0.4113190000000 1.0
C      1  0.5589840000000  0.4303810000000  0.5093690000000 1.0
C      1  0.5390920000000  0.4649880000000  0.4772550000000 1.0
C      1  0.4449140000000  0.4336120000000  0.5297050000000 1.0
C      1  0.4895960000000  0.4675200000000  0.5625640000000 1.0
C      1  0.5259020000000  0.4156610000000  0.4733290000000 1.0
C      1  0.5319480000000  0.4932350000000  0.4700480000000 1.0
C      1  0.4958830000000  0.5829780000000  0.4816300000000 1.0
C      1  0.4650710000000  0.5782710000000  0.4788210000000 1.0
C      1  0.5058870000000  0.5864970000000  0.5107170000000 1.0
C      1  0.4593850000000  0.5173390000000  0.4802450000000 1.0
C      1  0.5390040000000  0.5198250000000  0.4843640000000 1.0
C      1  0.4014150000000  0.5086740000000  0.5077720000000 1.0
C      1  0.4125010000000  0.4693030000000  0.5371790000000 1.0
C      1  0.4965630000000  0.5431980000000  0.4682550000000 1.0
C      1  0.5887900000000  0.4689750000000  0.4558650000000 1.0
C      1  0.4923400000000  0.4520940000000  0.4637480000000 1.0
C      1  0.5627960000000  0.5117850000000  0.5622090000000 1.0
C      1  0.5184150000000  0.4542480000000  0.5215950000000 1.0
C      1  0.5596540000000  0.4325480000000  0.5395460000000 1.0
C      1  0.5306490000000  0.4639210000000  0.5496170000000 1.0
C      1  0.5215240000000  0.4756150000000  0.4219730000000 1.0
C      1  0.5017510000000  0.3995390000000  0.4703820000000 1.0
C      1  0.5522520000000  0.4756340000000  0.4215330000000 1.0
C      1  0.4587720000000  0.4958800000000  0.5332120000000 1.0
C      1  0.5071840000000  0.4232600000000  0.5475990000000 1.0
C      1  0.4754140000000  0.5384270000000  0.4868520000000 1.0
C      1  0.5741890000000  0.4577650000000  0.5511950000000 1.0
C      1  0.5740020000000  0.4942800000000  0.4432040000000 1.0
C      1  0.5448990000000  0.5681310000000  0.4538020000000 1.0
C      1  0.4812960000000  0.4354040000000  0.4405360000000 1.0
C      1  0.5476150000000  0.4088700000000  0.4921880000000 1.0
C      1  0.4735370000000  0.4641660000000  0.4879980000000 1.0
C      1  0.4538830000000  0.5687100000000  0.4536450000000 1.0
C      1  0.5876280000000  0.5606420000000  0.4802720000000 1.0
C      1  0.5875230000000  0.5314840000000  0.4779780000000 1.0
C      1  0.5673250000000  0.4809550000000  0.5168640000000 1.0
C      1  0.4846040000000  0.4815900000000  0.5376480000000 1.0
C      1  0.5244740000000  0.5229870000000  0.4350850000000 1.0
C      1  0.4533760000000  0.5530330000000  0.5700750000000 1.0
C      1  0.4483830000000  0.5738510000000  0.5038970000000 1.0
C      1  0.6051940000000  0.5138520000000  0.4958510000000 1.0
C      1  0.5539390000000  0.5945310000000  0.4945870000000 1.0
C      1  0.4226450000000  0.5574840000000  0.5065680000000 1.0
C      1  0.4922620000000  0.5648560000000  0.5273350000000 1.0
C      1  0.5319890000000  0.5129420000000  0.5314440000000 1.0
C      1  0.5434450000000  0.4863350000000  0.5316740000000 1.0
C      1  0.5698180000000  0.5209420000000  0.4558510000000 1.0
C      1  0.5361370000000  0.5844010000000  0.5149280000000 1.0
C      1  0.5998920000000  0.5060710000000  0.5252290000000 1.0
C      1  0.5156830000000  0.5804450000000  0.4566320000000 1.0
C      1  0.5938360000000  0.4748410000000  0.5305790000000 1.0
C      1  0.4068360000000  0.4989320000000  0.5350920000000 1.0
C      1  0.4281220000000  0.4542640000000  0.5129210000000 1.0
C      1  0.4997840000000  0.4955610000000  0.4969570000000 1.0
C      1  0.4329090000000  0.5233450000000  0.4699000000000 1.0
C      1  0.5165270000000  0.5103490000000  0.5787100000000 1.0
C      1  0.4374690000000  0.4974300000000  0.4292950000000 1.0
C      1  0.5053210000000  0.5329860000000  0.4148060000000 1.0
C      1  0.5672140000000  0.5447100000000  0.5230760000000 1.0
C      1  0.4566040000000  0.4432110000000  0.4283700000000 1.0
C      1  0.5704040000000  0.4531190000000  0.4358260000000 1.0
C      1  0.4451570000000  0.4923450000000  0.5629490000000 1.0
C      1  0.4143900000000  0.4759630000000  0.4706270000000 1.0
C      1  0.5161260000000  0.4962800000000  0.4449220000000 1.0
C      1  0.5820210000000  0.5240060000000  0.5410560000000 1.0
C      1  0.4659980000000  0.4915090000000  0.4241660000000 1.0
C      1  0.5062590000000  0.5008940000000  0.4043670000000 1.0
C      1  0.4317150000000  0.4466600000000  0.4773890000000 1.0
C      1  0.4570780000000  0.5272980000000  0.5302990000000 1.0
C      1  0.5076340000000  0.5166070000000  0.5149670000000 1.0
C      1  0.4657820000000  0.4984210000000  0.5844240000000 1.0
C      1  0.5205090000000  0.4444630000000  0.4672370000000 1.0
C      1  0.4345610000000  0.5469450000000  0.4512780000000 1.0
C      1  0.4929910000000  0.4120890000000  0.5235870000000 1.0
C      1  0.4232050000000  0.5141840000000  0.5560390000000 1.0
C      1  0.5078350000000  0.4464200000000  0.4229830000000 1.0
C      1  0.4956430000000  0.4698670000000  0.5131690000000 1.0
C      1  0.5341290000000  0.5247300000000  0.5597140000000 1.0
C      1  0.4322760000000  0.4419740000000  0.4451810000000 1.0
C      1  0.5366300000000  0.4196070000000  0.5541730000000 1.0
C      1  0.5474680000000  0.5380950000000  0.4455690000000 1.0
C      1  0.4177320000000  0.5304850000000  0.4945860000000 1.0
C      1  0.4768590000000  0.4131070000000  0.4625200000000 1.0
C      1  0.3949530000000  0.4860980000000  0.4899420000000 1.0
C      1  0.4817240000000  0.5466060000000  0.5733280000000 1.0
C      1  0.5473430000000  0.5646770000000  0.5342410000000 1.0
C      1  0.5570150000000  0.4776490000000  0.5704130000000 1.0
C      1  0.4655760000000  0.4203480000000  0.5134420000000 1.0
C      1  0.4772510000000  0.6176640000000  0.5412850000000 1.0
C      1  0.5298900000000  0.5537550000000  0.5560760000000 1.0
C      1  0.4858660000000  0.4944680000000  0.4475130000000 1.0
C      1  0.4880820000000  0.5185160000000  0.5816620000000 1.0
C      1  0.5402270000000  0.4518600000000  0.5035600000000 1.0
C      1  0.4258970000000  0.4990210000000  0.4554420000000 1.0
C      1  0.4379250000000  0.5394620000000  0.5493680000000 1.0
C      1  0.5011640000000  0.5602720000000  0.5547850000000 1.0
C      1  0.4503370000000  0.4754160000000  0.5086960000000 1.0
C      1  0.4742610000000  0.4444060000000  0.5698060000000 1.0
C      1  0.4584300000000  0.4234440000000  0.4843170000000 1.0
C      1  0.5288250000000  0.4845240000000  0.5861640000000 1.0
C      1  0.4906040000000  0.5475750000000  0.4385830000000 1.0
END
