TITL C-862130-1496-579 -7.74539022348299e-05 125000 -268.580995776526 0 0 51 (C1) n - 1
REM
REM in /home/nfs/bkarasulu/CARBON/AIRSS/Generating-Clusters/TERSOFF/Higher-Symm/FIRE-HFTN
REM
REM
REM
REM
REM
REM ./C.cell (b20cbc046b6831c77cfcea5457e17084)
REM AIRSS Version 0.9.1 bugfix July 2018 build 013d7b7c2542+ Fri, 06 Jul 2018 19:26:36 +0100
REM compiler GCC version 9.2.1 20190827 (Red Hat 9.2.1-1)
REM options -cpp -mtune=generic -march=x86-64 -g -O0 -fpre-include=/usr/include/finclude/math-vector-fortran.h
REM seed 1341785030 659392698 987365910 -2116615194 -1462923675 756671570 310528121 -1173594873 -602376505 1031917354 -1183873981 -516245595 314952123 1886947593 1669219920 165058645 887088125 2102218824 -1977792499 -1564004553 -2072328053 -20127208 1612215530 -1101892734 -290366608 -1423284262 -256718677 2141837668 -765033255 1324298366 -620735333 2067559734 -1552629363
REM
CELL 1.54180   50.00000   50.00000   50.00000   90.00000   90.00000   90.00000
LATT -1
SFAC C  
C      1  0.4909580000000  0.4766730000000  0.5471480000000 1.0
C      1  0.4918510000000  0.5239220000000  0.5531470000000 1.0
C      1  0.5641040000000  0.4837950000000  0.4650620000000 1.0
C      1  0.5645670000000  0.5152630000000  0.4653150000000 1.0
C      1  0.4595610000000  0.5568130000000  0.4969470000000 1.0
C      1  0.4613260000000  0.4423710000000  0.4982620000000 1.0
C      1  0.5559610000000  0.4606950000000  0.4857650000000 1.0
C      1  0.5553490000000  0.5383180000000  0.4859360000000 1.0
C      1  0.5347340000000  0.5323210000000  0.5109810000000 1.0
C      1  0.5355370000000  0.4656790000000  0.5108820000000 1.0
C      1  0.5644800000000  0.4849610000000  0.5501240000000 1.0
C      1  0.5646410000000  0.5142480000000  0.5500230000000 1.0
C      1  0.5153970000000  0.5245870000000  0.4610420000000 1.0
C      1  0.5146280000000  0.4733000000000  0.4610230000000 1.0
C      1  0.5082160000000  0.4366460000000  0.4809610000000 1.0
C      1  0.5076790000000  0.5624140000000  0.4806010000000 1.0
C      1  0.4817820000000  0.4529000000000  0.4797910000000 1.0
C      1  0.4818000000000  0.5451170000000  0.4808710000000 1.0
C      1  0.4795280000000  0.4856540000000  0.4869970000000 1.0
C      1  0.4808730000000  0.5178860000000  0.4968780000000 1.0
C      1  0.5148500000000  0.4428360000000  0.5091750000000 1.0
C      1  0.5132190000000  0.5544850000000  0.5087620000000 1.0
C      1  0.4317580000000  0.4778610000000  0.4871290000000 1.0
C      1  0.4347450000000  0.5218430000000  0.4882610000000 1.0
C      1  0.4364480000000  0.4723890000000  0.5310630000000 1.0
C      1  0.4342760000000  0.5272270000000  0.5299100000000 1.0
C      1  0.5376170000000  0.4399070000000  0.4719230000000 1.0
C      1  0.5370240000000  0.5588830000000  0.4719660000000 1.0
C      1  0.5181990000000  0.5136910000000  0.5558920000000 1.0
C      1  0.5170370000000  0.4857800000000  0.5529410000000 1.0
C      1  0.5196550000000  0.5552590000000  0.5502550000000 1.0
C      1  0.5206920000000  0.4440250000000  0.5507490000000 1.0
C      1  0.4642950000000  0.4724380000000  0.4470510000000 1.0
C      1  0.4653830000000  0.5268490000000  0.4468840000000 1.0
C      1  0.4911510000000  0.4846560000000  0.4466650000000 1.0
C      1  0.4917000000000  0.5138250000000  0.4466670000000 1.0
C      1  0.5399970000000  0.4696450000000  0.5417620000000 1.0
C      1  0.5399450000000  0.5298900000000  0.5421020000000 1.0
C      1  0.4414680000000  0.4854920000000  0.4601150000000 1.0
C      1  0.4424680000000  0.5147680000000  0.4605250000000 1.0
C      1  0.5217410000000  0.5133410000000  0.4890630000000 1.0
C      1  0.5212230000000  0.4840250000000  0.4895900000000 1.0
C      1  0.4596820000000  0.5477760000000  0.5259890000000 1.0
C      1  0.4629530000000  0.4530060000000  0.5266690000000 1.0
C      1  0.5416320000000  0.5250780000000  0.4474890000000 1.0
C      1  0.5410230000000  0.4739580000000  0.4475900000000 1.0
C      1  0.4755400000000  0.4845370000000  0.5217680000000 1.0
C      1  0.4754510000000  0.5190500000000  0.5289460000000 1.0
C      1  0.4951050000000  0.4376050000000  0.5324420000000 1.0
C      1  0.4932280000000  0.5601390000000  0.5319630000000 1.0
C      1  0.4303700000000  0.4990050000000  0.5130190000000 1.0
END
