TITL C-862127-1500-1196 -1.38569666705342e-05 125000 -676.098505524471 0 0 115 (C3i) n - 1
REM
REM in /home/nfs/bkarasulu/CARBON/AIRSS/Generating-Clusters/TERSOFF/Higher-Symm/FIRE-HFTN
REM
REM
REM
REM
REM
REM ./C.cell (b20cbc046b6831c77cfcea5457e17084)
REM AIRSS Version 0.9.1 bugfix July 2018 build 013d7b7c2542+ Fri, 06 Jul 2018 19:26:36 +0100
REM compiler GCC version 9.2.1 20190827 (Red Hat 9.2.1-1)
REM options -cpp -mtune=generic -march=x86-64 -g -O0 -fpre-include=/usr/include/finclude/math-vector-fortran.h
REM seed -478902301 1285212196 -874846229 325812711 364154289 1268064088 1886137206 86138128 222711088 1734953480 -1498879051 398974752 1048498565 -166944693 1447562934 1304082911 -1852664874 -1907140168 -979556732 2085923159 1268321054 -836880353 -261119668 -1226658847 -636730207 1208183571 -346861341 1832062812 142801756 -1466416839 -944011598 1338916174 -467370487
REM
CELL 1.54180   50.00000   50.00000   50.00000   90.00000   90.00000   90.00000
LATT -1
SFAC C  
C      1  0.5749380000000  0.4614590000000  0.4977320000000 1.0
C      1  0.5709950000000  0.5456420000000  0.5015340000000 1.0
C      1  0.4961180000000  0.5843170000000  0.4977320000000 1.0
C      1  0.4251850000000  0.5388100000000  0.5015340000000 1.0
C      1  0.4291290000000  0.4546280000000  0.4977320000000 1.0
C      1  0.5040060000000  0.4159520000000  0.5015340000000 1.0
C      1  0.4690260000000  0.5638370000000  0.5393860000000 1.0
C      1  0.4293760000000  0.5051080000000  0.4598800000000 1.0
C      1  0.4604120000000  0.4414050000000  0.5393860000000 1.0
C      1  0.5310980000000  0.4364320000000  0.4598800000000 1.0
C      1  0.5707480000000  0.4951610000000  0.5393860000000 1.0
C      1  0.5397120000000  0.5588640000000  0.4598800000000 1.0
C      1  0.4687960000000  0.4841640000000  0.5109580000000 1.0
C      1  0.4982600000000  0.4650720000000  0.4883080000000 1.0
C      1  0.5295260000000  0.4810430000000  0.5109580000000 1.0
C      1  0.5313280000000  0.5161050000000  0.4883080000000 1.0
C      1  0.5018640000000  0.5351970000000  0.5109580000000 1.0
C      1  0.4705980000000  0.5192260000000  0.4883080000000 1.0
C      1  0.4299440000000  0.5000250000000  0.5427480000000 1.0
C      1  0.4650980000000  0.4393560000000  0.4565190000000 1.0
C      1  0.5352160000000  0.4394660000000  0.5427470000000 1.0
C      1  0.5701790000000  0.5002440000000  0.4565180000000 1.0
C      1  0.5350260000000  0.5609130000000  0.5427470000000 1.0
C      1  0.4649080000000  0.5608030000000  0.4565190000000 1.0
C      1  0.5392920000000  0.4648750000000  0.5864190000000 1.0
C      1  0.5502130000000  0.5164790000000  0.4128470000000 1.0
C      1  0.5109830000000  0.5517380000000  0.5864190000000 1.0
C      1  0.4608320000000  0.5353940000000  0.4128470000000 1.0
C      1  0.4499110000000  0.4837900000000  0.5864190000000 1.0
C      1  0.4891410000000  0.4485310000000  0.4128470000000 1.0
C      1  0.4619970000000  0.5351650000000  0.5855930000000 1.0
C      1  0.4506920000000  0.4846850000000  0.4136730000000 1.0
C      1  0.4887570000000  0.4496540000000  0.5855930000000 1.0
C      1  0.5381270000000  0.4651040000000  0.4136730000000 1.0
C      1  0.5494320000000  0.5155840000000  0.5855930000000 1.0
C      1  0.5113670000000  0.5506150000000  0.4136730000000 1.0
C      1  0.5380490000000  0.5800870000000  0.4834920000000 1.0
C      1  0.4498150000000  0.5730080000000  0.5157750000000 1.0
C      1  0.4118280000000  0.4930560000000  0.4834920000000 1.0
C      1  0.4620750000000  0.4201820000000  0.5157740000000 1.0
C      1  0.5503090000000  0.4272610000000  0.4834910000000 1.0
C      1  0.5882960000000  0.5072130000000  0.5157740000000 1.0
C      1  0.5157780000000  0.4511170000000  0.4011850000000 1.0
C      1  0.5503710000000  0.4892360000000  0.5980810000000 1.0
C      1  0.5346540000000  0.5382540000000  0.4011850000000 1.0
C      1  0.4843460000000  0.5491520000000  0.5980810000000 1.0
C      1  0.4497530000000  0.5110330000000  0.4011850000000 1.0
C      1  0.4654700000000  0.4620150000000  0.5980810000000 1.0
C      1  0.4921170000000  0.5512140000000  0.4613850000000 1.0
C      1  0.4518540000000  0.5187930000000  0.5378810000000 1.0
C      1  0.4597990000000  0.4677150000000  0.4613850000000 1.0
C      1  0.5080070000000  0.4490560000000  0.5378810000000 1.0
C      1  0.5482700000000  0.4814760000000  0.4613850000000 1.0
C      1  0.5403250000000  0.5325540000000  0.5378810000000 1.0
C      1  0.5972250000000  0.4769440000000  0.4880840000000 1.0
C      1  0.5687270000000  0.5726850000000  0.5111810000000 1.0
C      1  0.4715640000000  0.5958760000000  0.4880850000000 1.0
C      1  0.4028990000000  0.5233250000000  0.5111820000000 1.0
C      1  0.4313970000000  0.4275840000000  0.4880850000000 1.0
C      1  0.5285600000000  0.4043940000000  0.5111810000000 1.0
C      1  0.4721370000000  0.4707490000000  0.5353960000000 1.0
C      1  0.5115490000000  0.4612580000000  0.4638700000000 1.0
C      1  0.5394730000000  0.4906440000000  0.5353960000000 1.0
C      1  0.5279860000000  0.5295200000000  0.4638700000000 1.0
C      1  0.4885750000000  0.5390110000000  0.5353960000000 1.0
C      1  0.4606510000000  0.5096250000000  0.4638700000000 1.0
C      1  0.4866630000000  0.4386960000000  0.5582770000000 1.0
C      1  0.5465690000000  0.4578110000000  0.4409890000000 1.0
C      1  0.5599690000000  0.5192490000000  0.5582770000000 1.0
C      1  0.5134610000000  0.5615730000000  0.4409890000000 1.0
C      1  0.4535540000000  0.5424580000000  0.5582770000000 1.0
C      1  0.4401550000000  0.4810200000000  0.4409890000000 1.0
C      1  0.5086080000000  0.5924470000000  0.5225340000000 1.0
C      1  0.4243900000000  0.5536910000000  0.4767320000000 1.0
C      1  0.4158450000000  0.4613790000000  0.5225340000000 1.0
C      1  0.4915160000000  0.4078230000000  0.4767320000000 1.0
C      1  0.5757340000000  0.4465780000000  0.5225340000000 1.0
C      1  0.5842790000000  0.5388900000000  0.4767320000000 1.0
C      1  0.5398790000000  0.5820990000000  0.5193240000000 1.0
C      1  0.4489870000000  0.5755990000000  0.4799420000000 1.0
C      1  0.4091710000000  0.4936350000000  0.5193240000000 1.0
C      1  0.4602450000000  0.4181700000000  0.4799420000000 1.0
C      1  0.5511370000000  0.4246700000000  0.5193240000000 1.0
C      1  0.5909530000000  0.5066340000000  0.4799420000000 1.0
C      1  0.4979070000000  0.4792740000000  0.5509340000000 1.0
C      1  0.5170500000000  0.4878380000000  0.4483320000000 1.0
C      1  0.5192050000000  0.5086980000000  0.5509340000000 1.0
C      1  0.5022170000000  0.5209950000000  0.4483320000000 1.0
C      1  0.4830740000000  0.5124310000000  0.5509340000000 1.0
C      1  0.4809180000000  0.4915710000000  0.4483320000000 1.0
C      1  0.5007090000000  0.5567390000000  0.4896450000000 1.0
C      1  0.4513650000000  0.5289970000000  0.5096210000000 1.0
C      1  0.4507170000000  0.4723930000000  0.4896450000000 1.0
C      1  0.4994150000000  0.4435300000000  0.5096210000000 1.0
C      1  0.5487590000000  0.4712720000000  0.4896450000000 1.0
C      1  0.5494060000000  0.5278760000000  0.5096210000000 1.0
C      1  0.4659910000000  0.4627330000000  0.4007210000000 1.0
C      1  0.5154170000000  0.4519270000000  0.5985450000000 1.0
C      1  0.5494880000000  0.4893290000000  0.4007210000000 1.0
C      1  0.5341330000000  0.5375360000000  0.5985450000000 1.0
C      1  0.4847070000000  0.5483420000000  0.4007210000000 1.0
C      1  0.4506360000000  0.5109400000000  0.5985450000000 1.0
C      1  0.5675960000000  0.5469830000000  0.4519840000000 1.0
C      1  0.4932580000000  0.5820450000000  0.5472820000000 1.0
C      1  0.4257230000000  0.5351970000000  0.4519840000000 1.0
C      1  0.4325270000000  0.4532860000000  0.5472820000000 1.0
C      1  0.5068660000000  0.4182240000000  0.4519840000000 1.0
C      1  0.5744010000000  0.4650720000000  0.5472820000000 1.0
C      1  0.4852490000000  0.4324550000000  0.4370240000000 1.0
C      1  0.5512680000000  0.4534660000000  0.5622420000000 1.0
C      1  0.5660810000000  0.5211460000000  0.4370240000000 1.0
C      1  0.5148750000000  0.5678140000000  0.5622420000000 1.0
C      1  0.4488560000000  0.5468030000000  0.4370240000000 1.0
C      1  0.4340430000000  0.4791230000000  0.5622420000000 1.0
C      1  0.5000620000000  0.5001350000000  0.4996330000000 1.0
END
