TITL C-862502-1143-318 0.00172329660388224 125000 -155.725199233288 0 0 31 (C3) n - 1
REM
REM in /home/nfs/bkarasulu/CARBON/AIRSS/Generating-Clusters/TERSOFF/Higher-Symm/FIRE-HFTN
REM
REM
REM
REM
REM
REM ./C.cell (b20cbc046b6831c77cfcea5457e17084)
REM AIRSS Version 0.9.1 bugfix July 2018 build 013d7b7c2542+ Fri, 06 Jul 2018 19:26:36 +0100
REM compiler GCC version 9.2.1 20190827 (Red Hat 9.2.1-1)
REM options -cpp -mtune=generic -march=x86-64 -g -O0 -fpre-include=/usr/include/finclude/math-vector-fortran.h
REM seed -625136029 -1369131571 1300499087 1072760068 -1674705990 -1620422282 620676600 -731164482 1812853678 1444333518 -862218536 1500815156 -966125332 -766714487 -1785180974 1891294757 -362440693 1861938111 -886431183 485233409 681420704 -96074686 1678123062 681518549 844774394 30152950 1279417553 -2093390144 -1153568039 -624892352 -1074677154 117537967 -623310551
REM
CELL 1.54180   50.00000   50.00000   50.00000   90.00000   90.00000   90.00000
LATT -1
SFAC C  
C      1  0.4878260000000  0.4869620000000  0.5409830000000 1.0
C      1  0.5439660000000  0.4869620000000  0.4896240000000 1.0
C      1  0.4714180000000  0.4869620000000  0.4666850000000 1.0
C      1  0.5061970000000  0.4896860000000  0.4298690000000 1.0
C      1  0.4385540000000  0.4896860000000  0.5292720000000 1.0
C      1  0.5584600000000  0.4896860000000  0.5381510000000 1.0
C      1  0.4976320000000  0.4406910000000  0.5193770000000 1.0
C      1  0.5203520000000  0.4406910000000  0.4919350000000 1.0
C      1  0.4852260000000  0.4406910000000  0.4859800000000 1.0
C      1  0.5323810000000  0.5094110000000  0.4714790000000 1.0
C      1  0.4614960000000  0.5094100000000  0.4857910000000 1.0
C      1  0.5093330000000  0.5094110000000  0.5400230000000 1.0
C      1  0.4736180000000  0.5259860000000  0.4431860000000 1.0
C      1  0.4663750000000  0.5259860000000  0.5508280000000 1.0
C      1  0.5632170000000  0.5259870000000  0.5032790000000 1.0
C      1  0.4377100000000  0.4964990000000  0.5011720000000 1.0
C      1  0.5345470000000  0.4964990000000  0.5529320000000 1.0
C      1  0.5309540000000  0.4964990000000  0.4431890000000 1.0
C      1  0.5293010000000  0.5304710000000  0.5276320000000 1.0
C      1  0.5116670000000  0.5304710000000  0.4603810000000 1.0
C      1  0.4622430000000  0.5304710000000  0.5092790000000 1.0
C      1  0.4876510000000  0.5358340000000  0.5283410000000 1.0
C      1  0.5331050000000  0.5358340000000  0.4960960000000 1.0
C      1  0.4824540000000  0.5358340000000  0.4728550000000 1.0
C      1  0.4800390000000  0.4970770000000  0.4400360000000 1.0
C      1  0.4604370000000  0.4970770000000  0.5468410000000 1.0
C      1  0.5627340000000  0.4970770000000  0.5104150000000 1.0
C      1  0.4666550000000  0.4588680000000  0.4721030000000 1.0
C      1  0.4949000000000  0.4588680000000  0.5423990000000 1.0
C      1  0.5416550000000  0.4588680000000  0.4827910000000 1.0
C      1  0.5010700000000  0.5428150000000  0.4990970000000 1.0
END
