TITL C-862500-986-867 0.312048515754974 125000 -195.411786676158 0 0 41 (C1) n - 1
REM
REM in /home/nfs/bkarasulu/CARBON/AIRSS/Generating-Clusters/TERSOFF/Higher-Symm/FIRE-HFTN
REM
REM
REM
REM
REM
REM ./C.cell (b20cbc046b6831c77cfcea5457e17084)
REM AIRSS Version 0.9.1 bugfix July 2018 build 013d7b7c2542+ Fri, 06 Jul 2018 19:26:36 +0100
REM compiler GCC version 9.2.1 20190827 (Red Hat 9.2.1-1)
REM options -cpp -mtune=generic -march=x86-64 -g -O0 -fpre-include=/usr/include/finclude/math-vector-fortran.h
REM seed -74512995 -1105763008 -1414941217 1975711583 -875576466 -1980774822 -1769240662 2041640889 -1403146295 2137117724 1157870644 281047024 2102547761 2133592661 -1256480809 632870294 -2134450965 -1450493595 -1254697086 -517884962 1014398098 271738457 -989007039 -387075888 1901948989 -923750110 1706362847 1009584960 -1536317295 1841005154 309563178 -605852509 1475625280
REM
CELL 1.54180   50.00000   50.00000   50.00000   90.00000   90.00000   90.00000
LATT -1
SFAC C  
C      1  0.4602130000000  0.5121540000000  0.5246420000000 1.0
C      1  0.4427170000000  0.5269540000000  0.4719320000000 1.0
C      1  0.5083640000000  0.5119670000000  0.4480980000000 1.0
C      1  0.5647160000000  0.5277100000000  0.4943930000000 1.0
C      1  0.5228760000000  0.5212440000000  0.5547740000000 1.0
C      1  0.4323540000000  0.4629010000000  0.5009480000000 1.0
C      1  0.4649130000000  0.4521440000000  0.4469230000000 1.0
C      1  0.5443700000000  0.4596660000000  0.4667140000000 1.0
C      1  0.5527820000000  0.4616730000000  0.5234690000000 1.0
C      1  0.4692900000000  0.4489690000000  0.5547620000000 1.0
C      1  0.4680550000000  0.5129070000000  0.4670430000000 1.0
C      1  0.5364600000000  0.5225490000000  0.4550000000000 1.0
C      1  0.5606150000000  0.5273160000000  0.5245130000000 1.0
C      1  0.4939940000000  0.5105870000000  0.5536410000000 1.0
C      1  0.4370550000000  0.5264100000000  0.5135200000000 1.0
C      1  0.4211230000000  0.5117380000000  0.4899760000000 1.0
C      1  0.4779350000000  0.5012720000000  0.4399670000000 1.0
C      1  0.5608630000000  0.5081680000000  0.4693860000000 1.0
C      1  0.5502870000000  0.5071520000000  0.5470700000000 1.0
C      1  0.4625370000000  0.4997930000000  0.5530650000000 1.0
C      1  0.4949020000000  0.5255420000000  0.4756990000000 1.0
C      1  0.5354910000000  0.5384960000000  0.4835160000000 1.0
C      1  0.5295090000000  0.5379210000000  0.5274560000000 1.0
C      1  0.4883530000000  0.5249130000000  0.5238040000000 1.0
C      1  0.4427270000000  0.5537400000000  0.4934670000000 1.0
C      1  0.4897170000000  0.5541720000000  0.4753410000000 1.0
C      1  0.5284980000000  0.5674740000000  0.4841820000000 1.0
C      1  0.5228470000000  0.5669320000000  0.5256890000000 1.0
C      1  0.4831610000000  0.5535420000000  0.5234980000000 1.0
C      1  0.4618150000000  0.5774430000000  0.4963750000000 1.0
C      1  0.4718260000000  0.4747240000000  0.4301870000000 1.0
C      1  0.5651500000000  0.4795490000000  0.4699760000000 1.0
C      1  0.5546750000000  0.4785430000000  0.5469130000000 1.0
C      1  0.4541290000000  0.4730250000000  0.5601720000000 1.0
C      1  0.4157630000000  0.4833160000000  0.4888750000000 1.0
C      1  0.5018180000000  0.4429290000000  0.5155640000000 1.0
C      1  0.4974150000000  0.5743990000000  0.5011830000000 1.0
C      1  0.5102490000000  0.4698060000000  0.5222210000000 1.0
C      1  0.5126280000000  0.5178730000000  0.5025150000000 1.0
C      1  0.5203070000000  0.4891510000000  0.5031840000000 1.0
C      1  0.5170760000000  0.4243500000000  0.4994450000000 1.0
END
