TITL C-862506-1665-237 -0.159037269768137 125000 -15.924198220389 0 0 5 (D(inf)h) n - 1
REM
REM in /home/nfs/bkarasulu/CARBON/AIRSS/Generating-Clusters/TERSOFF/Higher-Symm/FIRE-HFTN
REM
REM
REM
REM
REM
REM ./C.cell (b20cbc046b6831c77cfcea5457e17084)
REM AIRSS Version 0.9.1 bugfix July 2018 build 013d7b7c2542+ Fri, 06 Jul 2018 19:26:36 +0100
REM compiler GCC version 9.2.1 20190827 (Red Hat 9.2.1-1)
REM options -cpp -mtune=generic -march=x86-64 -g -O0 -fpre-include=/usr/include/finclude/math-vector-fortran.h
REM seed -1573357122 2137949628 -494930388 177819279 -819008969 1253122016 742363640 -1463632121 -695993524 -1017505895 -907907592 599865583 895618086 -1824416289 -228753347 158072740 -185951248 -849395845 1484398232 1682721443 1554352402 -1013740678 -853686100 -723218332 644906354 913730485 399110644 -361990080 1496026620 1636804422 1571829160 -1976082480 -1871568458
REM
CELL 1.54180   50.00000   50.00000   50.00000   90.00000   90.00000   90.00000
LATT -1
SFAC C  
C      1  0.4988730000000  0.5005790000000  0.5309890000000 1.0
C      1  0.4988730000000  0.5005790000000  0.5000000000000 1.0
C      1  0.4988730000000  0.5005790000000  0.5609220000000 1.0
C      1  0.4988730000000  0.5005790000000  0.4390780000000 1.0
C      1  0.4988730000000  0.5005790000000  0.4690110000000 1.0
END
