TITL C-862507-1800-897 0.741945759924516 125000 -299.575159717592 0 0 53 (C1) n - 1
REM
REM in /home/nfs/bkarasulu/CARBON/AIRSS/Generating-Clusters/TERSOFF/Higher-Symm/FIRE-HFTN
REM
REM
REM
REM
REM
REM ./C.cell (b20cbc046b6831c77cfcea5457e17084)
REM AIRSS Version 0.9.1 bugfix July 2018 build 013d7b7c2542+ Fri, 06 Jul 2018 19:26:36 +0100
REM compiler GCC version 9.2.1 20190827 (Red Hat 9.2.1-1)
REM options -cpp -mtune=generic -march=x86-64 -g -O0 -fpre-include=/usr/include/finclude/math-vector-fortran.h
REM seed -1536630420 1516783932 462081704 -442169636 1993221407 -436681587 -246423606 -81926083 -1002201279 1475201105 1164647847 1815963645 224373934 846067014 -920016927 -212806845 334693949 -70860272 -276802954 1697877859 2009321658 -434512190 1372864912 -1943285458 932215954 1071700939 2023877014 1934212013 -1170615663 1876960120 -1246446418 -188316604 -551205773
REM
CELL 1.54180   50.00000   50.00000   50.00000   90.00000   90.00000   90.00000
LATT -1
SFAC C  
C      1  0.5386130000000  0.4999500000000  0.5700480000000 1.0
C      1  0.4605260000000  0.5010010000000  0.5676430000000 1.0
C      1  0.5109900000000  0.5133940000000  0.5173850000000 1.0
C      1  0.4896590000000  0.4978580000000  0.5066200000000 1.0
C      1  0.5399340000000  0.5470920000000  0.4691390000000 1.0
C      1  0.4577080000000  0.5458490000000  0.4684260000000 1.0
C      1  0.5102010000000  0.4824360000000  0.4687350000000 1.0
C      1  0.4833000000000  0.4789240000000  0.4620150000000 1.0
C      1  0.5108110000000  0.4950370000000  0.5769000000000 1.0
C      1  0.4882190000000  0.5096180000000  0.5659490000000 1.0
C      1  0.5803890000000  0.4915200000000  0.5055520000000 1.0
C      1  0.4174700000000  0.4937160000000  0.5046520000000 1.0
C      1  0.5590800000000  0.4575740000000  0.5521630000000 1.0
C      1  0.4408300000000  0.4577670000000  0.5509800000000 1.0
C      1  0.4363550000000  0.4498960000000  0.4668820000000 1.0
C      1  0.5634800000000  0.4468660000000  0.4679780000000 1.0
C      1  0.4527620000000  0.5156080000000  0.4750150000000 1.0
C      1  0.5451070000000  0.5171180000000  0.4780370000000 1.0
C      1  0.4835020000000  0.5211960000000  0.4348060000000 1.0
C      1  0.5132500000000  0.5211330000000  0.4369580000000 1.0
C      1  0.5128020000000  0.5578660000000  0.5644110000000 1.0
C      1  0.4839170000000  0.5552080000000  0.5640950000000 1.0
C      1  0.5682110000000  0.4742140000000  0.4582000000000 1.0
C      1  0.4265940000000  0.4758660000000  0.4564270000000 1.0
C      1  0.5367200000000  0.4351280000000  0.4731480000000 1.0
C      1  0.4635320000000  0.4452700000000  0.4777710000000 1.0
C      1  0.4697670000000  0.5525330000000  0.5388780000000 1.0
C      1  0.5277160000000  0.5578380000000  0.5395030000000 1.0
C      1  0.4464850000000  0.4859980000000  0.5469730000000 1.0
C      1  0.5533250000000  0.4859090000000  0.5491700000000 1.0
C      1  0.4414270000000  0.4983640000000  0.5210860000000 1.0
C      1  0.5589780000000  0.4993660000000  0.5239450000000 1.0
C      1  0.5720190000000  0.4971420000000  0.4776730000000 1.0
C      1  0.4244610000000  0.4990320000000  0.4761440000000 1.0
C      1  0.4687360000000  0.5460170000000  0.4409190000000 1.0
C      1  0.5283010000000  0.5459580000000  0.4419180000000 1.0
C      1  0.5140520000000  0.5551300000000  0.5138980000000 1.0
C      1  0.4841690000000  0.5524900000000  0.5135140000000 1.0
C      1  0.5380620000000  0.5126020000000  0.5080310000000 1.0
C      1  0.4628200000000  0.5072600000000  0.5029250000000 1.0
C      1  0.5121120000000  0.4418200000000  0.4582440000000 1.0
C      1  0.4852310000000  0.4307860000000  0.4639050000000 1.0
C      1  0.4883360000000  0.4389840000000  0.5452920000000 1.0
C      1  0.5116800000000  0.4405520000000  0.5624270000000 1.0
C      1  0.5481510000000  0.4848330000000  0.4401330000000 1.0
C      1  0.4442260000000  0.4871200000000  0.4356310000000 1.0
C      1  0.4671500000000  0.4999560000000  0.4498500000000 1.0
C      1  0.5278460000000  0.5007820000000  0.4546350000000 1.0
C      1  0.4609590000000  0.4372410000000  0.5547290000000 1.0
C      1  0.5390250000000  0.4366840000000  0.5535470000000 1.0
C      1  0.4730020000000  0.5629490000000  0.4872640000000 1.0
C      1  0.5247910000000  0.5651030000000  0.4873840000000 1.0
C      1  0.4983820000000  0.5761670000000  0.4768750000000 1.0
END
