TITL C-862130-1496-432 0.000779344583420146 125000 -865.997166398951 0 0 162 (C1) n - 1
REM
REM in /home/nfs/bkarasulu/CARBON/AIRSS/Generating-Clusters/TERSOFF/Higher-Symm/FIRE-HFTN
REM
REM
REM
REM
REM
REM ./C.cell (b20cbc046b6831c77cfcea5457e17084)
REM AIRSS Version 0.9.1 bugfix July 2018 build 013d7b7c2542+ Fri, 06 Jul 2018 19:26:36 +0100
REM compiler GCC version 9.2.1 20190827 (Red Hat 9.2.1-1)
REM options -cpp -mtune=generic -march=x86-64 -g -O0 -fpre-include=/usr/include/finclude/math-vector-fortran.h
REM seed -788730044 76991547 -1478634941 1100932518 992018682 -1516905177 -493153011 -577702974 -952248050 -1439665804 163781627 -307014382 -2114952913 1750853625 -234532628 -848550494 -1305392353 711111259 1884082584 504014585 497488867 850561818 -644408629 697982473 -2137869600 802940627 101059537 -14555852 -1450981151 -384346137 584980468 -132372973 -2017534518
REM
CELL 1.54180   50.00000   50.00000   50.00000   90.00000   90.00000   90.00000
LATT -1
SFAC C  
C      1  0.4824380000000  0.5592010000000  0.5849180000000 1.0
C      1  0.5776210000000  0.4772450000000  0.5534350000000 1.0
C      1  0.5471160000000  0.5748070000000  0.4783790000000 1.0
C      1  0.5210630000000  0.5579930000000  0.4176970000000 1.0
C      1  0.4811190000000  0.4490060000000  0.4264730000000 1.0
C      1  0.5167020000000  0.4408380000000  0.5838740000000 1.0
C      1  0.4164420000000  0.4838420000000  0.4381020000000 1.0
C      1  0.5859820000000  0.5196720000000  0.4401620000000 1.0
C      1  0.4279400000000  0.5209060000000  0.5474170000000 1.0
C      1  0.4470840000000  0.5799370000000  0.5222280000000 1.0
C      1  0.5585550000000  0.4174030000000  0.5232590000000 1.0
C      1  0.4436820000000  0.4250110000000  0.4804980000000 1.0
C      1  0.5762110000000  0.5542960000000  0.4780150000000 1.0
C      1  0.5488390000000  0.4778980000000  0.5733510000000 1.0
C      1  0.4785430000000  0.5803040000000  0.5556900000000 1.0
C      1  0.4182950000000  0.5589040000000  0.5163760000000 1.0
C      1  0.4229430000000  0.4522520000000  0.4773060000000 1.0
C      1  0.5880960000000  0.4383210000000  0.5198870000000 1.0
C      1  0.4479360000000  0.4791560000000  0.4209750000000 1.0
C      1  0.4498160000000  0.5215630000000  0.5739520000000 1.0
C      1  0.5570410000000  0.5230370000000  0.4180920000000 1.0
C      1  0.5143130000000  0.5848860000000  0.4410630000000 1.0
C      1  0.5221860000000  0.4182260000000  0.5560910000000 1.0
C      1  0.4836450000000  0.4219100000000  0.4503480000000 1.0
C      1  0.5930080000000  0.4731160000000  0.4509320000000 1.0
C      1  0.4487670000000  0.5943460000000  0.4747170000000 1.0
C      1  0.4711010000000  0.4512780000000  0.5948810000000 1.0
C      1  0.4069280000000  0.4750930000000  0.5482910000000 1.0
C      1  0.5936070000000  0.5247160000000  0.5476050000000 1.0
C      1  0.4043370000000  0.5282650000000  0.4491200000000 1.0
C      1  0.5484320000000  0.5920190000000  0.5252160000000 1.0
C      1  0.4512190000000  0.4072200000000  0.5259400000000 1.0
C      1  0.5517370000000  0.4078590000000  0.4749730000000 1.0
C      1  0.5265030000000  0.4517270000000  0.4092370000000 1.0
C      1  0.4729670000000  0.5502970000000  0.4076080000000 1.0
C      1  0.5291350000000  0.5482900000000  0.5937840000000 1.0
C      1  0.4491910000000  0.4757960000000  0.5945000000000 1.0
C      1  0.4713020000000  0.5941330000000  0.4516590000000 1.0
C      1  0.5950190000000  0.4509130000000  0.4735640000000 1.0
C      1  0.5497450000000  0.4743680000000  0.4077360000000 1.0
C      1  0.5507800000000  0.5242130000000  0.5921050000000 1.0
C      1  0.4509590000000  0.5268030000000  0.4082210000000 1.0
C      1  0.5267180000000  0.5919560000000  0.5494310000000 1.0
C      1  0.5287050000000  0.4066330000000  0.4528610000000 1.0
C      1  0.4733290000000  0.4061920000000  0.5507050000000 1.0
C      1  0.4063460000000  0.4512020000000  0.5249070000000 1.0
C      1  0.4043730000000  0.5509710000000  0.4722220000000 1.0
C      1  0.5921530000000  0.5479560000000  0.5248790000000 1.0
C      1  0.4979620000000  0.6020400000000  0.4655290000000 1.0
C      1  0.4641150000000  0.5033990000000  0.5972320000000 1.0
C      1  0.6025340000000  0.4632800000000  0.5006620000000 1.0
C      1  0.4987510000000  0.5972440000000  0.5378320000000 1.0
C      1  0.5018160000000  0.4023680000000  0.5391150000000 1.0
C      1  0.5015230000000  0.4018940000000  0.4669190000000 1.0
C      1  0.5377180000000  0.5024080000000  0.4040980000000 1.0
C      1  0.4653120000000  0.4996880000000  0.4043950000000 1.0
C      1  0.5359790000000  0.4970020000000  0.5955090000000 1.0
C      1  0.4033920000000  0.4647130000000  0.4975090000000 1.0
C      1  0.5970530000000  0.5354420000000  0.4970530000000 1.0
C      1  0.3982370000000  0.5368100000000  0.4996730000000 1.0
C      1  0.4621130000000  0.5978630000000  0.5024650000000 1.0
C      1  0.6004650000000  0.5002130000000  0.4626560000000 1.0
C      1  0.4989330000000  0.4640490000000  0.6009550000000 1.0
C      1  0.5340250000000  0.5958610000000  0.4981030000000 1.0
C      1  0.5391430000000  0.4024060000000  0.5025640000000 1.0
C      1  0.4667270000000  0.4035110000000  0.4983940000000 1.0
C      1  0.4044210000000  0.5028180000000  0.5342160000000 1.0
C      1  0.3978730000000  0.5006450000000  0.4622630000000 1.0
C      1  0.5980370000000  0.4969220000000  0.5349420000000 1.0
C      1  0.4990950000000  0.4662980000000  0.4059740000000 1.0
C      1  0.5015560000000  0.5364570000000  0.6003630000000 1.0
C      1  0.5010250000000  0.5386110000000  0.4039450000000 1.0
C      1  0.4204860000000  0.6000320000000  0.4693370000000 1.0
C      1  0.4645220000000  0.4228030000000  0.5996090000000 1.0
C      1  0.5978780000000  0.4668300000000  0.4228310000000 1.0
C      1  0.5769730000000  0.5971770000000  0.5294490000000 1.0
C      1  0.4224260000000  0.4018100000000  0.5296550000000 1.0
C      1  0.5795220000000  0.4022800000000  0.4687390000000 1.0
C      1  0.5313260000000  0.4231810000000  0.4035090000000 1.0
C      1  0.4665770000000  0.5785200000000  0.4025040000000 1.0
C      1  0.5359510000000  0.5765310000000  0.5980910000000 1.0
C      1  0.4005470000000  0.4706840000000  0.5767190000000 1.0
C      1  0.5992610000000  0.5300400000000  0.5758260000000 1.0
C      1  0.4011930000000  0.5336280000000  0.4205120000000 1.0
C      1  0.4656950000000  0.5991750000000  0.4232600000000 1.0
C      1  0.5998370000000  0.4228090000000  0.4675010000000 1.0
C      1  0.4202590000000  0.4720250000000  0.5984990000000 1.0
C      1  0.5340170000000  0.5972220000000  0.5774220000000 1.0
C      1  0.5332400000000  0.4022020000000  0.4240820000000 1.0
C      1  0.4662760000000  0.4015740000000  0.5790840000000 1.0
C      1  0.4014550000000  0.4225250000000  0.5298200000000 1.0
C      1  0.3997530000000  0.5794970000000  0.4672470000000 1.0
C      1  0.5973690000000  0.5762720000000  0.5305250000000 1.0
C      1  0.5775800000000  0.4682050000000  0.4022370000000 1.0
C      1  0.5793300000000  0.5282610000000  0.5970160000000 1.0
C      1  0.4229050000000  0.5316320000000  0.4010590000000 1.0
C      1  0.4997690000000  0.5222100000000  0.4507180000000 1.0
C      1  0.4585810000000  0.4975990000000  0.5216170000000 1.0
C      1  0.5285540000000  0.4481810000000  0.5100730000000 1.0
C      1  0.4952900000000  0.5248010000000  0.5501050000000 1.0
C      1  0.5049580000000  0.4731170000000  0.5478120000000 1.0
C      1  0.5053820000000  0.4816140000000  0.4597290000000 1.0
C      1  0.5512050000000  0.5132600000000  0.4701800000000 1.0
C      1  0.4479520000000  0.4970110000000  0.4771480000000 1.0
C      1  0.5445540000000  0.4978890000000  0.5189440000000 1.0
C      1  0.4782890000000  0.4524800000000  0.4949270000000 1.0
C      1  0.5196830000000  0.5431150000000  0.5010160000000 1.0
C      1  0.4780820000000  0.5450150000000  0.4963350000000 1.0
C      1  0.4521680000000  0.5230600000000  0.5026230000000 1.0
C      1  0.5274070000000  0.5046980000000  0.4511210000000 1.0
C      1  0.4989940000000  0.4510030000000  0.5233690000000 1.0
C      1  0.5432930000000  0.5198490000000  0.4976240000000 1.0
C      1  0.5532450000000  0.4706670000000  0.5112950000000 1.0
C      1  0.4555140000000  0.4750520000000  0.5001990000000 1.0
C      1  0.4800080000000  0.4967060000000  0.5461660000000 1.0
C      1  0.4761640000000  0.4952040000000  0.4548060000000 1.0
C      1  0.5215850000000  0.5009880000000  0.5432080000000 1.0
C      1  0.5073660000000  0.4572370000000  0.4827830000000 1.0
C      1  0.4935650000000  0.5483800000000  0.5248340000000 1.0
C      1  0.5046860000000  0.5472250000000  0.4720750000000 1.0
C      1  0.4369350000000  0.4585270000000  0.5219370000000 1.0
C      1  0.5232700000000  0.4373150000000  0.4614970000000 1.0
C      1  0.4562880000000  0.5195780000000  0.4402240000000 1.0
C      1  0.5651630000000  0.4616920000000  0.4815980000000 1.0
C      1  0.4350980000000  0.5428520000000  0.4805900000000 1.0
C      1  0.5609320000000  0.5405610000000  0.5176650000000 1.0
C      1  0.4779100000000  0.4365660000000  0.5434280000000 1.0
C      1  0.5196860000000  0.5611800000000  0.5426210000000 1.0
C      1  0.4776890000000  0.5637030000000  0.4583970000000 1.0
C      1  0.5426400000000  0.5189620000000  0.5604660000000 1.0
C      1  0.4585950000000  0.4788760000000  0.5637600000000 1.0
C      1  0.5418620000000  0.4781130000000  0.4380500000000 1.0
C      1  0.5197220000000  0.4578060000000  0.4414510000000 1.0
C      1  0.4584550000000  0.4382980000000  0.5202800000000 1.0
C      1  0.4340150000000  0.5217710000000  0.4592100000000 1.0
C      1  0.4795090000000  0.4571810000000  0.5643780000000 1.0
C      1  0.4765840000000  0.5422210000000  0.4378570000000 1.0
C      1  0.5219050000000  0.5406130000000  0.5638590000000 1.0
C      1  0.5451780000000  0.4389720000000  0.4828620000000 1.0
C      1  0.5402150000000  0.5608620000000  0.5202940000000 1.0
C      1  0.4562710000000  0.5629950000000  0.4799080000000 1.0
C      1  0.5626620000000  0.5189240000000  0.5393960000000 1.0
C      1  0.5622380000000  0.4830420000000  0.4601630000000 1.0
C      1  0.4389090000000  0.4805480000000  0.5425400000000 1.0
C      1  0.4347100000000  0.4725320000000  0.4602750000000 1.0
C      1  0.4669410000000  0.4408600000000  0.4676570000000 1.0
C      1  0.4627850000000  0.4658570000000  0.4460340000000 1.0
C      1  0.5680660000000  0.4568530000000  0.5340080000000 1.0
C      1  0.4396230000000  0.5389270000000  0.5271980000000 1.0
C      1  0.5658000000000  0.5355800000000  0.4571610000000 1.0
C      1  0.5415260000000  0.4381380000000  0.5405350000000 1.0
C      1  0.4638730000000  0.5581080000000  0.5380450000000 1.0
C      1  0.5285130000000  0.5634780000000  0.4586470000000 1.0
C      1  0.5293640000000  0.4591280000000  0.5622110000000 1.0
C      1  0.4706540000000  0.5399200000000  0.5640830000000 1.0
C      1  0.5449430000000  0.5471060000000  0.4352500000000 1.0
C      1  0.5001140000000  0.5002420000000  0.5994210000000 1.0
C      1  0.5996820000000  0.4993770000000  0.4988520000000 1.0
C      1  0.4981880000000  0.5993850000000  0.5016530000000 1.0
C      1  0.5015010000000  0.5024180000000  0.4044270000000 1.0
C      1  0.3997790000000  0.5006860000000  0.4984130000000 1.0
C      1  0.5028480000000  0.4019320000000  0.5030030000000 1.0
END
