TITL C-862130-1496-1488 151823.157115091 125000 -138.325297734853 0 0 26 (C1) n - 1
REM
REM in /home/nfs/bkarasulu/CARBON/AIRSS/Generating-Clusters/TERSOFF/Higher-Symm/FIRE-HFTN
REM
REM
REM
REM
REM
REM ./C.cell (b20cbc046b6831c77cfcea5457e17084)
REM AIRSS Version 0.9.1 bugfix July 2018 build 013d7b7c2542+ Fri, 06 Jul 2018 19:26:36 +0100
REM compiler GCC version 9.2.1 20190827 (Red Hat 9.2.1-1)
REM options -cpp -mtune=generic -march=x86-64 -g -O0 -fpre-include=/usr/include/finclude/math-vector-fortran.h
REM seed -1248350256 -1037449887 -1379692356 1015835432 286132077 -1200427376 -1302274189 62947351 138384255 1611035440 171382099 -441382194 1322295408 905561382 -510219873 -63122886 1053018338 1418575755 1406935188 1560348948 940289837 548404111 -1072709396 841257032 524583105 1300311368 -1640675566 2091875731 1661934771 1869370487 194711580 488643436 -357160604
REM
CELL 1.54180   50.00000   50.00000   50.00000   90.00000   90.00000   90.00000
LATT -1
SFAC C  
C      1  0.5441430000000  0.5529150000000  0.5124720000000 1.0
C      1  0.5543300000000  0.5418550000000  0.4877090000000 1.0
C      1  0.5423480000000  0.5458730000000  0.4616530000000 1.0
C      1  0.5140580000000  0.5437570000000  0.4559970000000 1.0
C      1  0.4938350000000  0.5360280000000  0.4753520000000 1.0
C      1  0.4658130000000  0.5418060000000  0.4703500000000 1.0
C      1  0.4453930000000  0.5433780000000  0.4907790000000 1.0
C      1  0.4503160000000  0.5413700000000  0.5192420000000 1.0
C      1  0.4749390000000  0.5317800000000  0.5311230000000 1.0
C      1  0.4985500000000  0.5479690000000  0.5355690000000 1.0
C      1  0.5257150000000  0.5393940000000  0.5302720000000 1.0
C      1  0.5239830000000  0.4624370000000  0.4541940000000 1.0
C      1  0.4948510000000  0.4638460000000  0.4505340000000 1.0
C      1  0.4796910000000  0.4709970000000  0.4742100000000 1.0
C      1  0.4523750000000  0.4629930000000  0.4810390000000 1.0
C      1  0.4420040000000  0.4596160000000  0.5090120000000 1.0
C      1  0.4576970000000  0.4627660000000  0.5344380000000 1.0
C      1  0.4854000000000  0.4529490000000  0.5385680000000 1.0
C      1  0.5087480000000  0.4693870000000  0.5483110000000 1.0
C      1  0.5326450000000  0.4740200000000  0.5313020000000 1.0
C      1  0.5381820000000  0.4599700000000  0.5053050000000 1.0
C      1  0.5385100000000  0.4726610000000  0.4782840000000 1.0
C      1  0.5017190000000  0.5228730000000  0.5000190000000 1.0
C      1  0.4983130000000  0.4718690000000  0.4955360000000 1.0
C      1  0.5128020000000  0.4962270000000  0.5016870000000 1.0
C      1  0.4982990000000  0.4492840000000  0.5129470000000 1.0
END
