TITL C-862130-1496-266 -0.00316421409133039 125000 -710.868120606881 0 0 126 (C5) n - 1
REM
REM in /home/nfs/bkarasulu/CARBON/AIRSS/Generating-Clusters/TERSOFF/Higher-Symm/FIRE-HFTN
REM
REM
REM
REM
REM
REM ./C.cell (b20cbc046b6831c77cfcea5457e17084)
REM AIRSS Version 0.9.1 bugfix July 2018 build 013d7b7c2542+ Fri, 06 Jul 2018 19:26:36 +0100
REM compiler GCC version 9.2.1 20190827 (Red Hat 9.2.1-1)
REM options -cpp -mtune=generic -march=x86-64 -g -O0 -fpre-include=/usr/include/finclude/math-vector-fortran.h
REM seed -197435263 -159058211 -477986008 1254221300 162448358 945552305 -216488099 -637664233 -1142766517 -783372589 -311538109 -1777923196 2041934034 -619872668 526280301 -283202390 -1928772020 427984404 -2010249090 -1585410013 327387765 1054001946 967853419 619952413 -1476138247 718401297 -603111548 1718059232 501437133 -410736790 -568703095 353263956 617506429
REM
CELL 1.54180   50.00000   50.00000   50.00000   90.00000   90.00000   90.00000
LATT -1
SFAC C  
C      1  0.5771120000000  0.4421050000000  0.5128350000000 1.0
C      1  0.4688540000000  0.4091050000000  0.5128350000000 1.0
C      1  0.4040150000000  0.5018660000000  0.5128350000000 1.0
C      1  0.4722010000000  0.5921960000000  0.5128350000000 1.0
C      1  0.5791800000000  0.5552620000000  0.5128350000000 1.0
C      1  0.5104650000000  0.4229310000000  0.5793660000000 1.0
C      1  0.4300240000000  0.4665640000000  0.5793660000000 1.0
C      1  0.4466630000000  0.5565520000000  0.5793660000000 1.0
C      1  0.5373880000000  0.5685350000000  0.5793660000000 1.0
C      1  0.5768200000000  0.4859530000000  0.5793670000000 1.0
C      1  0.5227850000000  0.5771370000000  0.4616230000000 1.0
C      1  0.5804890000000  0.5024990000000  0.4616230000000 1.0
C      1  0.5273360000000  0.4245550000000  0.4616230000000 1.0
C      1  0.4367820000000  0.4510210000000  0.4616230000000 1.0
C      1  0.4339690000000  0.5453220000000  0.4616230000000 1.0
C      1  0.4826950000000  0.5400300000000  0.4698810000000 1.0
C      1  0.5328100000000  0.5291610000000  0.4698820000000 1.0
C      1  0.5379590000000  0.4781400000000  0.4698820000000 1.0
C      1  0.4910260000000  0.4574760000000  0.4698820000000 1.0
C      1  0.4568710000000  0.4957270000000  0.4698810000000 1.0
C      1  0.4401490000000  0.4851410000000  0.4236540000000 1.0
C      1  0.4674600000000  0.5526630000000  0.4236540000000 1.0
C      1  0.5401170000000  0.5475540000000  0.4236540000000 1.0
C      1  0.5577100000000  0.4768740000000  0.4236540000000 1.0
C      1  0.4959260000000  0.4383010000000  0.4236540000000 1.0
C      1  0.5153500000000  0.5485280000000  0.4085500000000 1.0
C      1  0.5509830000000  0.5007300000000  0.4085500000000 1.0
C      1  0.5165360000000  0.4520710000000  0.4085500000000 1.0
C      1  0.4596140000000  0.4697960000000  0.4085500000000 1.0
C      1  0.4588810000000  0.5294090000000  0.4085500000000 1.0
C      1  0.5124940000000  0.4767360000000  0.6187850000000 1.0
C      1  0.4818220000000  0.4812610000000  0.6187840000000 1.0
C      1  0.4766470000000  0.5118300000000  0.6187840000000 1.0
C      1  0.5041210000000  0.5261980000000  0.6187840000000 1.0
C      1  0.5262750000000  0.5045090000000  0.6187850000000 1.0
C      1  0.4531200000000  0.4322470000000  0.4443130000000 1.0
C      1  0.4211630000000  0.5239820000000  0.4443130000000 1.0
C      1  0.4985320000000  0.5827220000000  0.4443130000000 1.0
C      1  0.5783060000000  0.5272910000000  0.4443140000000 1.0
C      1  0.5502400000000  0.4342920000000  0.4443140000000 1.0
C      1  0.5906140000000  0.5008870000000  0.5054660000000 1.0
C      1  0.5289310000000  0.4144280000000  0.5054650000000 1.0
C      1  0.4276430000000  0.4463740000000  0.5054650000000 1.0
C      1  0.4267260000000  0.5525770000000  0.5054650000000 1.0
C      1  0.5274470000000  0.5862680000000  0.5054650000000 1.0
C      1  0.5640900000000  0.4791780000000  0.4526030000000 1.0
C      1  0.5000880000000  0.4329450000000  0.4526030000000 1.0
C      1  0.4363410000000  0.4795280000000  0.4526030000000 1.0
C      1  0.4609450000000  0.5545500000000  0.4526030000000 1.0
C      1  0.5398980000000  0.5543330000000  0.4526030000000 1.0
C      1  0.4670010000000  0.4434070000000  0.4192860000000 1.0
C      1  0.4360660000000  0.5142290000000  0.4192860000000 1.0
C      1  0.4938620000000  0.5655350000000  0.4192860000000 1.0
C      1  0.5605170000000  0.5264220000000  0.4192860000000 1.0
C      1  0.5439160000000  0.4509420000000  0.4192860000000 1.0
C      1  0.4739770000000  0.5804760000000  0.4626650000000 1.0
C      1  0.5685830000000  0.5499510000000  0.4626660000000 1.0
C      1  0.5687860000000  0.4505430000000  0.4626660000000 1.0
C      1  0.4743060000000  0.4196300000000  0.4626660000000 1.0
C      1  0.4157100000000  0.4999340000000  0.4626650000000 1.0
C      1  0.4778570000000  0.5283320000000  0.4980380000000 1.0
C      1  0.5201890000000  0.5301470000000  0.4980380000000 1.0
C      1  0.5349970000000  0.4904480000000  0.4980380000000 1.0
C      1  0.5018160000000  0.4640970000000  0.4980380000000 1.0
C      1  0.4665020000000  0.4875110000000  0.4980380000000 1.0
C      1  0.5049080000000  0.5302320000000  0.5857640000000 1.0
C      1  0.5303550000000  0.5050070000000  0.5857640000000 1.0
C      1  0.5142280000000  0.4730100000000  0.5857640000000 1.0
C      1  0.4788140000000  0.4784610000000  0.5857640000000 1.0
C      1  0.4730540000000  0.5138250000000  0.5857640000000 1.0
C      1  0.4335010000000  0.4312380000000  0.5300830000000 1.0
C      1  0.4141410000000  0.5423280000000  0.5300830000000 1.0
C      1  0.5138110000000  0.5950700000000  0.5300840000000 1.0
C      1  0.5947710000000  0.5165760000000  0.5300840000000 1.0
C      1  0.5451370000000  0.4153230000000  0.5300840000000 1.0
C      1  0.4222160000000  0.5074620000000  0.4905050000000 1.0
C      1  0.4831460000000  0.5766160000000  0.4905050000000 1.0
C      1  0.5677440000000  0.5400370000000  0.4905050000000 1.0
C      1  0.5590980000000  0.4482760000000  0.4905050000000 1.0
C      1  0.4691570000000  0.4281440000000  0.4905050000000 1.0
C      1  0.5633740000000  0.5088730000000  0.4919760000000 1.0
C      1  0.5281090000000  0.4428020000000  0.4919760000000 1.0
C      1  0.4543740000000  0.4559250000000  0.4919750000000 1.0
C      1  0.4440700000000  0.5301050000000  0.4919750000000 1.0
C      1  0.5114350000000  0.5628290000000  0.4919750000000 1.0
C      1  0.5637580000000  0.5196350000000  0.5447100000000 1.0
C      1  0.5384620000000  0.4457630000000  0.5447100000000 1.0
C      1  0.4603900000000  0.4469930000000  0.5447100000000 1.0
C      1  0.4374330000000  0.5216240000000  0.5447090000000 1.0
C      1  0.5013180000000  0.5665200000000  0.5447100000000 1.0
C      1  0.5648730000000  0.4883500000000  0.5383390000000 1.0
C      1  0.5090540000000  0.4350350000000  0.5383390000000 1.0
C      1  0.4410980000000  0.4716470000000  0.5383390000000 1.0
C      1  0.4549190000000  0.5475900000000  0.5383390000000 1.0
C      1  0.5314160000000  0.5579130000000  0.5383390000000 1.0
C      1  0.5078680000000  0.5246240000000  0.3931200000000 1.0
C      1  0.5259370000000  0.5004590000000  0.3931200000000 1.0
C      1  0.5085390000000  0.4758070000000  0.3931200000000 1.0
C      1  0.4797160000000  0.4847360000000  0.3931200000000 1.0
C      1  0.4793020000000  0.5149070000000  0.3931200000000 1.0
C      1  0.5578750000000  0.5081840000000  0.5746850000000 1.0
C      1  0.5257540000000  0.4478190000000  0.5746850000000 1.0
C      1  0.4584180000000  0.4597140000000  0.5746850000000 1.0
C      1  0.4489230000000  0.5274300000000  0.5746850000000 1.0
C      1  0.5103900000000  0.5573870000000  0.5746850000000 1.0
C      1  0.5726670000000  0.5505380000000  0.5410300000000 1.0
C      1  0.5706060000000  0.4468390000000  0.5410300000000 1.0
C      1  0.4713460000000  0.4167540000000  0.5410300000000 1.0
C      1  0.4120610000000  0.5018600000000  0.5410300000000 1.0
C      1  0.4746800000000  0.5845430000000  0.5410300000000 1.0
C      1  0.5353360000000  0.6010280000000  0.4795790000000 1.0
C      1  0.6070890000000  0.4979450000000  0.4795800000000 1.0
C      1  0.5312250000000  0.3978500000000  0.4795790000000 1.0
C      1  0.4125850000000  0.4390700000000  0.4795790000000 1.0
C      1  0.4151260000000  0.5646410000000  0.4795790000000 1.0
C      1  0.5370980000000  0.5326520000000  0.5253820000000 1.0
C      1  0.5426040000000  0.4751400000000  0.5253820000000 1.0
C      1  0.4896080000000  0.4521320000000  0.5253820000000 1.0
C      1  0.4513500000000  0.4954240000000  0.5253820000000 1.0
C      1  0.4807000000000  0.5451880000000  0.5253820000000 1.0
C      1  0.4150060000000  0.4746450000000  0.5545520000000 1.0
C      1  0.4497080000000  0.5733320000000  0.5545520000000 1.0
C      1  0.5542880000000  0.5708240000000  0.5545520000000 1.0
C      1  0.5842200000000  0.4705870000000  0.5545530000000 1.0
C      1  0.4981390000000  0.4111460000000  0.5545520000000 1.0
C      1  0.5002720000000  0.5001070000000  0.4995250000000 1.0
END
