TITL C-862500-986-634 0.000551342864724666 125000 -711.473616849664 0 0 129 (C3h) n - 1
REM
REM in /home/nfs/bkarasulu/CARBON/AIRSS/Generating-Clusters/TERSOFF/Higher-Symm/FIRE-HFTN
REM
REM
REM
REM
REM
REM ./C.cell (b20cbc046b6831c77cfcea5457e17084)
REM AIRSS Version 0.9.1 bugfix July 2018 build 013d7b7c2542+ Fri, 06 Jul 2018 19:26:36 +0100
REM compiler GCC version 9.2.1 20190827 (Red Hat 9.2.1-1)
REM options -cpp -mtune=generic -march=x86-64 -g -O0 -fpre-include=/usr/include/finclude/math-vector-fortran.h
REM seed 396473464 1283375064 -323141942 787878442 -1308933480 -1763454186 -1833243001 81156131 1725815978 1722427437 -541137 347719859 -1974383539 1067083162 -1656712927 -1786046165 1188535466 -860675132 -408007319 -1039536104 1504881939 -877057149 565348619 -1394013261 -195146515 -735572503 350742054 2086239467 64326801 -1583989649 -33817231 528582856 -1238567884
REM
CELL 1.54180   50.00000   50.00000   50.00000   90.00000   90.00000   90.00000
LATT -1
SFAC C  
C      1  0.5190080000000  0.5141820000000  0.4205370000000 1.0
C      1  0.4216790000000  0.5141820000000  0.5232700000000 1.0
C      1  0.5593130000000  0.5141810000000  0.5561930000000 1.0
C      1  0.5190080000000  0.4852730000000  0.4205370000000 1.0
C      1  0.4216790000000  0.4852730000000  0.5232700000000 1.0
C      1  0.5593130000000  0.4852730000000  0.5561930000000 1.0
C      1  0.4647160000000  0.5174720000000  0.5482410000000 1.0
C      1  0.5594200000000  0.5174720000000  0.5064370000000 1.0
C      1  0.4758640000000  0.5174730000000  0.4453230000000 1.0
C      1  0.4647160000000  0.4819820000000  0.5482410000000 1.0
C      1  0.5594200000000  0.4819820000000  0.5064370000000 1.0
C      1  0.4758640000000  0.4819830000000  0.4453230000000 1.0
C      1  0.5564490000000  0.5940090000000  0.4741700000000 1.0
C      1  0.4494060000000  0.5940090000000  0.4640290000000 1.0
C      1  0.4941450000000  0.5940090000000  0.5618010000000 1.0
C      1  0.5564490000000  0.4054460000000  0.4741700000000 1.0
C      1  0.4494060000000  0.4054460000000  0.4640290000000 1.0
C      1  0.4941450000000  0.4054460000000  0.5618010000000 1.0
C      1  0.4703940000000  0.5391320000000  0.5245170000000 1.0
C      1  0.5360360000000  0.5391320000000  0.5133810000000 1.0
C      1  0.4935710000000  0.5391320000000  0.4621020000000 1.0
C      1  0.4703940000000  0.4603230000000  0.5245170000000 1.0
C      1  0.5360360000000  0.4603230000000  0.5133810000000 1.0
C      1  0.4935710000000  0.4603230000000  0.4621010000000 1.0
C      1  0.5347970000000  0.4415790000000  0.4862530000000 1.0
C      1  0.4706960000000  0.4415790000000  0.4767390000000 1.0
C      1  0.4945070000000  0.4415780000000  0.5370080000000 1.0
C      1  0.5347970000000  0.5578760000000  0.4862530000000 1.0
C      1  0.4706960000000  0.5578760000000  0.4767390000000 1.0
C      1  0.4945070000000  0.5578760000000  0.5370090000000 1.0
C      1  0.4239990000000  0.5293410000000  0.5481820000000 1.0
C      1  0.5797270000000  0.5293410000000  0.5417280000000 1.0
C      1  0.4962730000000  0.5293410000000  0.4100900000000 1.0
C      1  0.4239990000000  0.4701140000000  0.5481820000000 1.0
C      1  0.5797270000000  0.4701140000000  0.5417270000000 1.0
C      1  0.4962730000000  0.4701140000000  0.4100900000000 1.0
C      1  0.5083350000000  0.5162080000000  0.4773550000000 1.0
C      1  0.4762210000000  0.5162080000000  0.5041040000000 1.0
C      1  0.5154440000000  0.5162080000000  0.5185410000000 1.0
C      1  0.5083350000000  0.4832470000000  0.4773550000000 1.0
C      1  0.4762210000000  0.4832470000000  0.5041040000000 1.0
C      1  0.5154440000000  0.4832470000000  0.5185410000000 1.0
C      1  0.4635640000000  0.4759460000000  0.5786520000000 1.0
C      1  0.5863330000000  0.4759460000000  0.4922280000000 1.0
C      1  0.4501030000000  0.4759460000000  0.4291200000000 1.0
C      1  0.4635640000000  0.5235090000000  0.5786520000000 1.0
C      1  0.5863330000000  0.5235090000000  0.4922280000000 1.0
C      1  0.4501030000000  0.5235090000000  0.4291200000000 1.0
C      1  0.5195390000000  0.5851410000000  0.4921120000000 1.0
C      1  0.4833990000000  0.5851410000000  0.4870230000000 1.0
C      1  0.4970620000000  0.5851410000000  0.5208650000000 1.0
C      1  0.5195390000000  0.4143140000000  0.4921120000000 1.0
C      1  0.4833990000000  0.4143140000000  0.4870230000000 1.0
C      1  0.4970620000000  0.4143140000000  0.5208650000000 1.0
C      1  0.5223510000000  0.3899440000000  0.5260880000000 1.0
C      1  0.5114180000000  0.3899450000000  0.4675990000000 1.0
C      1  0.4662310000000  0.3899450000000  0.5063120000000 1.0
C      1  0.5223510000000  0.6095100000000  0.5260890000000 1.0
C      1  0.5114180000000  0.6095100000000  0.4676000000000 1.0
C      1  0.4662310000000  0.6095100000000  0.5063120000000 1.0
C      1  0.5789760000000  0.5358890000000  0.4657280000000 1.0
C      1  0.4308320000000  0.5358890000000  0.4487410000000 1.0
C      1  0.4901920000000  0.5358880000000  0.5855310000000 1.0
C      1  0.5789760000000  0.4635660000000  0.4657280000000 1.0
C      1  0.4308320000000  0.4635670000000  0.4487410000000 1.0
C      1  0.4901920000000  0.4635660000000  0.5855310000000 1.0
C      1  0.4979850000000  0.4845740000000  0.5445470000000 1.0
C      1  0.5395870000000  0.4845740000000  0.4794710000000 1.0
C      1  0.4624280000000  0.4845740000000  0.4759810000000 1.0
C      1  0.4979850000000  0.5148810000000  0.5445470000000 1.0
C      1  0.5395870000000  0.5148810000000  0.4794710000000 1.0
C      1  0.4624280000000  0.5148810000000  0.4759810000000 1.0
C      1  0.4343610000000  0.4258240000000  0.5065370000000 1.0
C      1  0.5384810000000  0.4258240000000  0.5535770000000 1.0
C      1  0.5271590000000  0.4258240000000  0.4398860000000 1.0
C      1  0.4343610000000  0.5736310000000  0.5065370000000 1.0
C      1  0.5384810000000  0.5736310000000  0.5535770000000 1.0
C      1  0.5271590000000  0.5736310000000  0.4398870000000 1.0
C      1  0.5150890000000  0.4824220000000  0.5826790000000 1.0
C      1  0.5640580000000  0.4824220000000  0.4455930000000 1.0
C      1  0.4208530000000  0.4824220000000  0.4717280000000 1.0
C      1  0.5150890000000  0.5170330000000  0.5826800000000 1.0
C      1  0.5640580000000  0.5170330000000  0.4455930000000 1.0
C      1  0.4208530000000  0.5170330000000  0.4717280000000 1.0
C      1  0.4501660000000  0.5490410000000  0.5015800000000 1.0
C      1  0.5262860000000  0.5490410000000  0.5423680000000 1.0
C      1  0.5235480000000  0.5490410000000  0.4560520000000 1.0
C      1  0.4501660000000  0.4504140000000  0.5015800000000 1.0
C      1  0.5262860000000  0.4504130000000  0.5423670000000 1.0
C      1  0.5235480000000  0.4504140000000  0.4560520000000 1.0
C      1  0.4412010000000  0.4013400000000  0.4930730000000 1.0
C      1  0.5234000000000  0.4013400000000  0.5543850000000 1.0
C      1  0.5353980000000  0.4013400000000  0.4525420000000 1.0
C      1  0.4412010000000  0.5981150000000  0.4930730000000 1.0
C      1  0.5234000000000  0.5981150000000  0.5543850000000 1.0
C      1  0.5353980000000  0.5981150000000  0.4525430000000 1.0
C      1  0.4293390000000  0.5274660000000  0.4985740000000 1.0
C      1  0.5340950000000  0.5274660000000  0.5619080000000 1.0
C      1  0.5365660000000  0.5274660000000  0.4395190000000 1.0
C      1  0.4293390000000  0.4719890000000  0.4985740000000 1.0
C      1  0.5340950000000  0.4719890000000  0.5619080000000 1.0
C      1  0.5365660000000  0.4719890000000  0.4395190000000 1.0
C      1  0.4621450000000  0.5654010000000  0.4250660000000 1.0
C      1  0.4540320000000  0.5654000000000  0.5702510000000 1.0
C      1  0.5838230000000  0.5654000000000  0.5046840000000 1.0
C      1  0.4621450000000  0.4340550000000  0.4250650000000 1.0
C      1  0.4540320000000  0.4340540000000  0.5702500000000 1.0
C      1  0.5838230000000  0.4340540000000  0.5046840000000 1.0
C      1  0.4348130000000  0.4429940000000  0.5501810000000 1.0
C      1  0.5760520000000  0.4429940000000  0.5313630000000 1.0
C      1  0.4891350000000  0.4429940000000  0.4184560000000 1.0
C      1  0.4348130000000  0.5564610000000  0.5501810000000 1.0
C      1  0.5760520000000  0.5564610000000  0.5313630000000 1.0
C      1  0.4891350000000  0.5564610000000  0.4184560000000 1.0
C      1  0.4494640000000  0.4357490000000  0.4528270000000 1.0
C      1  0.4844150000000  0.4357490000000  0.5673520000000 1.0
C      1  0.5661210000000  0.4357490000000  0.4798210000000 1.0
C      1  0.4494640000000  0.5637060000000  0.4528270000000 1.0
C      1  0.4844150000000  0.5637060000000  0.5673520000000 1.0
C      1  0.5661210000000  0.5637060000000  0.4798210000000 1.0
C      1  0.4799520000000  0.3919860000000  0.4602590000000 1.0
C      1  0.4756080000000  0.3919860000000  0.5372330000000 1.0
C      1  0.5444410000000  0.3919860000000  0.5025080000000 1.0
C      1  0.4799520000000  0.6074690000000  0.4602590000000 1.0
C      1  0.4756080000000  0.6074690000000  0.5372330000000 1.0
C      1  0.5444410000000  0.6074690000000  0.5025080000000 1.0
C      1  0.4554600000000  0.4997270000000  0.5932540000000 1.0
C      1  0.6030310000000  0.4997270000000  0.4919460000000 1.0
C      1  0.4415090000000  0.4997280000000  0.4148000000000 1.0
END
