TITL C-862128-1543-1374 -1.69250839861884e-06 125000 -114.212834305054 0 0 20 (C2v) n - 1
REM
REM in /home/nfs/bkarasulu/CARBON/AIRSS/Generating-Clusters/TERSOFF/Higher-Symm/FIRE-HFTN
REM
REM
REM
REM
REM
REM ./C.cell (b20cbc046b6831c77cfcea5457e17084)
REM AIRSS Version 0.9.1 bugfix July 2018 build 013d7b7c2542+ Fri, 06 Jul 2018 19:26:36 +0100
REM compiler GCC version 9.2.1 20190827 (Red Hat 9.2.1-1)
REM options -cpp -mtune=generic -march=x86-64 -g -O0 -fpre-include=/usr/include/finclude/math-vector-fortran.h
REM seed -1421181638 -708732009 2025863991 -1564484686 1288342316 -1138669914 -1480305125 -2059686923 1933943412 -881516209 -654802950 616828252 138943454 -2118946407 -1664744649 -1753752110 -1941798124 -1895903819 544692319 -2127592988 -845692111 1972278988 -955151209 -1648625161 1848216650 903840110 -442696609 1471768107 1127028871 1132790082 -325329222 -1813435526 -1895473114
REM
CELL 1.54180   50.00000   50.00000   50.00000   90.00000   90.00000   90.00000
LATT -1
SFAC C  
C      1  0.5145240000000  0.5268170000000  0.5369170000000 1.0
C      1  0.4854760000000  0.4731830000000  0.5369170000000 1.0
C      1  0.5145240000000  0.4731830000000  0.5369170000000 1.0
C      1  0.4854760000000  0.5268170000000  0.5369170000000 1.0
C      1  0.5302160000000  0.4849400000000  0.5149100000000 1.0
C      1  0.4697840000000  0.5150600000000  0.5149100000000 1.0
C      1  0.5302160000000  0.5150600000000  0.5149100000000 1.0
C      1  0.4697840000000  0.4849400000000  0.5149100000000 1.0
C      1  0.4720120000000  0.4695470000000  0.4893090000000 1.0
C      1  0.5279880000000  0.5304530000000  0.4893090000000 1.0
C      1  0.4720120000000  0.5304530000000  0.4893090000000 1.0
C      1  0.5279880000000  0.4695470000000  0.4893090000000 1.0
C      1  0.5145450000000  0.4433420000000  0.4922990000000 1.0
C      1  0.4854550000000  0.5566580000000  0.4922990000000 1.0
C      1  0.5145450000000  0.5566580000000  0.4922990000000 1.0
C      1  0.4854550000000  0.4433420000000  0.4922990000000 1.0
C      1  0.4838410000000  0.4843890000000  0.4665650000000 1.0
C      1  0.5161590000000  0.5156110000000  0.4665650000000 1.0
C      1  0.4838410000000  0.5156110000000  0.4665650000000 1.0
C      1  0.5161590000000  0.4843890000000  0.4665650000000 1.0
END
