TITL C-862134-6730-11 76.8554680764623 125000 -802.945651637322 0 0 138 (C1) n - 1
REM
REM in /home/nfs/bkarasulu/CARBON/AIRSS/Generating-Clusters/TERSOFF/Higher-Symm/FIRE-HFTN
REM
REM
REM
REM
REM
REM ./C.cell (b20cbc046b6831c77cfcea5457e17084)
REM AIRSS Version 0.9.1 bugfix July 2018 build 013d7b7c2542+ Fri, 06 Jul 2018 19:26:36 +0100
REM compiler GCC version 9.2.1 20190827 (Red Hat 9.2.1-1)
REM options -cpp -mtune=generic -march=x86-64 -g -O0 -fpre-include=/usr/include/finclude/math-vector-fortran.h
REM seed 245613120 750688830 1281347269 1542624646 -1892691331 -1144687375 1750081933 430274994 -659917792 -797281245 174597026 935143261 -1622718912 1629984051 757917761 -1829271314 881548992 -515064502 -61550646 551114896 1517881001 -502337188 505927784 1666059892 -1519547529 1482440824 -361654067 -804206616 -1624183991 2091053799 835471722 516995258 -1698995378
REM
CELL 1.54180   50.00000   50.00000   50.00000   90.00000   90.00000   90.00000
LATT -1
SFAC C  
C      1  0.4387110000000  0.5013550000000  0.5153200000000 1.0
C      1  0.5072990000000  0.4117830000000  0.5444890000000 1.0
C      1  0.4504960000000  0.4397030000000  0.5098990000000 1.0
C      1  0.4899590000000  0.4483110000000  0.4341760000000 1.0
C      1  0.4936390000000  0.4725640000000  0.3866400000000 1.0
C      1  0.5231230000000  0.4563320000000  0.5776350000000 1.0
C      1  0.5685180000000  0.4751900000000  0.4495660000000 1.0
C      1  0.4484740000000  0.4611020000000  0.6414370000000 1.0
C      1  0.4908330000000  0.5616110000000  0.5594990000000 1.0
C      1  0.4757500000000  0.5350040000000  0.4713020000000 1.0
C      1  0.4957630000000  0.5667410000000  0.5041850000000 1.0
C      1  0.4662900000000  0.5037240000000  0.6226180000000 1.0
C      1  0.4104120000000  0.4915690000000  0.5081170000000 1.0
C      1  0.4525440000000  0.3882630000000  0.4943020000000 1.0
C      1  0.5049900000000  0.4614540000000  0.6029680000000 1.0
C      1  0.5174470000000  0.4875970000000  0.5383030000000 1.0
C      1  0.4564840000000  0.4442170000000  0.4324770000000 1.0
C      1  0.5428950000000  0.4259350000000  0.5274190000000 1.0
C      1  0.5600960000000  0.5203650000000  0.4129870000000 1.0
C      1  0.4455560000000  0.5178760000000  0.5392800000000 1.0
C      1  0.5731280000000  0.5122780000000  0.5064480000000 1.0
C      1  0.4923320000000  0.4006480000000  0.5199850000000 1.0
C      1  0.4579370000000  0.5922150000000  0.4482060000000 1.0
C      1  0.4766030000000  0.5639900000000  0.4827130000000 1.0
C      1  0.5477000000000  0.5233850000000  0.5470460000000 1.0
C      1  0.5580810000000  0.5010400000000  0.4593220000000 1.0
C      1  0.5771800000000  0.4657960000000  0.4975590000000 1.0
C      1  0.3979370000000  0.5082450000000  0.4501200000000 1.0
C      1  0.4629500000000  0.4902350000000  0.4978900000000 1.0
C      1  0.4494230000000  0.4203510000000  0.5318120000000 1.0
C      1  0.5566190000000  0.4311960000000  0.4855650000000 1.0
C      1  0.4505260000000  0.4930930000000  0.4269760000000 1.0
C      1  0.5527200000000  0.4584170000000  0.4307960000000 1.0
C      1  0.4885950000000  0.5445020000000  0.5212170000000 1.0
C      1  0.5835930000000  0.5832610000000  0.5024880000000 1.0
C      1  0.4364600000000  0.5875650000000  0.4689570000000 1.0
C      1  0.5063420000000  0.4613770000000  0.4101710000000 1.0
C      1  0.5313960000000  0.4084130000000  0.4612170000000 1.0
C      1  0.4068950000000  0.4742020000000  0.4424010000000 1.0
C      1  0.5560040000000  0.5718330000000  0.4300380000000 1.0
C      1  0.4527430000000  0.4894030000000  0.6435880000000 1.0
C      1  0.5327590000000  0.5785240000000  0.4881800000000 1.0
C      1  0.4462120000000  0.5043270000000  0.4526870000000 1.0
C      1  0.3898210000000  0.5116670000000  0.5050260000000 1.0
C      1  0.4581900000000  0.5403740000000  0.5244170000000 1.0
C      1  0.4693240000000  0.4634660000000  0.5147320000000 1.0
C      1  0.5338350000000  0.4724490000000  0.4141580000000 1.0
C      1  0.5838440000000  0.5853290000000  0.4732310000000 1.0
C      1  0.5088640000000  0.5094570000000  0.5579970000000 1.0
C      1  0.4622000000000  0.4718290000000  0.5433960000000 1.0
C      1  0.5077840000000  0.5232720000000  0.5183630000000 1.0
C      1  0.5870090000000  0.4486680000000  0.5195010000000 1.0
C      1  0.4391850000000  0.5662060000000  0.5571430000000 1.0
C      1  0.4888280000000  0.4051080000000  0.4652780000000 1.0
C      1  0.5824910000000  0.4903520000000  0.5490590000000 1.0
C      1  0.5233820000000  0.4341850000000  0.4798710000000 1.0
C      1  0.5283750000000  0.4871590000000  0.5086740000000 1.0
C      1  0.5862120000000  0.4605800000000  0.5467030000000 1.0
C      1  0.5510720000000  0.4252080000000  0.4358210000000 1.0
C      1  0.4366150000000  0.4675230000000  0.4262740000000 1.0
C      1  0.5278560000000  0.5047680000000  0.4597790000000 1.0
C      1  0.5125970000000  0.4860730000000  0.6170810000000 1.0
C      1  0.4193950000000  0.4776170000000  0.4842650000000 1.0
C      1  0.4955630000000  0.5324430000000  0.4222760000000 1.0
C      1  0.6218430000000  0.5085650000000  0.5205290000000 1.0
C      1  0.4039180000000  0.4592740000000  0.4684570000000 1.0
C      1  0.5067260000000  0.5614430000000  0.4197010000000 1.0
C      1  0.4299760000000  0.5383580000000  0.5554580000000 1.0
C      1  0.4752740000000  0.4908510000000  0.5979120000000 1.0
C      1  0.4825940000000  0.5802110000000  0.4593150000000 1.0
C      1  0.5331330000000  0.5721100000000  0.4114310000000 1.0
C      1  0.5281440000000  0.5619850000000  0.4652520000000 1.0
C      1  0.4658820000000  0.5756570000000  0.5479140000000 1.0
C      1  0.5738050000000  0.4302580000000  0.4612550000000 1.0
C      1  0.4812650000000  0.5202860000000  0.3975900000000 1.0
C      1  0.3879040000000  0.5240040000000  0.4758130000000 1.0
C      1  0.5160820000000  0.5124480000000  0.4326140000000 1.0
C      1  0.4098330000000  0.5545430000000  0.5094410000000 1.0
C      1  0.3993930000000  0.5533530000000  0.4815980000000 1.0
C      1  0.4748680000000  0.4580730000000  0.5971210000000 1.0
C      1  0.3953040000000  0.5337940000000  0.5241380000000 1.0
C      1  0.4389350000000  0.5593000000000  0.5122200000000 1.0
C      1  0.4155050000000  0.4333000000000  0.4725210000000 1.0
C      1  0.4892270000000  0.5386310000000  0.5809530000000 1.0
C      1  0.4119370000000  0.5719280000000  0.4625150000000 1.0
C      1  0.5192980000000  0.5318270000000  0.5928380000000 1.0
C      1  0.4987280000000  0.4192350000000  0.4372330000000 1.0
C      1  0.4621160000000  0.4990750000000  0.5530970000000 1.0
C      1  0.4587490000000  0.4057070000000  0.4691950000000 1.0
C      1  0.5740300000000  0.5529640000000  0.5609990000000 1.0
C      1  0.4516270000000  0.5796710000000  0.4958480000000 1.0
C      1  0.4426000000000  0.4292680000000  0.4830050000000 1.0
C      1  0.4729840000000  0.5347920000000  0.4419600000000 1.0
C      1  0.5829030000000  0.4591700000000  0.4686120000000 1.0
C      1  0.4470860000000  0.4180650000000  0.4427850000000 1.0
C      1  0.5363520000000  0.5264860000000  0.5208650000000 1.0
C      1  0.5560370000000  0.4983140000000  0.5570950000000 1.0
C      1  0.5468060000000  0.4295400000000  0.5558310000000 1.0
C      1  0.5598700000000  0.5917140000000  0.4564160000000 1.0
C      1  0.4682520000000  0.5931170000000  0.5217950000000 1.0
C      1  0.5475640000000  0.5416760000000  0.4580200000000 1.0
C      1  0.5053380000000  0.4547800000000  0.4629640000000 1.0
C      1  0.4630640000000  0.3964930000000  0.5209990000000 1.0
C      1  0.4947060000000  0.5009050000000  0.3806620000000 1.0
C      1  0.4451390000000  0.4858420000000  0.4750800000000 1.0
C      1  0.5399920000000  0.4856460000000  0.5787140000000 1.0
C      1  0.5369440000000  0.6075880000000  0.4792560000000 1.0
C      1  0.5503730000000  0.5715500000000  0.5610550000000 1.0
C      1  0.5670950000000  0.4274630000000  0.5119400000000 1.0
C      1  0.5043960000000  0.3987420000000  0.4918920000000 1.0
C      1  0.5894970000000  0.5444900000000  0.5367080000000 1.0
C      1  0.5667300000000  0.5427030000000  0.4340310000000 1.0
C      1  0.4985450000000  0.5949510000000  0.5143260000000 1.0
C      1  0.4519060000000  0.4290340000000  0.5596820000000 1.0
C      1  0.5939860000000  0.5139800000000  0.5289910000000 1.0
C      1  0.5267440000000  0.5368470000000  0.5622160000000 1.0
C      1  0.5237280000000  0.4140790000000  0.4205190000000 1.0
C      1  0.4811200000000  0.5075380000000  0.5733880000000 1.0
C      1  0.4550210000000  0.5100250000000  0.4042110000000 1.0
C      1  0.5355790000000  0.5027780000000  0.4137040000000 1.0
C      1  0.5754930000000  0.5172680000000  0.4776410000000 1.0
C      1  0.5176970000000  0.4341990000000  0.5105280000000 1.0
C      1  0.6000160000000  0.5648590000000  0.5181350000000 1.0
C      1  0.5218580000000  0.5652000000000  0.5472350000000 1.0
C      1  0.4241190000000  0.5220870000000  0.4504560000000 1.0
C      1  0.5127720000000  0.6149770000000  0.4978870000000 1.0
C      1  0.4583310000000  0.4461750000000  0.6187600000000 1.0
C      1  0.5357040000000  0.5682480000000  0.5169660000000 1.0
C      1  0.4987300000000  0.4548320000000  0.5205050000000 1.0
C      1  0.5285200000000  0.5040390000000  0.6004180000000 1.0
C      1  0.5699910000000  0.4443280000000  0.5653420000000 1.0
C      1  0.5067060000000  0.5710790000000  0.4469320000000 1.0
C      1  0.4752280000000  0.4427600000000  0.5707420000000 1.0
C      1  0.5586930000000  0.4875610000000  0.5056750000000 1.0
C      1  0.5123720000000  0.4990090000000  0.4844000000000 1.0
C      1  0.5953300000000  0.5427240000000  0.4418520000000 1.0
C      1  0.4841580000000  0.5089910000000  0.4867510000000 1.0
C      1  0.5019720000000  0.4385100000000  0.5590460000000 1.0
END
