TITL C-862134-6730-489 -229557.255929155 125000 -892.960592786267 0 0 160 (C1) n - 1
REM
REM in /home/nfs/bkarasulu/CARBON/AIRSS/Generating-Clusters/TERSOFF/Higher-Symm/FIRE-HFTN
REM
REM
REM
REM
REM
REM ./C.cell (b20cbc046b6831c77cfcea5457e17084)
REM AIRSS Version 0.9.1 bugfix July 2018 build 013d7b7c2542+ Fri, 06 Jul 2018 19:26:36 +0100
REM compiler GCC version 9.2.1 20190827 (Red Hat 9.2.1-1)
REM options -cpp -mtune=generic -march=x86-64 -g -O0 -fpre-include=/usr/include/finclude/math-vector-fortran.h
REM seed 811380490 280805789 -16902598 -1093220800 1660352743 1665012245 -807373481 1630100172 987210770 1695315984 -1164907169 1127722684 1287022334 2132995344 -1869911344 -2033577617 1604674087 -1663037038 311873417 1828919674 -235838098 -563638461 1492588654 -852026905 1492140909 1762658650 1526367844 646515834 1552312582 1620282921 1223910975 1819374772 805014816
REM
CELL 1.54180   50.00000   50.00000   50.00000   90.00000   90.00000   90.00000
LATT -1
SFAC C  
C      1  0.5730390000000  0.4396420000000  0.4111790000000 1.0
C      1  0.4404940000000  0.4120840000000  0.5719860000000 1.0
C      1  0.4105340000000  0.5707890000000  0.4411490000000 1.0
C      1  0.4318640000000  0.4427530000000  0.5889170000000 1.0
C      1  0.4276850000000  0.5608590000000  0.4108760000000 1.0
C      1  0.5704870000000  0.5581720000000  0.5885920000000 1.0
C      1  0.5601440000000  0.4108890000000  0.4290820000000 1.0
C      1  0.5600220000000  0.5878510000000  0.5706720000000 1.0
C      1  0.4395830000000  0.5892630000000  0.4299110000000 1.0
C      1  0.5892890000000  0.5695110000000  0.5597810000000 1.0
C      1  0.5889160000000  0.4290460000000  0.4419000000000 1.0
C      1  0.4118120000000  0.4311910000000  0.5610150000000 1.0
C      1  0.5202220000000  0.4932480000000  0.3821470000000 1.0
C      1  0.4961560000000  0.3829070000000  0.5186580000000 1.0
C      1  0.3809550000000  0.5195690000000  0.4948460000000 1.0
C      1  0.4825020000000  0.4949550000000  0.6170950000000 1.0
C      1  0.4811000000000  0.5085130000000  0.3814750000000 1.0
C      1  0.5226470000000  0.5069420000000  0.6200070000000 1.0
C      1  0.5086470000000  0.3824490000000  0.4785620000000 1.0
C      1  0.5065820000000  0.6183950000000  0.5190630000000 1.0
C      1  0.4923460000000  0.6180970000000  0.4795530000000 1.0
C      1  0.6200290000000  0.5197030000000  0.5076510000000 1.0
C      1  0.6180900000000  0.4807380000000  0.4921000000000 1.0
C      1  0.3807540000000  0.4791860000000  0.5063780000000 1.0
C      1  0.5438440000000  0.5834400000000  0.4328360000000 1.0
C      1  0.5869540000000  0.4325640000000  0.5430800000000 1.0
C      1  0.4294660000000  0.5407790000000  0.5875170000000 1.0
C      1  0.4565640000000  0.5865610000000  0.5693630000000 1.0
C      1  0.4564730000000  0.4187300000000  0.4331800000000 1.0
C      1  0.5452250000000  0.4141150000000  0.5711870000000 1.0
C      1  0.4154430000000  0.4301700000000  0.4572260000000 1.0
C      1  0.4152470000000  0.5687990000000  0.5438790000000 1.0
C      1  0.5848820000000  0.5680690000000  0.4564150000000 1.0
C      1  0.5682430000000  0.5448560000000  0.4171310000000 1.0
C      1  0.5680480000000  0.4558130000000  0.5821170000000 1.0
C      1  0.4321280000000  0.4561900000000  0.4132920000000 1.0
C      1  0.5381550000000  0.4245490000000  0.4469200000000 1.0
C      1  0.4244470000000  0.4487340000000  0.5381700000000 1.0
C      1  0.4467590000000  0.5385910000000  0.4222320000000 1.0
C      1  0.4632440000000  0.4213240000000  0.5522710000000 1.0
C      1  0.4614890000000  0.5761600000000  0.4483010000000 1.0
C      1  0.5378120000000  0.5769450000000  0.5511520000000 1.0
C      1  0.5759800000000  0.4492720000000  0.4622880000000 1.0
C      1  0.5766610000000  0.5507670000000  0.5378940000000 1.0
C      1  0.4220740000000  0.5506960000000  0.4625340000000 1.0
C      1  0.5507930000000  0.5371140000000  0.5759150000000 1.0
C      1  0.5537390000000  0.4621910000000  0.4215470000000 1.0
C      1  0.4520860000000  0.4629140000000  0.5754820000000 1.0
C      1  0.4935270000000  0.5571730000000  0.5608270000000 1.0
C      1  0.5563780000000  0.5568300000000  0.4935310000000 1.0
C      1  0.5565690000000  0.4933510000000  0.5535240000000 1.0
C      1  0.5054590000000  0.5546740000000  0.4400370000000 1.0
C      1  0.5063420000000  0.4416330000000  0.5640660000000 1.0
C      1  0.4947210000000  0.4470230000000  0.4421810000000 1.0
C      1  0.4437450000000  0.5605820000000  0.5054540000000 1.0
C      1  0.4442030000000  0.4410960000000  0.4942620000000 1.0
C      1  0.5556040000000  0.4395920000000  0.5069020000000 1.0
C      1  0.4384520000000  0.4941690000000  0.4414020000000 1.0
C      1  0.4400850000000  0.5066270000000  0.5551390000000 1.0
C      1  0.5615700000000  0.5049380000000  0.4437540000000 1.0
C      1  0.3794510000000  0.5185530000000  0.5409060000000 1.0
C      1  0.5183510000000  0.5451080000000  0.3819800000000 1.0
C      1  0.5421900000000  0.3812180000000  0.5187900000000 1.0
C      1  0.6188290000000  0.5172460000000  0.4548990000000 1.0
C      1  0.6183150000000  0.4827350000000  0.5447120000000 1.0
C      1  0.3796670000000  0.4802560000000  0.4604060000000 1.0
C      1  0.4807910000000  0.5387190000000  0.6203290000000 1.0
C      1  0.4837790000000  0.4556780000000  0.3826140000000 1.0
C      1  0.5186790000000  0.4574210000000  0.6201670000000 1.0
C      1  0.4581090000000  0.3817500000000  0.4827700000000 1.0
C      1  0.4565730000000  0.6190270000000  0.5177440000000 1.0
C      1  0.5438920000000  0.6179930000000  0.4824800000000 1.0
C      1  0.5988670000000  0.5393870000000  0.4623520000000 1.0
C      1  0.5413250000000  0.4611000000000  0.5990020000000 1.0
C      1  0.4611690000000  0.5976240000000  0.5396600000000 1.0
C      1  0.4024360000000  0.5399750000000  0.5405970000000 1.0
C      1  0.4028480000000  0.4590250000000  0.4596690000000 1.0
C      1  0.5970050000000  0.4625080000000  0.5370350000000 1.0
C      1  0.4619520000000  0.4634450000000  0.4025560000000 1.0
C      1  0.4595900000000  0.5403890000000  0.5969510000000 1.0
C      1  0.5402870000000  0.5382390000000  0.4025980000000 1.0
C      1  0.5379680000000  0.5963020000000  0.4614630000000 1.0
C      1  0.5415200000000  0.4027240000000  0.5418070000000 1.0
C      1  0.4627280000000  0.4032270000000  0.4608520000000 1.0
C      1  0.5333410000000  0.4925790000000  0.5363970000000 1.0
C      1  0.4891780000000  0.5396710000000  0.5385420000000 1.0
C      1  0.5411330000000  0.5328680000000  0.4892380000000 1.0
C      1  0.4620610000000  0.4895620000000  0.4570980000000 1.0
C      1  0.4577140000000  0.5123210000000  0.5334940000000 1.0
C      1  0.5371310000000  0.5037540000000  0.4592380000000 1.0
C      1  0.5078200000000  0.5397270000000  0.4646000000000 1.0
C      1  0.5073120000000  0.4601670000000  0.5423790000000 1.0
C      1  0.4945210000000  0.4610360000000  0.4676760000000 1.0
C      1  0.4649900000000  0.5415750000000  0.5042610000000 1.0
C      1  0.4598900000000  0.4649850000000  0.4910770000000 1.0
C      1  0.5346760000000  0.4588560000000  0.5105500000000 1.0
C      1  0.5522670000000  0.5082850000000  0.5780400000000 1.0
C      1  0.5091190000000  0.5804040000000  0.5537400000000 1.0
C      1  0.5801050000000  0.5523760000000  0.5092800000000 1.0
C      1  0.4446080000000  0.5100900000000  0.4180360000000 1.0
C      1  0.4507940000000  0.4917380000000  0.5771010000000 1.0
C      1  0.5567900000000  0.4908760000000  0.4185720000000 1.0
C      1  0.4903030000000  0.5789990000000  0.4458400000000 1.0
C      1  0.4919390000000  0.4177650000000  0.5563630000000 1.0
C      1  0.5094200000000  0.4219300000000  0.4453970000000 1.0
C      1  0.4198970000000  0.5529150000000  0.4914540000000 1.0
C      1  0.4204070000000  0.4461330000000  0.5095190000000 1.0
C      1  0.5781690000000  0.4485030000000  0.4910670000000 1.0
C      1  0.5058050000000  0.5982570000000  0.4620740000000 1.0
C      1  0.5978110000000  0.4641470000000  0.5058270000000 1.0
C      1  0.4648400000000  0.5075470000000  0.5971380000000 1.0
C      1  0.4935320000000  0.5994950000000  0.5377120000000 1.0
C      1  0.4946010000000  0.4017930000000  0.4609870000000 1.0
C      1  0.5084600000000  0.4000710000000  0.5394030000000 1.0
C      1  0.4005420000000  0.4613150000000  0.4935830000000 1.0
C      1  0.4006760000000  0.5375060000000  0.5075790000000 1.0
C      1  0.6007070000000  0.5378290000000  0.4942680000000 1.0
C      1  0.5397610000000  0.5065240000000  0.4001700000000 1.0
C      1  0.5393300000000  0.4932540000000  0.5996490000000 1.0
C      1  0.4622340000000  0.4950100000000  0.3998990000000 1.0
C      1  0.4212820000000  0.5271550000000  0.5623350000000 1.0
C      1  0.5294050000000  0.5590410000000  0.4244910000000 1.0
C      1  0.5623310000000  0.4228210000000  0.5293560000000 1.0
C      1  0.5760290000000  0.5298500000000  0.4414220000000 1.0
C      1  0.5731630000000  0.4698790000000  0.5566660000000 1.0
C      1  0.4214160000000  0.4712360000000  0.4368890000000 1.0
C      1  0.4712110000000  0.5622390000000  0.5782770000000 1.0
C      1  0.4701390000000  0.4442500000000  0.4269190000000 1.0
C      1  0.5298780000000  0.4378230000000  0.5799620000000 1.0
C      1  0.4403360000000  0.4237000000000  0.4716320000000 1.0
C      1  0.4398780000000  0.5762760000000  0.5292720000000 1.0
C      1  0.5599350000000  0.5747070000000  0.4710770000000 1.0
C      1  0.6168200000000  0.4893500000000  0.4640250000000 1.0
C      1  0.4909330000000  0.4667680000000  0.6167910000000 1.0
C      1  0.4646730000000  0.6160260000000  0.4894890000000 1.0
C      1  0.3829340000000  0.4900980000000  0.5336760000000 1.0
C      1  0.3831640000000  0.5086590000000  0.4675990000000 1.0
C      1  0.6185130000000  0.5109030000000  0.5357950000000 1.0
C      1  0.5117650000000  0.4650500000000  0.3839870000000 1.0
C      1  0.5096690000000  0.5332450000000  0.6164520000000 1.0
C      1  0.4902620000000  0.5363640000000  0.3839600000000 1.0
C      1  0.5347240000000  0.6170560000000  0.5104950000000 1.0
C      1  0.5352440000000  0.3866330000000  0.4905490000000 1.0
C      1  0.4678320000000  0.3837910000000  0.5105760000000 1.0
C      1  0.5478130000000  0.5070260000000  0.4997200000000 1.0
C      1  0.5071120000000  0.5021240000000  0.5442060000000 1.0
C      1  0.5068360000000  0.5373040000000  0.5157940000000 1.0
C      1  0.4642400000000  0.5167200000000  0.4890600000000 1.0
C      1  0.4506980000000  0.4919340000000  0.4974590000000 1.0
C      1  0.5320190000000  0.4831660000000  0.4954870000000 1.0
C      1  0.4862170000000  0.5049440000000  0.4552610000000 1.0
C      1  0.4828930000000  0.4989110000000  0.5284330000000 1.0
C      1  0.5120650000000  0.4941500000000  0.4487210000000 1.0
C      1  0.5034930000000  0.5514190000000  0.4907200000000 1.0
C      1  0.4904890000000  0.4586870000000  0.5191290000000 1.0
C      1  0.4980490000000  0.4475920000000  0.4933710000000 1.0
C      1  0.4498300000000  0.5484850000000  0.4504380000000 1.0
C      1  0.5491260000000  0.4521120000000  0.4494750000000 1.0
C      1  0.4529550000000  0.4497060000000  0.5483450000000 1.0
C      1  0.5486090000000  0.5489280000000  0.5484260000000 1.0
END
