TITL C-862131-2149-758 2.16343090859701 125000 -966.019391702911 0 0 172 (C1) n - 1
REM
REM in /home/nfs/bkarasulu/CARBON/AIRSS/Generating-Clusters/TERSOFF/Higher-Symm/FIRE-HFTN
REM
REM
REM
REM
REM
REM ./C.cell (b20cbc046b6831c77cfcea5457e17084)
REM AIRSS Version 0.9.1 bugfix July 2018 build 013d7b7c2542+ Fri, 06 Jul 2018 19:26:36 +0100
REM compiler GCC version 9.2.1 20190827 (Red Hat 9.2.1-1)
REM options -cpp -mtune=generic -march=x86-64 -g -O0 -fpre-include=/usr/include/finclude/math-vector-fortran.h
REM seed 566420643 488821443 439412091 -2020729284 -1711204222 -1923623595 92279548 -1945577180 1262398983 -2126254511 1810981769 -796823496 -446219764 -748113891 -1741690611 -2123002024 -422004334 1015069368 29593170 1737211099 1094418378 1655860489 -165181984 -171527323 1674763463 -111161706 -2144171511 2072417288 2015103187 939422986 -1944824701 799617839 499331026
REM
CELL 1.54180   50.00000   50.00000   50.00000   90.00000   90.00000   90.00000
LATT -1
SFAC C  
C      1  0.5686940000000  0.5598970000000  0.5283500000000 1.0
C      1  0.4643670000000  0.5839440000000  0.5273840000000 1.0
C      1  0.4089150000000  0.4916350000000  0.5277820000000 1.0
C      1  0.4794500000000  0.4099640000000  0.5286960000000 1.0
C      1  0.5774420000000  0.4529780000000  0.5288600000000 1.0
C      1  0.5691330000000  0.5598530000000  0.4710710000000 1.0
C      1  0.4652510000000  0.5833300000000  0.4703940000000 1.0
C      1  0.4097310000000  0.4914430000000  0.4704420000000 1.0
C      1  0.4798560000000  0.4109220000000  0.4712290000000 1.0
C      1  0.5773110000000  0.4534700000000  0.4719390000000 1.0
C      1  0.4075700000000  0.4959810000000  0.5570540000000 1.0
C      1  0.4746740000000  0.4092630000000  0.5580380000000 1.0
C      1  0.5799410000000  0.4453690000000  0.5572730000000 1.0
C      1  0.5723810000000  0.5573820000000  0.5578000000000 1.0
C      1  0.4678820000000  0.5866020000000  0.5566660000000 1.0
C      1  0.4079590000000  0.4958370000000  0.4410140000000 1.0
C      1  0.4755340000000  0.4109680000000  0.4417640000000 1.0
C      1  0.5770270000000  0.4488540000000  0.4428840000000 1.0
C      1  0.5734950000000  0.5580590000000  0.4418840000000 1.0
C      1  0.4678560000000  0.5903090000000  0.4418310000000 1.0
C      1  0.4752420000000  0.5553260000000  0.5289940000000 1.0
C      1  0.4397030000000  0.4936790000000  0.5301080000000 1.0
C      1  0.4872070000000  0.4397150000000  0.5319750000000 1.0
C      1  0.5524770000000  0.4705270000000  0.5320110000000 1.0
C      1  0.5447740000000  0.5405220000000  0.5310140000000 1.0
C      1  0.4752780000000  0.5545350000000  0.4674970000000 1.0
C      1  0.4404300000000  0.4933030000000  0.4675290000000 1.0
C      1  0.4877280000000  0.4408330000000  0.4686580000000 1.0
C      1  0.5518560000000  0.4706820000000  0.4702660000000 1.0
C      1  0.5451500000000  0.5407670000000  0.4676040000000 1.0
C      1  0.4765720000000  0.4492350000000  0.6101890000000 1.0
C      1  0.5423470000000  0.4608440000000  0.6124340000000 1.0
C      1  0.5498340000000  0.5270820000000  0.6100440000000 1.0
C      1  0.4897890000000  0.5552190000000  0.6089210000000 1.0
C      1  0.4446730000000  0.5070230000000  0.6088250000000 1.0
C      1  0.4762280000000  0.4492860000000  0.3894520000000 1.0
C      1  0.5410970000000  0.4616840000000  0.3900620000000 1.0
C      1  0.5492150000000  0.5273940000000  0.3891220000000 1.0
C      1  0.4893210000000  0.5563230000000  0.3868750000000 1.0
C      1  0.4440860000000  0.5073390000000  0.3887940000000 1.0
C      1  0.5284410000000  0.4555330000000  0.4854160000000 1.0
C      1  0.5520670000000  0.5143890000000  0.4812260000000 1.0
C      1  0.5031930000000  0.5523410000000  0.4813330000000 1.0
C      1  0.4488880000000  0.5190310000000  0.4807460000000 1.0
C      1  0.4654550000000  0.4567350000000  0.4824840000000 1.0
C      1  0.5284120000000  0.4560590000000  0.5189280000000 1.0
C      1  0.5528530000000  0.5143260000000  0.5174470000000 1.0
C      1  0.5036130000000  0.5535960000000  0.5144080000000 1.0
C      1  0.4481900000000  0.5201100000000  0.5167870000000 1.0
C      1  0.4658590000000  0.4568660000000  0.5185960000000 1.0
C      1  0.5046740000000  0.5256760000000  0.5250580000000 1.0
C      1  0.4781380000000  0.5131570000000  0.5203340000000 1.0
C      1  0.4832650000000  0.4825760000000  0.5179350000000 1.0
C      1  0.5110340000000  0.4802990000000  0.5290950000000 1.0
C      1  0.5236000000000  0.5049920000000  0.5158230000000 1.0
C      1  0.5021060000000  0.5222060000000  0.4734370000000 1.0
C      1  0.4775400000000  0.5115950000000  0.4879770000000 1.0
C      1  0.4833640000000  0.4810300000000  0.4865510000000 1.0
C      1  0.5111530000000  0.4781140000000  0.4774020000000 1.0
C      1  0.5230300000000  0.5040550000000  0.4851430000000 1.0
C      1  0.5516410000000  0.5555490000000  0.6016450000000 1.0
C      1  0.4633150000000  0.5658530000000  0.6007160000000 1.0
C      1  0.4264130000000  0.4851640000000  0.6007310000000 1.0
C      1  0.4918130000000  0.4249190000000  0.6027380000000 1.0
C      1  0.5699420000000  0.4683000000000  0.6037640000000 1.0
C      1  0.5510440000000  0.5559530000000  0.3968610000000 1.0
C      1  0.4625800000000  0.5665560000000  0.3954150000000 1.0
C      1  0.4259100000000  0.4852940000000  0.3971400000000 1.0
C      1  0.4913810000000  0.4251670000000  0.3978380000000 1.0
C      1  0.5686700000000  0.4688320000000  0.3982390000000 1.0
C      1  0.5409820000000  0.5159860000000  0.5705360000000 1.0
C      1  0.4969530000000  0.5437250000000  0.5691810000000 1.0
C      1  0.4574850000000  0.5098360000000  0.5689390000000 1.0
C      1  0.4782420000000  0.4612710000000  0.5700020000000 1.0
C      1  0.5323340000000  0.4628590000000  0.5717650000000 1.0
C      1  0.5404860000000  0.5181460000000  0.4291370000000 1.0
C      1  0.4961570000000  0.5479640000000  0.4274020000000 1.0
C      1  0.4576490000000  0.5110300000000  0.4283510000000 1.0
C      1  0.4769960000000  0.4628080000000  0.4291880000000 1.0
C      1  0.5288100000000  0.4669370000000  0.4298680000000 1.0
C      1  0.5214950000000  0.5808660000000  0.4699720000000 1.0
C      1  0.4285820000000  0.5458240000000  0.4696960000000 1.0
C      1  0.4342530000000  0.4455720000000  0.4704990000000 1.0
C      1  0.5305930000000  0.4222490000000  0.4717760000000 1.0
C      1  0.5843370000000  0.5050020000000  0.4711760000000 1.0
C      1  0.5213460000000  0.5816670000000  0.5278540000000 1.0
C      1  0.4280500000000  0.5459860000000  0.5278680000000 1.0
C      1  0.4346350000000  0.4459210000000  0.5287600000000 1.0
C      1  0.5303290000000  0.4220440000000  0.5296830000000 1.0
C      1  0.5850100000000  0.5047930000000  0.5293670000000 1.0
C      1  0.5278400000000  0.5884750000000  0.5571030000000 1.0
C      1  0.4240390000000  0.5534530000000  0.5571090000000 1.0
C      1  0.4266930000000  0.4437330000000  0.5579090000000 1.0
C      1  0.5311830000000  0.4125220000000  0.5586520000000 1.0
C      1  0.5936000000000  0.5011460000000  0.5585700000000 1.0
C      1  0.5265230000000  0.5888930000000  0.4409650000000 1.0
C      1  0.4238680000000  0.5538310000000  0.4404970000000 1.0
C      1  0.4255550000000  0.4441990000000  0.4411610000000 1.0
C      1  0.5299630000000  0.4127770000000  0.4425350000000 1.0
C      1  0.5922290000000  0.5022350000000  0.4419870000000 1.0
C      1  0.4922220000000  0.5927370000000  0.4844140000000 1.0
C      1  0.4071180000000  0.5207170000000  0.4841080000000 1.0
C      1  0.4513150000000  0.4173390000000  0.4849270000000 1.0
C      1  0.5612230000000  0.4293520000000  0.4856970000000 1.0
C      1  0.5871060000000  0.5371130000000  0.4852850000000 1.0
C      1  0.4919430000000  0.5938870000000  0.5136840000000 1.0
C      1  0.4063870000000  0.5209550000000  0.5136520000000 1.0
C      1  0.4513540000000  0.4177230000000  0.5144360000000 1.0
C      1  0.5608370000000  0.4297100000000  0.5149230000000 1.0
C      1  0.5876390000000  0.5375770000000  0.5147110000000 1.0
C      1  0.5202000000000  0.4802290000000  0.5992670000000 1.0
C      1  0.5245800000000  0.5119890000000  0.5982380000000 1.0
C      1  0.4960690000000  0.5263670000000  0.5972920000000 1.0
C      1  0.4738870000000  0.5038310000000  0.5970610000000 1.0
C      1  0.4886610000000  0.4754910000000  0.5977860000000 1.0
C      1  0.5192710000000  0.4814420000000  0.4016740000000 1.0
C      1  0.5239740000000  0.5130290000000  0.4011940000000 1.0
C      1  0.4956710000000  0.5276740000000  0.3998540000000 1.0
C      1  0.4734130000000  0.5046740000000  0.4005600000000 1.0
C      1  0.4880250000000  0.4762840000000  0.4012300000000 1.0
C      1  0.4146890000000  0.4640750000000  0.5139320000000 1.0
C      1  0.5076330000000  0.4073280000000  0.5147750000000 1.0
C      1  0.5899840000000  0.4783620000000  0.5148140000000 1.0
C      1  0.5482710000000  0.5788540000000  0.5137310000000 1.0
C      1  0.4394590000000  0.5705980000000  0.5131990000000 1.0
C      1  0.4147280000000  0.4640270000000  0.4849330000000 1.0
C      1  0.5075950000000  0.4080440000000  0.4858090000000 1.0
C      1  0.5900530000000  0.4785500000000  0.4858220000000 1.0
C      1  0.5484720000000  0.5789300000000  0.4847880000000 1.0
C      1  0.4401020000000  0.5702290000000  0.4842360000000 1.0
C      1  0.4546450000000  0.4832930000000  0.4414120000000 1.0
C      1  0.5023320000000  0.4518410000000  0.4425760000000 1.0
C      1  0.5463810000000  0.4883830000000  0.4432500000000 1.0
C      1  0.5262190000000  0.5426840000000  0.4415980000000 1.0
C      1  0.4695480000000  0.5391840000000  0.4404010000000 1.0
C      1  0.4554350000000  0.4817370000000  0.5561510000000 1.0
C      1  0.5043820000000  0.4495910000000  0.5576450000000 1.0
C      1  0.5482040000000  0.4862240000000  0.5590230000000 1.0
C      1  0.5273630000000  0.5402290000000  0.5572420000000 1.0
C      1  0.4698540000000  0.5377080000000  0.5557280000000 1.0
C      1  0.4643920000000  0.4341780000000  0.4287130000000 1.0
C      1  0.5518880000000  0.4460390000000  0.4292460000000 1.0
C      1  0.5678310000000  0.5334710000000  0.4281000000000 1.0
C      1  0.4887480000000  0.5780020000000  0.4261880000000 1.0
C      1  0.4263810000000  0.5138370000000  0.4279290000000 1.0
C      1  0.4649130000000  0.4328390000000  0.5714850000000 1.0
C      1  0.5559800000000  0.4431400000000  0.5731920000000 1.0
C      1  0.5679770000000  0.5320380000000  0.5709330000000 1.0
C      1  0.4904010000000  0.5742710000000  0.5697610000000 1.0
C      1  0.4265590000000  0.5134770000000  0.5697270000000 1.0
C      1  0.4473450000000  0.4493740000000  0.3934980000000 1.0
C      1  0.5322080000000  0.4342330000000  0.3941080000000 1.0
C      1  0.5724640000000  0.5103580000000  0.3933840000000 1.0
C      1  0.5128620000000  0.5731900000000  0.3921610000000 1.0
C      1  0.4351410000000  0.5348870000000  0.3926870000000 1.0
C      1  0.4477390000000  0.4493820000000  0.6060200000000 1.0
C      1  0.5333720000000  0.4333030000000  0.6071720000000 1.0
C      1  0.5732950000000  0.5100800000000  0.6063070000000 1.0
C      1  0.5131990000000  0.5721150000000  0.6049340000000 1.0
C      1  0.4357720000000  0.5344440000000  0.6048950000000 1.0
C      1  0.5144650000000  0.4270490000000  0.4195400000000 1.0
C      1  0.5735440000000  0.4918170000000  0.4195930000000 1.0
C      1  0.5312120000000  0.5688020000000  0.4174230000000 1.0
C      1  0.4452070000000  0.5516610000000  0.4177600000000 1.0
C      1  0.4348860000000  0.4639240000000  0.4189390000000 1.0
C      1  0.5155430000000  0.4258890000000  0.5824020000000 1.0
C      1  0.5751110000000  0.4904710000000  0.5813690000000 1.0
C      1  0.5319760000000  0.5674690000000  0.5797270000000 1.0
C      1  0.4456450000000  0.5505950000000  0.5791690000000 1.0
C      1  0.4357110000000  0.4632950000000  0.5801010000000 1.0
C      1  0.4996710000000  0.5104130000000  0.4457130000000 1.0
C      1  0.5055690000000  0.4915600000000  0.5570220000000 1.0
END
