TITL C-862503-991-36 58608.2559571864 125000 -751.786741557716 0 0 130 (C2) n - 1
REM
REM in /home/nfs/bkarasulu/CARBON/AIRSS/Generating-Clusters/TERSOFF/Higher-Symm/FIRE-HFTN
REM
REM
REM
REM
REM
REM ./C.cell (b20cbc046b6831c77cfcea5457e17084)
REM AIRSS Version 0.9.1 bugfix July 2018 build 013d7b7c2542+ Fri, 06 Jul 2018 19:26:36 +0100
REM compiler GCC version 9.2.1 20190827 (Red Hat 9.2.1-1)
REM options -cpp -mtune=generic -march=x86-64 -g -O0 -fpre-include=/usr/include/finclude/math-vector-fortran.h
REM seed -1242496252 1853139367 492574677 -1667733263 579838023 814565660 1211134462 -943865839 931991300 241296773 -2112273484 -1675701034 143373180 1594711969 -1647469958 -1006717428 1849779324 1742117128 288234176 442293484 1930720327 -914147594 569042245 -1560702356 1936524629 -966526462 922117745 -1170318921 -1173292428 1145105641 -1980339905 1883750744 -1192664632
REM
CELL 1.54180   50.00000   50.00000   50.00000   90.00000   90.00000   90.00000
LATT -1
SFAC C  
C      1  0.4183890000000  0.5445760000000  0.4746230000000 1.0
C      1  0.5816110000000  0.5445760000000  0.5253770000000 1.0
C      1  0.5995340000000  0.4932760000000  0.5027920000000 1.0
C      1  0.4004660000000  0.4932760000000  0.4972080000000 1.0
C      1  0.4282940000000  0.4480650000000  0.5659820000000 1.0
C      1  0.5717060000000  0.4480650000000  0.4340180000000 1.0
C      1  0.5831200000000  0.5032120000000  0.5532650000000 1.0
C      1  0.4168800000000  0.5032120000000  0.4467350000000 1.0
C      1  0.5545760000000  0.5063450000000  0.5486480000000 1.0
C      1  0.4454240000000  0.5063450000000  0.4513520000000 1.0
C      1  0.5087470000000  0.3987570000000  0.4466080000000 1.0
C      1  0.4912530000000  0.3987570000000  0.5533920000000 1.0
C      1  0.5368120000000  0.5856170000000  0.5089450000000 1.0
C      1  0.4631880000000  0.5856170000000  0.4910550000000 1.0
C      1  0.4633100000000  0.5916290000000  0.4614890000000 1.0
C      1  0.5366900000000  0.5916290000000  0.5385110000000 1.0
C      1  0.5632310000000  0.5499290000000  0.4851540000000 1.0
C      1  0.4367690000000  0.5499290000000  0.5148460000000 1.0
C      1  0.4840500000000  0.5590200000000  0.5294620000000 1.0
C      1  0.5159500000000  0.5590200000000  0.4705380000000 1.0
C      1  0.5005250000000  0.5375770000000  0.5707950000000 1.0
C      1  0.4994750000000  0.5375770000000  0.4292060000000 1.0
C      1  0.4069250000000  0.4351330000000  0.5176210000000 1.0
C      1  0.5930750000000  0.4351330000000  0.4823790000000 1.0
C      1  0.4086810000000  0.5401120000000  0.5444810000000 1.0
C      1  0.5913190000000  0.5401120000000  0.4555190000000 1.0
C      1  0.5134670000000  0.4269460000000  0.4434030000000 1.0
C      1  0.4865320000000  0.4269460000000  0.5565970000000 1.0
C      1  0.5039060000000  0.4706980000000  0.4542810000000 1.0
C      1  0.4960940000000  0.4706980000000  0.5457190000000 1.0
C      1  0.4125030000000  0.4846160000000  0.4711340000000 1.0
C      1  0.5874970000000  0.4846160000000  0.5288660000000 1.0
C      1  0.5217430000000  0.5163000000000  0.4332930000000 1.0
C      1  0.4782570000000  0.5163000000000  0.5667070000000 1.0
C      1  0.5167830000000  0.4865340000000  0.5315620000000 1.0
C      1  0.4832170000000  0.4865340000000  0.4684380000000 1.0
C      1  0.6270440000000  0.5018190000000  0.4997040000000 1.0
C      1  0.3729560000000  0.5018190000000  0.5002960000000 1.0
C      1  0.5430250000000  0.4465140000000  0.4773550000000 1.0
C      1  0.4569750000000  0.4465140000000  0.5226450000000 1.0
C      1  0.5435900000000  0.4493800000000  0.5790820000000 1.0
C      1  0.4564090000000  0.4493800000000  0.4209180000000 1.0
C      1  0.4491920000000  0.4377590000000  0.5851560000000 1.0
C      1  0.5508080000000  0.4377590000000  0.4148440000000 1.0
C      1  0.4269250000000  0.5556000000000  0.4277580000000 1.0
C      1  0.5730750000000  0.5556000000000  0.5722420000000 1.0
C      1  0.4241120000000  0.4231850000000  0.4933220000000 1.0
C      1  0.5758880000000  0.4231850000000  0.5066780000000 1.0
C      1  0.5881690000000  0.4917230000000  0.4524110000000 1.0
C      1  0.4118320000000  0.4917230000000  0.5475890000000 1.0
C      1  0.4702000000000  0.4320800000000  0.4810840000000 1.0
C      1  0.5298000000000  0.4320800000000  0.5189160000000 1.0
C      1  0.4365840000000  0.4679080000000  0.4812150000000 1.0
C      1  0.5634170000000  0.4679080000000  0.5187850000000 1.0
C      1  0.4463160000000  0.4210890000000  0.5138130000000 1.0
C      1  0.5536840000000  0.4210880000000  0.4861870000000 1.0
C      1  0.4878310000000  0.5819860000000  0.5071890000000 1.0
C      1  0.5121690000000  0.5819860000000  0.4928110000000 1.0
C      1  0.5796980000000  0.4756880000000  0.4300450000000 1.0
C      1  0.4203020000000  0.4756890000000  0.5699550000000 1.0
C      1  0.4077400000000  0.5313040000000  0.4362350000000 1.0
C      1  0.5922600000000  0.5313040000000  0.5637650000000 1.0
C      1  0.5815890000000  0.4863000000000  0.4799930000000 1.0
C      1  0.4184110000000  0.4863010000000  0.5200070000000 1.0
C      1  0.4921670000000  0.5961130000000  0.4482320000000 1.0
C      1  0.5078330000000  0.5961130000000  0.5517680000000 1.0
C      1  0.5223890000000  0.4934800000000  0.4152000000000 1.0
C      1  0.4776110000000  0.4934800000000  0.5848000000000 1.0
C      1  0.4541630000000  0.5680840000000  0.4398760000000 1.0
C      1  0.5458370000000  0.5680840000000  0.5601240000000 1.0
C      1  0.4645380000000  0.5002570000000  0.4296950000000 1.0
C      1  0.5354620000000  0.5002570000000  0.5703050000000 1.0
C      1  0.4280950000000  0.4882760000000  0.5948620000000 1.0
C      1  0.5719050000000  0.4882760000000  0.4051380000000 1.0
C      1  0.5511510000000  0.5288500000000  0.5011170000000 1.0
C      1  0.4488490000000  0.5288500000000  0.4988830000000 1.0
C      1  0.5530900000000  0.5304730000000  0.5301030000000 1.0
C      1  0.4469100000000  0.5304730000000  0.4698970000000 1.0
C      1  0.4382720000000  0.4377760000000  0.4415800000000 1.0
C      1  0.5617280000000  0.4377760000000  0.5584200000000 1.0
C      1  0.5869560000000  0.4300190000000  0.4530560000000 1.0
C      1  0.4130440000000  0.4300190000000  0.5469440000000 1.0
C      1  0.5608980000000  0.5415230000000  0.4553800000000 1.0
C      1  0.4391020000000  0.5415230000000  0.5446200000000 1.0
C      1  0.5165880000000  0.4462200000000  0.4650860000000 1.0
C      1  0.4834120000000  0.4462200000000  0.5349140000000 1.0
C      1  0.5064160000000  0.4696390000000  0.4230640000000 1.0
C      1  0.4935840000000  0.4696390000000  0.5769360000000 1.0
C      1  0.4941620000000  0.5435710000000  0.4586630000000 1.0
C      1  0.5058380000000  0.5435710000000  0.5413370000000 1.0
C      1  0.4554480000000  0.4911290000000  0.6032540000000 1.0
C      1  0.5445520000000  0.4911290000000  0.3967460000000 1.0
C      1  0.6022240000000  0.5350260000000  0.5064320000000 1.0
C      1  0.3977760000000  0.5350260000000  0.4935680000000 1.0
C      1  0.4404560000000  0.5797150000000  0.5094000000000 1.0
C      1  0.5595440000000  0.5797150000000  0.4906000000000 1.0
C      1  0.3925990000000  0.5459890000000  0.5206030000000 1.0
C      1  0.6074010000000  0.5459890000000  0.4793970000000 1.0
C      1  0.4918470000000  0.3877820000000  0.4668760000000 1.0
C      1  0.5081530000000  0.3877820000000  0.5331240000000 1.0
C      1  0.4597210000000  0.5644160000000  0.5468680000000 1.0
C      1  0.5402790000000  0.5644160000000  0.4531320000000 1.0
C      1  0.4763780000000  0.4038130000000  0.4850280000000 1.0
C      1  0.5236220000000  0.4038130000000  0.5149730000000 1.0
C      1  0.5159030000000  0.6008330000000  0.4669950000000 1.0
C      1  0.4840970000000  0.6008330000000  0.5330050000000 1.0
C      1  0.5579840000000  0.4402750000000  0.5290730000000 1.0
C      1  0.4420160000000  0.4402750000000  0.4709270000000 1.0
C      1  0.5341640000000  0.5497260000000  0.5392320000000 1.0
C      1  0.4658360000000  0.5497260000000  0.4607680000000 1.0
C      1  0.5356250000000  0.5085890000000  0.4875990000000 1.0
C      1  0.4643750000000  0.5085890000000  0.5124010000000 1.0
C      1  0.5478460000000  0.5929530000000  0.4622570000000 1.0
C      1  0.4521540000000  0.5929530000000  0.5377430000000 1.0
C      1  0.5408770000000  0.5177640000000  0.4563450000000 1.0
C      1  0.4591230000000  0.5177640000000  0.5436550000000 1.0
C      1  0.5123100000000  0.5700780000000  0.5732360000000 1.0
C      1  0.4876900000000  0.5700780000000  0.4267640000000 1.0
C      1  0.4867550000000  0.4970330000000  0.4953410000000 1.0
C      1  0.5132450000000  0.4970330000000  0.5046590000000 1.0
C      1  0.5134110000000  0.4531160000000  0.5063690000000 1.0
C      1  0.4865890000000  0.4531160000000  0.4936310000000 1.0
C      1  0.4776670000000  0.5221040000000  0.4166480000000 1.0
C      1  0.5223330000000  0.5221040000000  0.5833520000000 1.0
C      1  0.4438030000000  0.4714120000000  0.5105690000000 1.0
C      1  0.5561970000000  0.4714120000000  0.4894310000000 1.0
C      1  0.5211100000000  0.4405410000000  0.4186850000000 1.0
C      1  0.4788890000000  0.4405410000000  0.5813150000000 1.0
C      1  0.4745880000000  0.4727470000000  0.4242820000000 1.0
C      1  0.5254110000000  0.4727470000000  0.5757180000000 1.0
END
