TITL C-862128-1543-682 2.46790686288624e-05 125000 -578.974133216054 0 0 97 (C5) n - 1
REM
REM in /home/nfs/bkarasulu/CARBON/AIRSS/Generating-Clusters/TERSOFF/Higher-Symm/FIRE-HFTN
REM
REM
REM
REM
REM
REM ./C.cell (b20cbc046b6831c77cfcea5457e17084)
REM AIRSS Version 0.9.1 bugfix July 2018 build 013d7b7c2542+ Fri, 06 Jul 2018 19:26:36 +0100
REM compiler GCC version 9.2.1 20190827 (Red Hat 9.2.1-1)
REM options -cpp -mtune=generic -march=x86-64 -g -O0 -fpre-include=/usr/include/finclude/math-vector-fortran.h
REM seed -2139304601 -976064837 -1398172694 1866012559 -63768052 -1233786120 -571197092 -620173101 -986707418 -482988089 -654453895 -466646991 557393791 295244444 1240804925 1520846068 -159732586 -1227810233 1278649842 -812291516 789425877 -1499823100 1752045343 -2085929956 -481481706 1257457866 -312351860 -1735083820 -1161556482 1282413354 1991469107 1642697582 753733077
REM
CELL 1.54180   50.00000   50.00000   50.00000   90.00000   90.00000   90.00000
LATT -1
SFAC C  
C      1  0.5189870000000  0.5191110000000  0.5763840000000 1.0
C      1  0.4886870000000  0.5241260000000  0.5763840000000 1.0
C      1  0.4745560000000  0.4968590000000  0.5763840000000 1.0
C      1  0.4961210000000  0.4749930000000  0.5763840000000 1.0
C      1  0.5235810000000  0.4887460000000  0.5763840000000 1.0
C      1  0.4212170000000  0.5031580000000  0.4941240000000 1.0
C      1  0.4736480000000  0.4262120000000  0.4941240000000 1.0
C      1  0.5630300000000  0.4522980000000  0.4941240000000 1.0
C      1  0.5658410000000  0.5453670000000  0.4941240000000 1.0
C      1  0.4781960000000  0.5768000000000  0.4941240000000 1.0
C      1  0.5476180000000  0.4476210000000  0.5445530000000 1.0
C      1  0.5655260000000  0.5292630000000  0.5445530000000 1.0
C      1  0.4934140000000  0.5715240000000  0.5445530000000 1.0
C      1  0.4309370000000  0.5160010000000  0.5445530000000 1.0
C      1  0.4644370000000  0.4394240000000  0.5445530000000 1.0
C      1  0.5257290000000  0.4046500000000  0.5105490000000 1.0
C      1  0.5996300000000  0.4951670000000  0.5105490000000 1.0
C      1  0.5363800000000  0.5934230000000  0.5105490000000 1.0
C      1  0.4233870000000  0.5636310000000  0.5105500000000 1.0
C      1  0.4168050000000  0.4469630000000  0.5105490000000 1.0
C      1  0.5030360000000  0.5607920000000  0.4922840000000 1.0
C      1  0.4441170000000  0.5218350000000  0.4922840000000 1.0
C      1  0.4629610000000  0.4537620000000  0.4922840000000 1.0
C      1  0.5335250000000  0.4506480000000  0.4922840000000 1.0
C      1  0.5582930000000  0.5167960000000  0.4922840000000 1.0
C      1  0.5288520000000  0.4213410000000  0.4870460000000 1.0
C      1  0.5847210000000  0.5032950000000  0.4870460000000 1.0
C      1  0.5240430000000  0.5817560000000  0.4870460000000 1.0
C      1  0.4306720000000  0.5482920000000  0.4870460000000 1.0
C      1  0.4336440000000  0.4491500000000  0.4870460000000 1.0
C      1  0.4423240000000  0.5688300000000  0.5318680000000 1.0
C      1  0.4177120000000  0.4665790000000  0.5318680000000 1.0
C      1  0.5073530000000  0.4115740000000  0.5318680000000 1.0
C      1  0.5873670000000  0.4798310000000  0.5318680000000 1.0
C      1  0.5471760000000  0.5770210000000  0.5318680000000 1.0
C      1  0.4855430000000  0.4804760000000  0.4237020000000 1.0
C      1  0.5150970000000  0.4803800000000  0.4237020000000 1.0
C      1  0.5243210000000  0.5084580000000  0.4237020000000 1.0
C      1  0.5004680000000  0.5259070000000  0.4237020000000 1.0
C      1  0.4765020000000  0.5086130000000  0.4237020000000 1.0
C      1  0.5661680000000  0.5552050000000  0.5233690000000 1.0
C      1  0.4689400000000  0.5801510000000  0.5233690000000 1.0
C      1  0.4151700000000  0.4953910000000  0.5233690000000 1.0
C      1  0.4791660000000  0.4180600000000  0.5233690000000 1.0
C      1  0.5724880000000  0.4550270000000  0.5233690000000 1.0
C      1  0.4633070000000  0.5806740000000  0.4687500000000 1.0
C      1  0.4129320000000  0.4901950000000  0.4687500000000 1.0
C      1  0.4834160000000  0.4143260000000  0.4687500000000 1.0
C      1  0.5773530000000  0.4579160000000  0.4687500000000 1.0
C      1  0.5649240000000  0.5607240000000  0.4687500000000 1.0
C      1  0.4318440000000  0.4959660000000  0.4417240000000 1.0
C      1  0.4837720000000  0.4340960000000  0.4417240000000 1.0
C      1  0.5586600000000  0.4643630000000  0.4417240000000 1.0
C      1  0.5530160000000  0.5449390000000  0.4417240000000 1.0
C      1  0.4746400000000  0.5644700000000  0.4417240000000 1.0
C      1  0.5065110000000  0.5548820000000  0.5206800000000 1.0
C      1  0.4508120000000  0.5233140000000  0.5206800000000 1.0
C      1  0.4636230000000  0.4605860000000  0.5206800000000 1.0
C      1  0.5272400000000  0.4533860000000  0.5206800000000 1.0
C      1  0.5537460000000  0.5116640000000  0.5206800000000 1.0
C      1  0.4384240000000  0.4625020000000  0.5541420000000 1.0
C      1  0.5176310000000  0.4300130000000  0.5541420000000 1.0
C      1  0.5730060000000  0.4953030000000  0.5541420000000 1.0
C      1  0.5280230000000  0.5681440000000  0.5541420000000 1.0
C      1  0.4448470000000  0.5478720000000  0.5541420000000 1.0
C      1  0.5686190000000  0.4949450000000  0.4390010000000 1.0
C      1  0.5270090000000  0.5638610000000  0.4390010000000 1.0
C      1  0.4486070000000  0.5455830000000  0.4390010000000 1.0
C      1  0.4417630000000  0.4653710000000  0.4390010000000 1.0
C      1  0.5159340000000  0.4340740000000  0.4390010000000 1.0
C      1  0.4773250000000  0.5445930000000  0.5565490000000 1.0
C      1  0.4515790000000  0.4923780000000  0.5565490000000 1.0
C      1  0.4932820000000  0.4517560000000  0.5565490000000 1.0
C      1  0.5448030000000  0.4788650000000  0.5565490000000 1.0
C      1  0.5349420000000  0.5362420000000  0.5565490000000 1.0
C      1  0.5399530000000  0.5784020000000  0.4634690000000 1.0
C      1  0.4387770000000  0.5623880000000  0.4634690000000 1.0
C      1  0.4227430000000  0.4612150000000  0.4634690000000 1.0
C      1  0.5140090000000  0.4147020000000  0.4634690000000 1.0
C      1  0.5864490000000  0.4871270000000  0.4634690000000 1.0
C      1  0.5462000000000  0.5151770000000  0.4426150000000 1.0
C      1  0.5008390000000  0.5487910000000  0.4426150000000 1.0
C      1  0.4548520000000  0.5160380000000  0.4426150000000 1.0
C      1  0.4717920000000  0.4621800000000  0.4426150000000 1.0
C      1  0.5282480000000  0.4616480000000  0.4426150000000 1.0
C      1  0.5040080000000  0.4652890000000  0.5309230000000 1.0
C      1  0.5352470000000  0.4932480000000  0.5309230000000 1.0
C      1  0.5183100000000  0.5315970000000  0.5309230000000 1.0
C      1  0.4766030000000  0.5273400000000  0.5309230000000 1.0
C      1  0.4677640000000  0.4863600000000  0.5309230000000 1.0
C      1  0.5351300000000  0.5103650000000  0.4714430000000 1.0
C      1  0.5019940000000  0.5367760000000  0.4714430000000 1.0
C      1  0.4666360000000  0.5134230000000  0.4714430000000 1.0
C      1  0.4779200000000  0.4725800000000  0.4714430000000 1.0
C      1  0.5202520000000  0.4706900000000  0.4714430000000 1.0
C      1  0.5003860000000  0.5007670000000  0.4769730000000 1.0
C      1  0.5003860000000  0.5007670000000  0.5276340000000 1.0
END
