TITL C-862131-2149-114 -4.39942293090542e-05 125000 -221.254898903786 0 0 48 (C5) n - 1
REM
REM in /home/nfs/bkarasulu/CARBON/AIRSS/Generating-Clusters/TERSOFF/Higher-Symm/FIRE-HFTN
REM
REM
REM
REM
REM
REM ./C.cell (b20cbc046b6831c77cfcea5457e17084)
REM AIRSS Version 0.9.1 bugfix July 2018 build 013d7b7c2542+ Fri, 06 Jul 2018 19:26:36 +0100
REM compiler GCC version 9.2.1 20190827 (Red Hat 9.2.1-1)
REM options -cpp -mtune=generic -march=x86-64 -g -O0 -fpre-include=/usr/include/finclude/math-vector-fortran.h
REM seed 724873885 1560893178 -1101316484 1932225228 -498185324 69828943 666620806 -1900168393 1977166977 -1929297492 2007367387 -1448395495 -455025527 553038752 -1724055114 289094914 -1843344111 -923268509 1199053047 -1276240836 964976784 1103025963 336419999 -190707213 -142209855 -1537104036 1818197876 843250249 1122388691 -1809108414 -1668915359 1560251146 -1847608096
REM
CELL 1.54180   50.00000   50.00000   50.00000   90.00000   90.00000   90.00000
LATT -1
SFAC C  
C      1  0.5271160000000  0.5228340000000  0.4551760000000 1.0
C      1  0.5301700000000  0.4810100000000  0.4551770000000 1.0
C      1  0.4913360000000  0.4651820000000  0.4551770000000 1.0
C      1  0.4642820000000  0.4972230000000  0.4551760000000 1.0
C      1  0.4863950000000  0.5328540000000  0.4551760000000 1.0
C      1  0.5271160000000  0.4768070000000  0.5410770000000 1.0
C      1  0.5301700000000  0.5186310000000  0.5410770000000 1.0
C      1  0.4913360000000  0.5344600000000  0.5410770000000 1.0
C      1  0.4642820000000  0.5024180000000  0.5410770000000 1.0
C      1  0.4863950000000  0.4667870000000  0.5410770000000 1.0
C      1  0.4677710000000  0.5430830000000  0.5225350000000 1.0
C      1  0.5310890000000  0.5437080000000  0.5225350000000 1.0
C      1  0.5512500000000  0.4836820000000  0.5225350000000 1.0
C      1  0.5003920000000  0.4459590000000  0.5225350000000 1.0
C      1  0.4487990000000  0.4826710000000  0.5225350000000 1.0
C      1  0.4677710000000  0.4565590000000  0.4737180000000 1.0
C      1  0.5310890000000  0.4559330000000  0.4737180000000 1.0
C      1  0.5512500000000  0.5159590000000  0.4737180000000 1.0
C      1  0.5003920000000  0.5536820000000  0.4737180000000 1.0
C      1  0.4487990000000  0.5169710000000  0.4737180000000 1.0
C      1  0.4846420000000  0.5389220000000  0.4265120000000 1.0
C      1  0.5323450000000  0.5263770000000  0.4265120000000 1.0
C      1  0.5351550000000  0.4771320000000  0.4265120000000 1.0
C      1  0.4891880000000  0.4592420000000  0.4265120000000 1.0
C      1  0.4579700000000  0.4974310000000  0.4265120000000 1.0
C      1  0.4846420000000  0.4607190000000  0.5697420000000 1.0
C      1  0.5323450000000  0.4732650000000  0.5697420000000 1.0
C      1  0.5351550000000  0.5225100000000  0.5697420000000 1.0
C      1  0.4891880000000  0.5404000000000  0.5697420000000 1.0
C      1  0.4579700000000  0.5022110000000  0.5697420000000 1.0
C      1  0.4596050000000  0.5441930000000  0.4750980000000 1.0
C      1  0.5296210000000  0.5518170000000  0.4750980000000 1.0
C      1  0.5585090000000  0.4875840000000  0.4750980000000 1.0
C      1  0.5063460000000  0.4402610000000  0.4750980000000 1.0
C      1  0.4452200000000  0.4752480000000  0.4750980000000 1.0
C      1  0.4596050000000  0.4554480000000  0.5211560000000 1.0
C      1  0.5296210000000  0.4478240000000  0.5211560000000 1.0
C      1  0.5585090000000  0.5120580000000  0.5211560000000 1.0
C      1  0.5063450000000  0.5593800000000  0.5211560000000 1.0
C      1  0.4452200000000  0.5243940000000  0.5211560000000 1.0
C      1  0.4803160000000  0.4396690000000  0.4981270000000 1.0
C      1  0.4803160000000  0.5599720000000  0.4981270000000 1.0
C      1  0.5510280000000  0.4626450000000  0.4981270000000 1.0
C      1  0.5510280000000  0.5369960000000  0.4981270000000 1.0
C      1  0.4366130000000  0.4998210000000  0.4981270000000 1.0
C      1  0.4998600000000  0.4998210000000  0.4632080000000 1.0
C      1  0.4998600000000  0.4998210000000  0.5330450000000 1.0
C      1  0.4998600000000  0.4998210000000  0.4981270000000 1.0
END
