TITL C-862129-6180-697 0.479333062241009 125000 -794.533078066797 0 0 139 (C1) n - 1
REM
REM in /home/nfs/bkarasulu/CARBON/AIRSS/Generating-Clusters/TERSOFF/Higher-Symm/FIRE-HFTN
REM
REM
REM
REM
REM
REM ./C.cell (b20cbc046b6831c77cfcea5457e17084)
REM AIRSS Version 0.9.1 bugfix July 2018 build 013d7b7c2542+ Fri, 06 Jul 2018 19:26:36 +0100
REM compiler GCC version 9.2.1 20190827 (Red Hat 9.2.1-1)
REM options -cpp -mtune=generic -march=x86-64 -g -O0 -fpre-include=/usr/include/finclude/math-vector-fortran.h
REM seed -1371461209 -2040624312 812662542 -1336004059 1130389940 -673343898 734842273 262815434 -872123727 -1100926992 -498662119 -974300483 -1113691041 -1775253989 1628626980 28926708 225200514 403495906 136072775 -1636928698 1195475861 1066478708 -782067359 1255412776 -1914856061 520805480 755610341 -1894180472 785721296 977597053 -601663734 1605217754 -1281722024
REM
CELL 1.54180   50.00000   50.00000   50.00000   90.00000   90.00000   90.00000
LATT -1
SFAC C  
C      1  0.5397840000000  0.5783400000000  0.5053400000000 1.0
C      1  0.5396820000000  0.4266610000000  0.5028860000000 1.0
C      1  0.4688990000000  0.5433350000000  0.5747480000000 1.0
C      1  0.4701670000000  0.4572220000000  0.5738660000000 1.0
C      1  0.5469690000000  0.4018350000000  0.5158620000000 1.0
C      1  0.5454110000000  0.6029540000000  0.5194610000000 1.0
C      1  0.5954730000000  0.4585420000000  0.4838450000000 1.0
C      1  0.5967010000000  0.5475220000000  0.4868300000000 1.0
C      1  0.5671200000000  0.4623200000000  0.4877680000000 1.0
C      1  0.5682120000000  0.5438170000000  0.4899500000000 1.0
C      1  0.4734900000000  0.4296390000000  0.5664250000000 1.0
C      1  0.4714970000000  0.5710020000000  0.5674030000000 1.0
C      1  0.4749840000000  0.6061550000000  0.5187760000000 1.0
C      1  0.4769020000000  0.3964720000000  0.5167620000000 1.0
C      1  0.4941470000000  0.4722240000000  0.4126120000000 1.0
C      1  0.4983330000000  0.5256900000000  0.4142700000000 1.0
C      1  0.4991580000000  0.4242760000000  0.5544850000000 1.0
C      1  0.4971870000000  0.5773320000000  0.5559190000000 1.0
C      1  0.4262530000000  0.5403160000000  0.4661320000000 1.0
C      1  0.4118790000000  0.4560000000000  0.4692080000000 1.0
C      1  0.5633880000000  0.4461360000000  0.3971230000000 1.0
C      1  0.5702950000000  0.5441870000000  0.4020870000000 1.0
C      1  0.5594520000000  0.5273610000000  0.5635020000000 1.0
C      1  0.5600720000000  0.4753270000000  0.5625590000000 1.0
C      1  0.4699220000000  0.5297870000000  0.4493650000000 1.0
C      1  0.4629830000000  0.4775090000000  0.4582700000000 1.0
C      1  0.4624570000000  0.5251420000000  0.5533520000000 1.0
C      1  0.4625730000000  0.4752980000000  0.5527270000000 1.0
C      1  0.6030650000000  0.4369240000000  0.4664790000000 1.0
C      1  0.6045400000000  0.5685070000000  0.4688020000000 1.0
C      1  0.4633930000000  0.4159460000000  0.4980850000000 1.0
C      1  0.4624230000000  0.5874990000000  0.4985850000000 1.0
C      1  0.4751440000000  0.5856940000000  0.4694870000000 1.0
C      1  0.4753920000000  0.4206310000000  0.4697650000000 1.0
C      1  0.6147950000000  0.4778110000000  0.4941940000000 1.0
C      1  0.6155380000000  0.5274220000000  0.4963940000000 1.0
C      1  0.5212910000000  0.4673790000000  0.4590060000000 1.0
C      1  0.5250120000000  0.5350140000000  0.4632820000000 1.0
C      1  0.5455240000000  0.5433580000000  0.4175180000000 1.0
C      1  0.5390750000000  0.4494750000000  0.4131160000000 1.0
C      1  0.5135910000000  0.4283850000000  0.4895480000000 1.0
C      1  0.5146430000000  0.5758450000000  0.4904800000000 1.0
C      1  0.4370760000000  0.4787490000000  0.5935480000000 1.0
C      1  0.4363530000000  0.5207160000000  0.5937030000000 1.0
C      1  0.4786710000000  0.5440190000000  0.4730760000000 1.0
C      1  0.4766350000000  0.4616590000000  0.4786420000000 1.0
C      1  0.5182560000000  0.4474920000000  0.5520290000000 1.0
C      1  0.5170750000000  0.5547480000000  0.5531570000000 1.0
C      1  0.5036150000000  0.4519620000000  0.4759860000000 1.0
C      1  0.5060650000000  0.5516950000000  0.4770640000000 1.0
C      1  0.4981650000000  0.6000500000000  0.5368800000000 1.0
C      1  0.5002770000000  0.4022660000000  0.5347060000000 1.0
C      1  0.4479920000000  0.5844660000000  0.5566910000000 1.0
C      1  0.4503020000000  0.4156720000000  0.5556930000000 1.0
C      1  0.5277530000000  0.5269930000000  0.5985840000000 1.0
C      1  0.5286310000000  0.4737170000000  0.5979750000000 1.0
C      1  0.4295830000000  0.5724650000000  0.5374100000000 1.0
C      1  0.4311660000000  0.4277030000000  0.5372530000000 1.0
C      1  0.6423390000000  0.4779680000000  0.4845560000000 1.0
C      1  0.6431770000000  0.5273210000000  0.4870310000000 1.0
C      1  0.4792850000000  0.4758750000000  0.5288290000000 1.0
C      1  0.4800450000000  0.5251910000000  0.5301080000000 1.0
C      1  0.3877910000000  0.4737040000000  0.4586940000000 1.0
C      1  0.4064130000000  0.5240490000000  0.4493170000000 1.0
C      1  0.5403090000000  0.4484670000000  0.4422700000000 1.0
C      1  0.5447240000000  0.5502410000000  0.4453400000000 1.0
C      1  0.4369690000000  0.5726550000000  0.5074880000000 1.0
C      1  0.4380020000000  0.4296460000000  0.5079340000000 1.0
C      1  0.4062970000000  0.4734080000000  0.5392920000000 1.0
C      1  0.4041450000000  0.5252710000000  0.5394860000000 1.0
C      1  0.5369800000000  0.4578450000000  0.5736350000000 1.0
C      1  0.5357710000000  0.5439630000000  0.5748080000000 1.0
C      1  0.5545360000000  0.4262020000000  0.4549070000000 1.0
C      1  0.5563960000000  0.5758100000000  0.4538240000000 1.0
C      1  0.4110100000000  0.4461430000000  0.5485940000000 1.0
C      1  0.4084550000000  0.5534860000000  0.5482840000000 1.0
C      1  0.5756510000000  0.4694050000000  0.3849290000000 1.0
C      1  0.5791210000000  0.5205960000000  0.3877330000000 1.0
C      1  0.5256410000000  0.3890350000000  0.5301270000000 1.0
C      1  0.5231680000000  0.6142900000000  0.5335620000000 1.0
C      1  0.5273890000000  0.5223260000000  0.4108180000000 1.0
C      1  0.5223940000000  0.4719450000000  0.4052940000000 1.0
C      1  0.4290200000000  0.4547940000000  0.4952340000000 1.0
C      1  0.4297090000000  0.5461490000000  0.4960720000000 1.0
C      1  0.5598500000000  0.5249260000000  0.5326040000000 1.0
C      1  0.5597640000000  0.4790460000000  0.5317490000000 1.0
C      1  0.5526570000000  0.5508310000000  0.5144560000000 1.0
C      1  0.5520770000000  0.4542190000000  0.5122520000000 1.0
C      1  0.4868900000000  0.5562380000000  0.4215830000000 1.0
C      1  0.4804680000000  0.4455080000000  0.4213990000000 1.0
C      1  0.5239080000000  0.5457780000000  0.5265610000000 1.0
C      1  0.5238540000000  0.4581240000000  0.5257390000000 1.0
C      1  0.4647210000000  0.4372000000000  0.4466510000000 1.0
C      1  0.4672870000000  0.5712200000000  0.4431730000000 1.0
C      1  0.5848020000000  0.5821820000000  0.4530330000000 1.0
C      1  0.5831790000000  0.4213920000000  0.4527020000000 1.0
C      1  0.5716570000000  0.6152700000000  0.5193570000000 1.0
C      1  0.5737320000000  0.3907840000000  0.5145370000000 1.0
C      1  0.4399910000000  0.5281340000000  0.5178480000000 1.0
C      1  0.4437300000000  0.4776450000000  0.5065690000000 1.0
C      1  0.4862390000000  0.5315280000000  0.5945250000000 1.0
C      1  0.4871030000000  0.4693940000000  0.5937970000000 1.0
C      1  0.4015830000000  0.4991270000000  0.5568490000000 1.0
C      1  0.5114130000000  0.5016470000000  0.4642330000000 1.0
C      1  0.5190170000000  0.5011620000000  0.5666390000000 1.0
C      1  0.6173330000000  0.5007250000000  0.5379710000000 1.0
C      1  0.4822610000000  0.5026510000000  0.4858300000000 1.0
C      1  0.4807060000000  0.4990750000000  0.4158180000000 1.0
C      1  0.5643440000000  0.4956500000000  0.3905730000000 1.0
C      1  0.3659980000000  0.5154280000000  0.4785710000000 1.0
C      1  0.6052400000000  0.5021120000000  0.5106480000000 1.0
C      1  0.6566360000000  0.5026500000000  0.4810140000000 1.0
C      1  0.4030640000000  0.4877990000000  0.4951680000000 1.0
C      1  0.4298050000000  0.5033640000000  0.4202430000000 1.0
C      1  0.5420040000000  0.5005260000000  0.6017340000000 1.0
C      1  0.5404460000000  0.4959740000000  0.4097890000000 1.0
C      1  0.4942180000000  0.5005720000000  0.5921320000000 1.0
C      1  0.4139480000000  0.4993020000000  0.5837010000000 1.0
C      1  0.5750110000000  0.5023550000000  0.5130260000000 1.0
C      1  0.5580580000000  0.5032710000000  0.4862230000000 1.0
C      1  0.4502730000000  0.5000950000000  0.5598880000000 1.0
C      1  0.5180330000000  0.5011320000000  0.5144940000000 1.0
C      1  0.4537640000000  0.5020040000000  0.4040180000000 1.0
C      1  0.5623630000000  0.5011290000000  0.5787170000000 1.0
C      1  0.4891280000000  0.5007680000000  0.5157580000000 1.0
C      1  0.4745120000000  0.5012250000000  0.4441880000000 1.0
C      1  0.4330030000000  0.5005220000000  0.5216360000000 1.0
C      1  0.4513180000000  0.5104170000000  0.4815600000000 1.0
C      1  0.5686700000000  0.5023300000000  0.4587100000000 1.0
C      1  0.3717570000000  0.4971870000000  0.5527810000000 1.0
C      1  0.4247340000000  0.4866980000000  0.4436080000000 1.0
C      1  0.5346200000000  0.5016060000000  0.5382930000000 1.0
C      1  0.5298770000000  0.5021250000000  0.4890100000000 1.0
C      1  0.3770000000000  0.5018770000000  0.5016920000000 1.0
C      1  0.4596640000000  0.4999920000000  0.6023310000000 1.0
C      1  0.4264000000000  0.4955180000000  0.4727630000000 1.0
C      1  0.3856450000000  0.5049780000000  0.4593460000000 1.0
C      1  0.3611450000000  0.4967590000000  0.5259450000000 1.0
C      1  0.5560200000000  0.4869600000000  0.4363540000000 1.0
END
