TITL C-862130-1496-1339 21857.6028580163 125000 -805.242663273493 0 0 138 (C1) n - 1
REM
REM in /home/nfs/bkarasulu/CARBON/AIRSS/Generating-Clusters/TERSOFF/Higher-Symm/FIRE-HFTN
REM
REM
REM
REM
REM
REM ./C.cell (b20cbc046b6831c77cfcea5457e17084)
REM AIRSS Version 0.9.1 bugfix July 2018 build 013d7b7c2542+ Fri, 06 Jul 2018 19:26:36 +0100
REM compiler GCC version 9.2.1 20190827 (Red Hat 9.2.1-1)
REM options -cpp -mtune=generic -march=x86-64 -g -O0 -fpre-include=/usr/include/finclude/math-vector-fortran.h
REM seed 1832943272 1209017890 1564773709 -104608277 -2112216948 -221325228 732494170 1748209226 1544932162 -824711673 391586737 120677679 1606944260 -740843232 1585706043 117755422 -688912229 80573247 689173211 -1220064157 -1888942660 -1647108171 147920393 780671774 -611596920 1091041186 178706923 -146549851 -469568184 867492569 1355631712 -1039426058 1334177850
REM
CELL 1.54180   50.00000   50.00000   50.00000   90.00000   90.00000   90.00000
LATT -1
SFAC C  
C      1  0.4999920000000  0.3535860000000  0.5210750000000 1.0
C      1  0.4999150000000  0.6458100000000  0.5209430000000 1.0
C      1  0.4391990000000  0.4339460000000  0.5370150000000 1.0
C      1  0.5607550000000  0.5659430000000  0.5372770000000 1.0
C      1  0.5381840000000  0.5526990000000  0.4587670000000 1.0
C      1  0.4619930000000  0.4473420000000  0.4594000000000 1.0
C      1  0.4744180000000  0.5772560000000  0.4704790000000 1.0
C      1  0.5252910000000  0.4223050000000  0.4705540000000 1.0
C      1  0.5663330000000  0.5569560000000  0.4554650000000 1.0
C      1  0.4338720000000  0.4431010000000  0.4559780000000 1.0
C      1  0.4709030000000  0.4693280000000  0.4787300000000 1.0
C      1  0.5291920000000  0.5311780000000  0.4784040000000 1.0
C      1  0.5987630000000  0.4957670000000  0.4854420000000 1.0
C      1  0.4008370000000  0.5041830000000  0.4855820000000 1.0
C      1  0.4579060000000  0.4775900000000  0.5383830000000 1.0
C      1  0.5452140000000  0.5204840000000  0.5404200000000 1.0
C      1  0.5997390000000  0.5129690000000  0.5364340000000 1.0
C      1  0.3992290000000  0.4862950000000  0.5365340000000 1.0
C      1  0.4603750000000  0.5307280000000  0.5562240000000 1.0
C      1  0.5395560000000  0.4667790000000  0.5568550000000 1.0
C      1  0.5377460000000  0.4467590000000  0.4820230000000 1.0
C      1  0.4621760000000  0.5526780000000  0.4821130000000 1.0
C      1  0.5645670000000  0.4480480000000  0.5241430000000 1.0
C      1  0.4354850000000  0.5509360000000  0.5243010000000 1.0
C      1  0.4516580000000  0.3682130000000  0.5146370000000 1.0
C      1  0.5485010000000  0.6316900000000  0.5155360000000 1.0
C      1  0.4559330000000  0.4962400000000  0.4799450000000 1.0
C      1  0.5436680000000  0.5039920000000  0.4799820000000 1.0
C      1  0.4643040000000  0.5585600000000  0.5365810000000 1.0
C      1  0.5362470000000  0.4388610000000  0.5366330000000 1.0
C      1  0.5727560000000  0.4763620000000  0.4500340000000 1.0
C      1  0.4270300000000  0.5236730000000  0.4500150000000 1.0
C      1  0.5007340000000  0.5356610000000  0.4142070000000 1.0
C      1  0.4990460000000  0.4644940000000  0.4145730000000 1.0
C      1  0.4143950000000  0.4748740000000  0.5590570000000 1.0
C      1  0.5843170000000  0.5241690000000  0.5588340000000 1.0
C      1  0.4345420000000  0.5494990000000  0.4939990000000 1.0
C      1  0.5655660000000  0.4495740000000  0.4937630000000 1.0
C      1  0.5135840000000  0.5055510000000  0.3878990000000 1.0
C      1  0.4861620000000  0.4943440000000  0.3879870000000 1.0
C      1  0.5856800000000  0.5421910000000  0.4700650000000 1.0
C      1  0.4145290000000  0.4579120000000  0.4704120000000 1.0
C      1  0.4978300000000  0.4726560000000  0.4675120000000 1.0
C      1  0.5022950000000  0.5276490000000  0.4674010000000 1.0
C      1  0.4075030000000  0.4848420000000  0.5089280000000 1.0
C      1  0.5922420000000  0.5152640000000  0.5086970000000 1.0
C      1  0.4630390000000  0.5047700000000  0.4056700000000 1.0
C      1  0.5368050000000  0.4951190000000  0.4054290000000 1.0
C      1  0.4655140000000  0.4392980000000  0.4127920000000 1.0
C      1  0.5344220000000  0.5606360000000  0.4122970000000 1.0
C      1  0.4486090000000  0.4736110000000  0.5941180000000 1.0
C      1  0.5513320000000  0.5258590000000  0.5954530000000 1.0
C      1  0.5106360000000  0.4242180000000  0.4432050000000 1.0
C      1  0.4890320000000  0.5754840000000  0.4429830000000 1.0
C      1  0.4043130000000  0.4842680000000  0.4599910000000 1.0
C      1  0.5955290000000  0.5156140000000  0.4598910000000 1.0
C      1  0.4405640000000  0.4561300000000  0.4092110000000 1.0
C      1  0.5593540000000  0.5437580000000  0.4087560000000 1.0
C      1  0.4722810000000  0.5086740000000  0.4348180000000 1.0
C      1  0.5276690000000  0.4917180000000  0.4346770000000 1.0
C      1  0.5844290000000  0.4686480000000  0.4774220000000 1.0
C      1  0.4153970000000  0.5310520000000  0.4775190000000 1.0
C      1  0.4878150000000  0.4070230000000  0.5102560000000 1.0
C      1  0.5128830000000  0.5952770000000  0.5074560000000 1.0
C      1  0.4899660000000  0.6207890000000  0.5317000000000 1.0
C      1  0.5101140000000  0.3786080000000  0.5316850000000 1.0
C      1  0.5259510000000  0.3970920000000  0.4856180000000 1.0
C      1  0.4740640000000  0.6023020000000  0.4857480000000 1.0
C      1  0.5515350000000  0.6155160000000  0.5393490000000 1.0
C      1  0.4481830000000  0.3843530000000  0.5384020000000 1.0
C      1  0.4846710000000  0.4163620000000  0.5593260000000 1.0
C      1  0.5150560000000  0.5829760000000  0.5597880000000 1.0
C      1  0.4735980000000  0.3500610000000  0.5102250000000 1.0
C      1  0.5264620000000  0.6495750000000  0.5105860000000 1.0
C      1  0.5013580000000  0.6103420000000  0.5568140000000 1.0
C      1  0.4987110000000  0.3893210000000  0.5567370000000 1.0
C      1  0.4801440000000  0.5456130000000  0.5824090000000 1.0
C      1  0.5179340000000  0.4550260000000  0.5813140000000 1.0
C      1  0.5670350000000  0.4777440000000  0.5685490000000 1.0
C      1  0.4327650000000  0.5209990000000  0.5682200000000 1.0
C      1  0.5705630000000  0.5062690000000  0.5778220000000 1.0
C      1  0.4286780000000  0.4927770000000  0.5776340000000 1.0
C      1  0.4186160000000  0.4601250000000  0.4993760000000 1.0
C      1  0.5817350000000  0.5403720000000  0.4991790000000 1.0
C      1  0.5804270000000  0.4656060000000  0.5427820000000 1.0
C      1  0.4192500000000  0.5336360000000  0.5428790000000 1.0
C      1  0.5546320000000  0.5536910000000  0.5841610000000 1.0
C      1  0.4451880000000  0.4455890000000  0.5838010000000 1.0
C      1  0.5198000000000  0.5640380000000  0.4385690000000 1.0
C      1  0.4802100000000  0.4360410000000  0.4390220000000 1.0
C      1  0.4680230000000  0.4258270000000  0.5846000000000 1.0
C      1  0.5316600000000  0.5733480000000  0.5850430000000 1.0
C      1  0.4529860000000  0.5107940000000  0.4553370000000 1.0
C      1  0.5470400000000  0.4898640000000  0.4551280000000 1.0
C      1  0.4980090000000  0.5210350000000  0.4393680000000 1.0
C      1  0.5019710000000  0.4793850000000  0.4395150000000 1.0
C      1  0.5115690000000  0.4346240000000  0.5589210000000 1.0
C      1  0.4862820000000  0.5664840000000  0.5601810000000 1.0
C      1  0.5417830000000  0.5880580000000  0.5423250000000 1.0
C      1  0.4581120000000  0.4117170000000  0.5416960000000 1.0
C      1  0.4862140000000  0.4757090000000  0.5342830000000 1.0
C      1  0.5176560000000  0.5272210000000  0.5354730000000 1.0
C      1  0.4950900000000  0.4892700000000  0.5100990000000 1.0
C      1  0.5077270000000  0.5151810000000  0.5107430000000 1.0
C      1  0.4612390000000  0.5602150000000  0.4019670000000 1.0
C      1  0.5383250000000  0.4395940000000  0.4021320000000 1.0
C      1  0.5518740000000  0.4876290000000  0.5048600000000 1.0
C      1  0.4442620000000  0.5101260000000  0.5048010000000 1.0
C      1  0.5244290000000  0.4647480000000  0.3992220000000 1.0
C      1  0.4752270000000  0.5351190000000  0.3990110000000 1.0
C      1  0.5825700000000  0.5020310000000  0.4349980000000 1.0
C      1  0.4173340000000  0.4979330000000  0.4352090000000 1.0
C      1  0.5111370000000  0.5665150000000  0.5096000000000 1.0
C      1  0.4895440000000  0.4358180000000  0.5112500000000 1.0
C      1  0.4271360000000  0.4468100000000  0.5601460000000 1.0
C      1  0.5722020000000  0.5522720000000  0.5602370000000 1.0
C      1  0.4725150000000  0.6040840000000  0.5149940000000 1.0
C      1  0.5278040000000  0.3950420000000  0.5148690000000 1.0
C      1  0.5274150000000  0.6094480000000  0.4868190000000 1.0
C      1  0.4750410000000  0.3919620000000  0.4890790000000 1.0
C      1  0.4417200000000  0.4485340000000  0.5127380000000 1.0
C      1  0.5586400000000  0.5523050000000  0.5123600000000 1.0
C      1  0.5024630000000  0.5270900000000  0.5826000000000 1.0
C      1  0.4979710000000  0.4757140000000  0.5823220000000 1.0
C      1  0.5039580000000  0.5150900000000  0.5575520000000 1.0
C      1  0.4976940000000  0.4882500000000  0.5573900000000 1.0
C      1  0.4384610000000  0.4858670000000  0.4146650000000 1.0
C      1  0.5614300000000  0.5140440000000  0.4143790000000 1.0
C      1  0.5232110000000  0.5215630000000  0.6020890000000 1.0
C      1  0.4761550000000  0.4796670000000  0.6009400000000 1.0
C      1  0.4795380000000  0.5307390000000  0.4838120000000 1.0
C      1  0.5207130000000  0.4690330000000  0.4837210000000 1.0
C      1  0.4683530000000  0.4537070000000  0.5032850000000 1.0
C      1  0.5322030000000  0.5481950000000  0.5021220000000 1.0
C      1  0.4507520000000  0.5049150000000  0.5329670000000 1.0
C      1  0.5485860000000  0.4927470000000  0.5335840000000 1.0
C      1  0.5275250000000  0.4189390000000  0.4194080000000 1.0
C      1  0.4720230000000  0.5808220000000  0.4192880000000 1.0
END
