TITL C-862131-2149-943 9.17132950907147e-05 125000 -197.656796540894 0 0 37 (D2) n - 1
REM
REM in /home/nfs/bkarasulu/CARBON/AIRSS/Generating-Clusters/TERSOFF/Higher-Symm/FIRE-HFTN
REM
REM
REM
REM
REM
REM ./C.cell (b20cbc046b6831c77cfcea5457e17084)
REM AIRSS Version 0.9.1 bugfix July 2018 build 013d7b7c2542+ Fri, 06 Jul 2018 19:26:36 +0100
REM compiler GCC version 9.2.1 20190827 (Red Hat 9.2.1-1)
REM options -cpp -mtune=generic -march=x86-64 -g -O0 -fpre-include=/usr/include/finclude/math-vector-fortran.h
REM seed 694885822 -506567157 -155307039 1677012244 -169685743 -2026601624 1439785284 2076991291 1647884481 1006574535 -1505694418 1035495054 -1230075511 -681834830 1962604060 1486845668 -1992646634 8646604 -1173649262 -60729654 1884610312 -1787309098 1799858566 1129968040 -483222225 1139744743 1627840628 -1076447806 -2091776063 -972642244 -1801314188 -331936193 -923763388
REM
CELL 1.54180   50.00000   50.00000   50.00000   90.00000   90.00000   90.00000
LATT -1
SFAC C  
C      1  0.5241590000000  0.5535050000000  0.5168300000000 1.0
C      1  0.5241220000000  0.4439800000000  0.4831380000000 1.0
C      1  0.4760310000000  0.5535040000000  0.4831460000000 1.0
C      1  0.4760390000000  0.4439940000000  0.5168860000000 1.0
C      1  0.4885240000000  0.5788290000000  0.4912730000000 1.0
C      1  0.4885150000000  0.4186650000000  0.5087420000000 1.0
C      1  0.5116730000000  0.5788300000000  0.5086920000000 1.0
C      1  0.5116400000000  0.4186580000000  0.4912920000000 1.0
C      1  0.4743370000000  0.4764160000000  0.5510870000000 1.0
C      1  0.4742750000000  0.5210820000000  0.4489470000000 1.0
C      1  0.5258330000000  0.4763870000000  0.4489230000000 1.0
C      1  0.5259070000000  0.5210970000000  0.5510430000000 1.0
C      1  0.4646950000000  0.4604380000000  0.4946660000000 1.0
C      1  0.4647120000000  0.5370620000000  0.5053810000000 1.0
C      1  0.5354710000000  0.4604310000000  0.5053500000000 1.0
C      1  0.5354740000000  0.5370510000000  0.4946020000000 1.0
C      1  0.4673080000000  0.5030510000000  0.5413930000000 1.0
C      1  0.4672520000000  0.4944480000000  0.4586500000000 1.0
C      1  0.5328690000000  0.5030250000000  0.4586050000000 1.0
C      1  0.5329230000000  0.4944570000000  0.5413520000000 1.0
C      1  0.5042110000000  0.5342520000000  0.5332510000000 1.0
C      1  0.5041570000000  0.4632380000000  0.4667440000000 1.0
C      1  0.4959750000000  0.5342390000000  0.4667340000000 1.0
C      1  0.4960090000000  0.4632530000000  0.5332720000000 1.0
C      1  0.4575640000000  0.5478210000000  0.4566340000000 1.0
C      1  0.4576080000000  0.4496810000000  0.5434220000000 1.0
C      1  0.5426250000000  0.5478290000000  0.5433440000000 1.0
C      1  0.5425550000000  0.4496510000000  0.4566000000000 1.0
C      1  0.5175600000000  0.4793400000000  0.5200630000000 1.0
C      1  0.5175380000000  0.5181460000000  0.4799140000000 1.0
C      1  0.4826110000000  0.4793360000000  0.4799450000000 1.0
C      1  0.4826430000000  0.5181600000000  0.5200780000000 1.0
C      1  0.5635230000000  0.4580940000000  0.5125630000000 1.0
C      1  0.5635170000000  0.5393800000000  0.4873520000000 1.0
C      1  0.4366420000000  0.4581050000000  0.4874540000000 1.0
C      1  0.4366690000000  0.5394030000000  0.5126300000000 1.0
C      1  0.5000880000000  0.4987450000000  0.5000000000000 1.0
END
