TITL C-862130-1496-463 51.9287318959384 125000 -243.787233463442 0 0 44 (C1) n - 1
REM
REM in /home/nfs/bkarasulu/CARBON/AIRSS/Generating-Clusters/TERSOFF/Higher-Symm/FIRE-HFTN
REM
REM
REM
REM
REM
REM ./C.cell (b20cbc046b6831c77cfcea5457e17084)
REM AIRSS Version 0.9.1 bugfix July 2018 build 013d7b7c2542+ Fri, 06 Jul 2018 19:26:36 +0100
REM compiler GCC version 9.2.1 20190827 (Red Hat 9.2.1-1)
REM options -cpp -mtune=generic -march=x86-64 -g -O0 -fpre-include=/usr/include/finclude/math-vector-fortran.h
REM seed 1496046016 -1296344204 1283792299 -263361521 -930745617 1109703511 233546721 739199295 620533152 -1745189274 -1522201951 -1450167312 305926949 172938097 1367102224 1504565620 -1448601916 113863312 672448471 -1520105229 1816489381 -738545512 1955064174 -635407607 628171394 947401132 1962908883 204396596 348286214 -1896930847 -2062531664 -421789892 -221089142
REM
CELL 1.54180   50.00000   50.00000   50.00000   90.00000   90.00000   90.00000
LATT -1
SFAC C  
C      1  0.4345470000000  0.4750540000000  0.5043230000000 1.0
C      1  0.4819900000000  0.5044220000000  0.5154270000000 1.0
C      1  0.5092920000000  0.4461290000000  0.5317730000000 1.0
C      1  0.5291400000000  0.5007130000000  0.4966030000000 1.0
C      1  0.4825330000000  0.4892500000000  0.5581870000000 1.0
C      1  0.4325770000000  0.4807420000000  0.5335880000000 1.0
C      1  0.5237890000000  0.5380480000000  0.4759680000000 1.0
C      1  0.4261870000000  0.5300460000000  0.5300600000000 1.0
C      1  0.4744240000000  0.4790740000000  0.5304300000000 1.0
C      1  0.4478920000000  0.5351030000000  0.4850240000000 1.0
C      1  0.4575010000000  0.4848370000000  0.4874980000000 1.0
C      1  0.5415100000000  0.4796990000000  0.5162220000000 1.0
C      1  0.5434890000000  0.4583410000000  0.4948410000000 1.0
C      1  0.4826810000000  0.4522580000000  0.5227040000000 1.0
C      1  0.4705590000000  0.5304630000000  0.4274710000000 1.0
C      1  0.5205030000000  0.5643680000000  0.4879790000000 1.0
C      1  0.4650870000000  0.5141940000000  0.5540260000000 1.0
C      1  0.4134880000000  0.4594680000000  0.4915890000000 1.0
C      1  0.5653920000000  0.4972670000000  0.5223950000000 1.0
C      1  0.5031570000000  0.4984420000000  0.4481960000000 1.0
C      1  0.4487410000000  0.5394280000000  0.5137130000000 1.0
C      1  0.4660790000000  0.4339120000000  0.5076670000000 1.0
C      1  0.5465620000000  0.4541880000000  0.4451380000000 1.0
C      1  0.5255630000000  0.4692530000000  0.5391670000000 1.0
C      1  0.5303410000000  0.4597490000000  0.4684230000000 1.0
C      1  0.5030180000000  0.5263670000000  0.4584340000000 1.0
C      1  0.5600650000000  0.5347390000000  0.4338610000000 1.0
C      1  0.4545960000000  0.5098340000000  0.4717950000000 1.0
C      1  0.5004580000000  0.5040850000000  0.4939420000000 1.0
C      1  0.5795800000000  0.4922230000000  0.4523020000000 1.0
C      1  0.5486170000000  0.5211280000000  0.4816280000000 1.0
C      1  0.5127240000000  0.4876780000000  0.5591210000000 1.0
C      1  0.5672220000000  0.5211200000000  0.5058320000000 1.0
C      1  0.5283350000000  0.5030370000000  0.5781390000000 1.0
C      1  0.5629310000000  0.5158360000000  0.4558060000000 1.0
C      1  0.5029700000000  0.5703250000000  0.5103960000000 1.0
C      1  0.4584480000000  0.5092260000000  0.4429660000000 1.0
C      1  0.4811970000000  0.4672620000000  0.4828030000000 1.0
C      1  0.4362780000000  0.5073300000000  0.5458870000000 1.0
C      1  0.4954290000000  0.5513690000000  0.5310440000000 1.0
C      1  0.4743980000000  0.5312630000000  0.5283320000000 1.0
C      1  0.5042660000000  0.4738820000000  0.4650500000000 1.0
C      1  0.5353670000000  0.5309400000000  0.5750200000000 1.0
C      1  0.5710780000000  0.4679090000000  0.4392310000000 1.0
END
