TITL C-862506-1665-270 -1.32307693849105e-06 125000 -100.204986744046 0 0 30 (D4h) n - 1
REM
REM in /home/nfs/bkarasulu/CARBON/AIRSS/Generating-Clusters/TERSOFF/Higher-Symm/FIRE-HFTN
REM
REM
REM
REM
REM
REM ./C.cell (b20cbc046b6831c77cfcea5457e17084)
REM AIRSS Version 0.9.1 bugfix July 2018 build 013d7b7c2542+ Fri, 06 Jul 2018 19:26:36 +0100
REM compiler GCC version 9.2.1 20190827 (Red Hat 9.2.1-1)
REM options -cpp -mtune=generic -march=x86-64 -g -O0 -fpre-include=/usr/include/finclude/math-vector-fortran.h
REM seed 1052475158 -1865738738 206040438 -1529183080 -1867047011 214524211 -625028509 -1725493087 1964620645 1070759481 1704463134 1255007026 -1938298337 -271053769 765973063 -1519560605 -876123199 -1696811002 -321490538 100471251 -73271356 362794997 647523893 196127189 1877619225 -648140244 -570284728 1837062142 347733269 -1795960901 -762000228 564271745 -473936411
REM
CELL 1.54180   50.00000   50.00000   50.00000   90.00000   90.00000   90.00000
LATT -1
SFAC C  
C      1  0.5534170000000  0.4829090000000  0.4839890000000 1.0
C      1  0.5534170000000  0.5165260000000  0.4839890000000 1.0
C      1  0.5534170000000  0.5165260000000  0.5176060000000 1.0
C      1  0.5534170000000  0.4829090000000  0.5176060000000 1.0
C      1  0.4428960000000  0.5165260000000  0.4839890000000 1.0
C      1  0.4428960000000  0.4829090000000  0.4839890000000 1.0
C      1  0.4428960000000  0.4829090000000  0.5176060000000 1.0
C      1  0.4428960000000  0.5165260000000  0.5176060000000 1.0
C      1  0.5273800000000  0.5175210000000  0.5429400000000 1.0
C      1  0.5273800000000  0.4575750000000  0.5186010000000 1.0
C      1  0.5273800000000  0.4819140000000  0.4586540000000 1.0
C      1  0.5273800000000  0.5418600000000  0.4829940000000 1.0
C      1  0.4689340000000  0.4819140000000  0.5429400000000 1.0
C      1  0.4689340000000  0.5418600000000  0.5186010000000 1.0
C      1  0.4689340000000  0.5175210000000  0.4586540000000 1.0
C      1  0.4689340000000  0.4575750000000  0.4829940000000 1.0
C      1  0.5273800000000  0.5418600000000  0.5186010000000 1.0
C      1  0.5273800000000  0.4819140000000  0.5429400000000 1.0
C      1  0.5273800000000  0.4575750000000  0.4829940000000 1.0
C      1  0.5273800000000  0.5175210000000  0.4586540000000 1.0
C      1  0.4689340000000  0.4575750000000  0.5186010000000 1.0
C      1  0.4689340000000  0.5175210000000  0.5429400000000 1.0
C      1  0.4689340000000  0.5418600000000  0.4829940000000 1.0
C      1  0.4689340000000  0.4819140000000  0.4586540000000 1.0
C      1  0.4981570000000  0.4997170000000  0.4701710000000 1.0
C      1  0.4981570000000  0.4690920000000  0.5007970000000 1.0
C      1  0.4981570000000  0.5303430000000  0.5007970000000 1.0
C      1  0.4981570000000  0.4997170000000  0.5314230000000 1.0
C      1  0.4776040000000  0.4997170000000  0.5007970000000 1.0
C      1  0.5187100000000  0.4997170000000  0.5007970000000 1.0
END
