TITL C-862502-1143-324 12.0089907900592 125000 -840.829293361201 0 0 141 (C1) n - 1
REM
REM in /home/nfs/bkarasulu/CARBON/AIRSS/Generating-Clusters/TERSOFF/Higher-Symm/FIRE-HFTN
REM
REM
REM
REM
REM
REM ./C.cell (b20cbc046b6831c77cfcea5457e17084)
REM AIRSS Version 0.9.1 bugfix July 2018 build 013d7b7c2542+ Fri, 06 Jul 2018 19:26:36 +0100
REM compiler GCC version 9.2.1 20190827 (Red Hat 9.2.1-1)
REM options -cpp -mtune=generic -march=x86-64 -g -O0 -fpre-include=/usr/include/finclude/math-vector-fortran.h
REM seed -1073368568 -765274597 -1228040960 -1098500255 -314835015 448854665 -590819392 1088284112 -661840088 -1007978621 -20462394 1203226086 986077083 -2043197950 1498601276 -2053234170 -1344245086 -690906456 -635121003 -1403498363 -945718251 471147787 678484137 1736941959 1585639792 1477405093 -1841356400 56367630 1325072141 -559533116 -534399156 614389372 -104459745
REM
CELL 1.54180   50.00000   50.00000   50.00000   90.00000   90.00000   90.00000
LATT -1
SFAC C  
C      1  0.5305630000000  0.5865340000000  0.4600540000000 1.0
C      1  0.4603260000000  0.6197060000000  0.4628350000000 1.0
C      1  0.4473850000000  0.4228260000000  0.4676490000000 1.0
C      1  0.5350840000000  0.4677220000000  0.5798480000000 1.0
C      1  0.5709420000000  0.3925570000000  0.4802290000000 1.0
C      1  0.5878970000000  0.4386220000000  0.4620260000000 1.0
C      1  0.5126720000000  0.5209650000000  0.5458490000000 1.0
C      1  0.5440580000000  0.4149830000000  0.5162150000000 1.0
C      1  0.5398800000000  0.4903470000000  0.5984940000000 1.0
C      1  0.5340540000000  0.4394410000000  0.5880430000000 1.0
C      1  0.5149800000000  0.5126560000000  0.5032370000000 1.0
C      1  0.3900830000000  0.4496220000000  0.5136330000000 1.0
C      1  0.5404700000000  0.4256380000000  0.4571560000000 1.0
C      1  0.4850900000000  0.4587010000000  0.4756940000000 1.0
C      1  0.3694950000000  0.4616420000000  0.4024400000000 1.0
C      1  0.5014640000000  0.4903110000000  0.6299740000000 1.0
C      1  0.4377520000000  0.4036070000000  0.5135080000000 1.0
C      1  0.4000870000000  0.5596520000000  0.5140040000000 1.0
C      1  0.4700940000000  0.4661180000000  0.5017810000000 1.0
C      1  0.4141240000000  0.5759150000000  0.4696480000000 1.0
C      1  0.5719290000000  0.4641370000000  0.4511330000000 1.0
C      1  0.5252620000000  0.5614850000000  0.4462040000000 1.0
C      1  0.4193100000000  0.4717260000000  0.4104040000000 1.0
C      1  0.4686820000000  0.5268190000000  0.5137820000000 1.0
C      1  0.4539130000000  0.6187610000000  0.4908750000000 1.0
C      1  0.4445050000000  0.5122670000000  0.5088950000000 1.0
C      1  0.4610480000000  0.5547060000000  0.4689640000000 1.0
C      1  0.4893730000000  0.5059520000000  0.5144150000000 1.0
C      1  0.5896440000000  0.5455960000000  0.5323320000000 1.0
C      1  0.3950440000000  0.5772690000000  0.4911930000000 1.0
C      1  0.5340340000000  0.4905860000000  0.4945760000000 1.0
C      1  0.3987790000000  0.4415430000000  0.4635510000000 1.0
C      1  0.4654860000000  0.5491120000000  0.5335830000000 1.0
C      1  0.4954680000000  0.3999830000000  0.4653380000000 1.0
C      1  0.5702300000000  0.5665640000000  0.5324080000000 1.0
C      1  0.5107610000000  0.4634550000000  0.5359400000000 1.0
C      1  0.5834030000000  0.5043520000000  0.5062720000000 1.0
C      1  0.5687420000000  0.6142870000000  0.5181880000000 1.0
C      1  0.4817600000000  0.4708050000000  0.6225630000000 1.0
C      1  0.4730170000000  0.5485320000000  0.4438570000000 1.0
C      1  0.5441370000000  0.4538330000000  0.4490960000000 1.0
C      1  0.5116300000000  0.5418540000000  0.4920830000000 1.0
C      1  0.4850990000000  0.3915990000000  0.5247500000000 1.0
C      1  0.4683600000000  0.4003700000000  0.4770340000000 1.0
C      1  0.4814230000000  0.5547640000000  0.5592520000000 1.0
C      1  0.5697070000000  0.4527400000000  0.4971400000000 1.0
C      1  0.4347840000000  0.4537500000000  0.4280880000000 1.0
C      1  0.5425020000000  0.5566680000000  0.5365080000000 1.0
C      1  0.5681030000000  0.4151220000000  0.4622810000000 1.0
C      1  0.4695140000000  0.4417780000000  0.4568550000000 1.0
C      1  0.4930500000000  0.4147750000000  0.5403820000000 1.0
C      1  0.4185550000000  0.5701660000000  0.5331680000000 1.0
C      1  0.5246920000000  0.4621000000000  0.4963490000000 1.0
C      1  0.5855210000000  0.4585930000000  0.5226590000000 1.0
C      1  0.5413520000000  0.5257170000000  0.5489470000000 1.0
C      1  0.5203090000000  0.4812600000000  0.4137050000000 1.0
C      1  0.4847880000000  0.4805390000000  0.5290750000000 1.0
C      1  0.4755750000000  0.5407760000000  0.3984370000000 1.0
C      1  0.5016420000000  0.5222710000000  0.5921680000000 1.0
C      1  0.5439300000000  0.4397320000000  0.4976480000000 1.0
C      1  0.5051750000000  0.5495880000000  0.5756560000000 1.0
C      1  0.4592500000000  0.4741340000000  0.5772410000000 1.0
C      1  0.5585350000000  0.5918540000000  0.4657130000000 1.0
C      1  0.5410690000000  0.5525720000000  0.4219960000000 1.0
C      1  0.4313640000000  0.5525010000000  0.4693960000000 1.0
C      1  0.4789560000000  0.5450530000000  0.4923070000000 1.0
C      1  0.4560340000000  0.5415530000000  0.4203300000000 1.0
C      1  0.5185960000000  0.4598960000000  0.3939160000000 1.0
C      1  0.4780030000000  0.4609410000000  0.5953850000000 1.0
C      1  0.5713610000000  0.5297110000000  0.4569180000000 1.0
C      1  0.4419570000000  0.5154820000000  0.4273100000000 1.0
C      1  0.4614310000000  0.5764070000000  0.5675950000000 1.0
C      1  0.4427470000000  0.4734290000000  0.4931320000000 1.0
C      1  0.5388660000000  0.4177790000000  0.5687560000000 1.0
C      1  0.5618960000000  0.4509960000000  0.5419460000000 1.0
C      1  0.5746110000000  0.5768460000000  0.4848720000000 1.0
C      1  0.4635050000000  0.3916780000000  0.5056050000000 1.0
C      1  0.4039340000000  0.4648290000000  0.5341730000000 1.0
C      1  0.5077360000000  0.6033850000000  0.4711750000000 1.0
C      1  0.4952550000000  0.4985190000000  0.4173720000000 1.0
C      1  0.5203050000000  0.6299370000000  0.5141380000000 1.0
C      1  0.4921570000000  0.4372780000000  0.5865270000000 1.0
C      1  0.5906860000000  0.5321050000000  0.5060020000000 1.0
C      1  0.4731720000000  0.6098750000000  0.5110450000000 1.0
C      1  0.4256260000000  0.5005930000000  0.4083120000000 1.0
C      1  0.4430050000000  0.5194690000000  0.5529810000000 1.0
C      1  0.5646340000000  0.5046920000000  0.5933600000000 1.0
C      1  0.5252280000000  0.5623880000000  0.5108920000000 1.0
C      1  0.5225180000000  0.4708970000000  0.4418720000000 1.0
C      1  0.5628510000000  0.5287540000000  0.5743620000000 1.0
C      1  0.4685100000000  0.4956910000000  0.5576430000000 1.0
C      1  0.5389500000000  0.5041410000000  0.4054160000000 1.0
C      1  0.5925320000000  0.4866570000000  0.5269730000000 1.0
C      1  0.4643010000000  0.4503420000000  0.4277840000000 1.0
C      1  0.5185380000000  0.5379130000000  0.4627260000000 1.0
C      1  0.4987120000000  0.5240070000000  0.4027510000000 1.0
C      1  0.5176060000000  0.4172320000000  0.4738820000000 1.0
C      1  0.5284330000000  0.5326910000000  0.4029970000000 1.0
C      1  0.4233180000000  0.4355160000000  0.4483350000000 1.0
C      1  0.5008090000000  0.4789670000000  0.4610800000000 1.0
C      1  0.5441020000000  0.6241150000000  0.5293600000000 1.0
C      1  0.4756740000000  0.4351880000000  0.4053930000000 1.0
C      1  0.4540200000000  0.5016940000000  0.4504240000000 1.0
C      1  0.4318970000000  0.4647080000000  0.5766450000000 1.0
C      1  0.4850970000000  0.5004670000000  0.4471990000000 1.0
C      1  0.5740690000000  0.5866460000000  0.5123000000000 1.0
C      1  0.4821760000000  0.4184360000000  0.5671170000000 1.0
C      1  0.4074760000000  0.5319880000000  0.5070990000000 1.0
C      1  0.5681300000000  0.5443700000000  0.4309110000000 1.0
C      1  0.6107460000000  0.4397680000000  0.4808990000000 1.0
C      1  0.5552340000000  0.4984850000000  0.5462660000000 1.0
C      1  0.5032390000000  0.4359730000000  0.3971740000000 1.0
C      1  0.5870460000000  0.4876700000000  0.5817970000000 1.0
C      1  0.4211430000000  0.5137970000000  0.5295580000000 1.0
C      1  0.4863710000000  0.6121310000000  0.4532170000000 1.0
C      1  0.5859380000000  0.4983630000000  0.5532800000000 1.0
C      1  0.6082360000000  0.4422290000000  0.5101140000000 1.0
C      1  0.4619300000000  0.5971540000000  0.5380550000000 1.0
C      1  0.5524570000000  0.4236160000000  0.5433920000000 1.0
C      1  0.5635590000000  0.4955620000000  0.4876000000000 1.0
C      1  0.5170950000000  0.5046000000000  0.6103410000000 1.0
C      1  0.4937820000000  0.5291090000000  0.4493700000000 1.0
C      1  0.5892860000000  0.5291340000000  0.5562820000000 1.0
C      1  0.4470560000000  0.5719390000000  0.5284580000000 1.0
C      1  0.5559000000000  0.3910900000000  0.5046830000000 1.0
C      1  0.5028610000000  0.6098300000000  0.5016040000000 1.0
C      1  0.5746760000000  0.4938860000000  0.4598680000000 1.0
C      1  0.4030430000000  0.4355710000000  0.4919960000000 1.0
C      1  0.3973720000000  0.4607980000000  0.3946980000000 1.0
C      1  0.4298860000000  0.4236510000000  0.4939850000000 1.0
C      1  0.5299090000000  0.5624900000000  0.5656540000000 1.0
C      1  0.5821180000000  0.5471140000000  0.4811140000000 1.0
C      1  0.5418360000000  0.5200280000000  0.4612690000000 1.0
C      1  0.4382270000000  0.5008010000000  0.4777730000000 1.0
C      1  0.4953520000000  0.5099890000000  0.5656930000000 1.0
C      1  0.4414250000000  0.5470400000000  0.5694140000000 1.0
C      1  0.5093010000000  0.4354510000000  0.5276840000000 1.0
C      1  0.4003800000000  0.4934340000000  0.5361810000000 1.0
C      1  0.5397700000000  0.4724240000000  0.5501120000000 1.0
C      1  0.4188590000000  0.5275500000000  0.4794700000000 1.0
C      1  0.4195880000000  0.4515020000000  0.5542660000000 1.0
END
