TITL C-862502-1143-1453 0.00366031772953659 125000 -259.04791735974 0 0 46 (C1) n - 1
REM
REM in /home/nfs/bkarasulu/CARBON/AIRSS/Generating-Clusters/TERSOFF/Higher-Symm/FIRE-HFTN
REM
REM
REM
REM
REM
REM ./C.cell (b20cbc046b6831c77cfcea5457e17084)
REM AIRSS Version 0.9.1 bugfix July 2018 build 013d7b7c2542+ Fri, 06 Jul 2018 19:26:36 +0100
REM compiler GCC version 9.2.1 20190827 (Red Hat 9.2.1-1)
REM options -cpp -mtune=generic -march=x86-64 -g -O0 -fpre-include=/usr/include/finclude/math-vector-fortran.h
REM seed 2111571231 592473991 812901038 173174441 -1447164877 -1722639647 -1872643044 913593099 -1647786806 1931150063 1476646187 1916870108 1992462898 -19923784 169647704 771508557 234171957 1858419447 1622639898 -922941967 -1117304541 1298646009 1067647992 1174543652 -1782862481 -39944634 1369507075 -218042330 953721845 -2044448555 700469651 1393953824 -1211570584
REM
CELL 1.54180   50.00000   50.00000   50.00000   90.00000   90.00000   90.00000
LATT -1
SFAC C  
C      1  0.4805970000000  0.4639210000000  0.5672910000000 1.0
C      1  0.5441590000000  0.4856570000000  0.5538680000000 1.0
C      1  0.5153140000000  0.5212570000000  0.5129460000000 1.0
C      1  0.5635460000000  0.5165640000000  0.5142160000000 1.0
C      1  0.4965340000000  0.5688240000000  0.5038100000000 1.0
C      1  0.5123760000000  0.5320540000000  0.4537690000000 1.0
C      1  0.4938570000000  0.4448910000000  0.4838770000000 1.0
C      1  0.5190920000000  0.5418390000000  0.5380470000000 1.0
C      1  0.4833620000000  0.5450600000000  0.4611610000000 1.0
C      1  0.4665800000000  0.5280180000000  0.5207100000000 1.0
C      1  0.4813770000000  0.4716830000000  0.4298950000000 1.0
C      1  0.4432540000000  0.4876880000000  0.5012430000000 1.0
C      1  0.4652310000000  0.4958170000000  0.4296100000000 1.0
C      1  0.5233090000000  0.4529730000000  0.4929960000000 1.0
C      1  0.5036980000000  0.5186010000000  0.5531950000000 1.0
C      1  0.5250510000000  0.5620100000000  0.5139800000000 1.0
C      1  0.4429340000000  0.4828180000000  0.4723520000000 1.0
C      1  0.5316050000000  0.4553410000000  0.5518920000000 1.0
C      1  0.4734650000000  0.4438250000000  0.5081770000000 1.0
C      1  0.5185120000000  0.4475510000000  0.5241190000000 1.0
C      1  0.4578400000000  0.5312240000000  0.4648210000000 1.0
C      1  0.4530160000000  0.4571490000000  0.4634800000000 1.0
C      1  0.4419890000000  0.5155590000000  0.5101960000000 1.0
C      1  0.5471290000000  0.5440560000000  0.4977560000000 1.0
C      1  0.5668070000000  0.4997120000000  0.5401720000000 1.0
C      1  0.5087390000000  0.4532990000000  0.5717860000000 1.0
C      1  0.4756610000000  0.5121910000000  0.5455420000000 1.0
C      1  0.5058240000000  0.4768720000000  0.5227390000000 1.0
C      1  0.5182390000000  0.5677330000000  0.4557810000000 1.0
C      1  0.5360810000000  0.4798180000000  0.4863620000000 1.0
C      1  0.4898500000000  0.4886840000000  0.4976450000000 1.0
C      1  0.4933210000000  0.4838340000000  0.4682830000000 1.0
C      1  0.4824350000000  0.4558940000000  0.4567040000000 1.0
C      1  0.5131970000000  0.4997230000000  0.4531230000000 1.0
C      1  0.4731930000000  0.5576780000000  0.5192780000000 1.0
C      1  0.4926180000000  0.5714590000000  0.4749880000000 1.0
C      1  0.5581660000000  0.5129160000000  0.4580040000000 1.0
C      1  0.4704630000000  0.4816670000000  0.5448660000000 1.0
C      1  0.4514860000000  0.5049130000000  0.4539820000000 1.0
C      1  0.5408110000000  0.4889670000000  0.4582030000000 1.0
C      1  0.5166970000000  0.4939120000000  0.5447680000000 1.0
C      1  0.4933950000000  0.4311410000000  0.5265950000000 1.0
C      1  0.4595320000000  0.4692020000000  0.5191640000000 1.0
C      1  0.5434060000000  0.5366440000000  0.4683620000000 1.0
C      1  0.4888150000000  0.5165930000000  0.5039830000000 1.0
C      1  0.5374390000000  0.5027690000000  0.5062600000000 1.0
END
