TITL C-862130-1496-726 4.51527402118144 125000 -980.034816104485 0 0 172 (C5) n - 1
REM
REM in /home/nfs/bkarasulu/CARBON/AIRSS/Generating-Clusters/TERSOFF/Higher-Symm/FIRE-HFTN
REM
REM
REM
REM
REM
REM ./C.cell (b20cbc046b6831c77cfcea5457e17084)
REM AIRSS Version 0.9.1 bugfix July 2018 build 013d7b7c2542+ Fri, 06 Jul 2018 19:26:36 +0100
REM compiler GCC version 9.2.1 20190827 (Red Hat 9.2.1-1)
REM options -cpp -mtune=generic -march=x86-64 -g -O0 -fpre-include=/usr/include/finclude/math-vector-fortran.h
REM seed -228272662 -1878900654 -625565626 1754839115 1104709876 526157657 392126697 1491994624 693096725 30992201 -868266759 1250899755 2085292031 -174746218 -750095606 1184766211 2124272550 -1592857529 -391890239 797057630 86778691 -1014337656 2067784021 -1402275765 -738249765 -983882024 -277887882 -1204700205 327287833 121247322 1552086049 -1603191233 -1608080052
REM
CELL 1.54180   50.00000   50.00000   50.00000   90.00000   90.00000   90.00000
LATT -1
SFAC C  
C      1  0.4921940000000  0.4338280000000  0.5189560000000 1.0
C      1  0.4921940000000  0.4974800000000  0.5687960000000 1.0
C      1  0.4921940000000  0.5645490000000  0.5236610000000 1.0
C      1  0.4921940000000  0.5423490000000  0.4459260000000 1.0
C      1  0.4921940000000  0.4615590000000  0.4430190000000 1.0
C      1  0.6146600000000  0.4864540000000  0.4774750000000 1.0
C      1  0.6146600000000  0.4742910000000  0.5059270000000 1.0
C      1  0.6146600000000  0.4975920000000  0.5262860000000 1.0
C      1  0.6146600000000  0.5241550000000  0.5104180000000 1.0
C      1  0.6146600000000  0.5172720000000  0.4802510000000 1.0
C      1  0.4054680000000  0.5534340000000  0.5547540000000 1.0
C      1  0.4054680000000  0.5684860000000  0.4661050000000 1.0
C      1  0.4054680000000  0.4888270000000  0.4243970000000 1.0
C      1  0.4054680000000  0.4245430000000  0.4872680000000 1.0
C      1  0.4054680000000  0.4644730000000  0.5678340000000 1.0
C      1  0.5902960000000  0.4771570000000  0.4623210000000 1.0
C      1  0.5902960000000  0.4570060000000  0.5100860000000 1.0
C      1  0.5902960000000  0.4962060000000  0.5440110000000 1.0
C      1  0.5902960000000  0.5405840000000  0.5172130000000 1.0
C      1  0.5902960000000  0.5288110000000  0.4667260000000 1.0
C      1  0.3955770000000  0.5148610000000  0.4676400000000 1.0
C      1  0.3955770000000  0.4737150000000  0.4758720000000 1.0
C      1  0.3955770000000  0.4688290000000  0.5175470000000 1.0
C      1  0.3955770000000  0.5069550000000  0.5350720000000 1.0
C      1  0.3955770000000  0.5354040000000  0.5042280000000 1.0
C      1  0.4978930000000  0.6096680000000  0.5175770000000 1.0
C      1  0.4978930000000  0.5505050000000  0.4011350000000 1.0
C      1  0.4978930000000  0.4214800000000  0.4214210000000 1.0
C      1  0.4978930000000  0.4009020000000  0.5503990000000 1.0
C      1  0.4978930000000  0.5172080000000  0.6098260000000 1.0
C      1  0.4947620000000  0.6103140000000  0.4865460000000 1.0
C      1  0.4947620000000  0.5211930000000  0.3909320000000 1.0
C      1  0.4947620000000  0.4027180000000  0.4461450000000 1.0
C      1  0.4947620000000  0.4186180000000  0.5758820000000 1.0
C      1  0.4947620000000  0.5469190000000  0.6008520000000 1.0
C      1  0.4532270000000  0.5342910000000  0.4144810000000 1.0
C      1  0.4532270000000  0.4291630000000  0.4409650000000 1.0
C      1  0.4532270000000  0.4218640000000  0.5491320000000 1.0
C      1  0.4532270000000  0.5224810000000  0.5894990000000 1.0
C      1  0.4532270000000  0.5919650000000  0.5062800000000 1.0
C      1  0.5638760000000  0.4987060000000  0.5294100000000 1.0
C      1  0.5638760000000  0.5274710000000  0.5103230000000 1.0
C      1  0.5638760000000  0.5182060000000  0.4770690000000 1.0
C      1  0.5638760000000  0.4837160000000  0.4756030000000 1.0
C      1  0.5638760000000  0.4716650000000  0.5079520000000 1.0
C      1  0.4219150000000  0.5739190000000  0.5419710000000 1.0
C      1  0.4219150000000  0.5626590000000  0.4426730000000 1.0
C      1  0.4219150000000  0.4647400000000  0.4226970000000 1.0
C      1  0.4219150000000  0.4154840000000  0.5096510000000 1.0
C      1  0.4219150000000  0.4829610000000  0.5833660000000 1.0
C      1  0.5225860000000  0.3853440000000  0.4872220000000 1.0
C      1  0.5225860000000  0.4523160000000  0.6051000000000 1.0
C      1  0.5225860000000  0.5851200000000  0.5778320000000 1.0
C      1  0.5225860000000  0.6002260000000  0.4431020000000 1.0
C      1  0.5225860000000  0.4767570000000  0.3871020000000 1.0
C      1  0.4274750000000  0.5112730000000  0.5764360000000 1.0
C      1  0.4274740000000  0.5760780000000  0.5129030000000 1.0
C      1  0.4274740000000  0.5356800000000  0.4316380000000 1.0
C      1  0.4274740000000  0.4459090000000  0.4449450000000 1.0
C      1  0.4274750000000  0.4308240000000  0.5344360000000 1.0
C      1  0.4687350000000  0.5255560000000  0.5006050000000 1.0
C      1  0.4687350000000  0.5083720000000  0.4758870000000 1.0
C      1  0.4687350000000  0.4795530000000  0.4845910000000 1.0
C      1  0.4687350000000  0.4789260000000  0.5146890000000 1.0
C      1  0.4687350000000  0.5073570000000  0.5245860000000 1.0
C      1  0.4750590000000  0.4421870000000  0.4232940000000 1.0
C      1  0.4750600000000  0.4090830000000  0.5312850000000 1.0
C      1  0.4750600000000  0.5015580000000  0.5961400000000 1.0
C      1  0.4750590000000  0.5918150000000  0.5282320000000 1.0
C      1  0.4750590000000  0.5551220000000  0.4214080000000 1.0
C      1  0.5263350000000  0.5381130000000  0.4351110000000 1.0
C      1  0.5263350000000  0.4499640000000  0.4437050000000 1.0
C      1  0.5263360000000  0.4308980000000  0.5301960000000 1.0
C      1  0.5263360000000  0.5072640000000  0.5750550000000 1.0
C      1  0.5263350000000  0.5735260000000  0.5162900000000 1.0
C      1  0.4641520000000  0.5994140000000  0.5566410000000 1.0
C      1  0.4641520000000  0.5844880000000  0.4229590000000 1.0
C      1  0.4641520000000  0.4527370000000  0.3958440000000 1.0
C      1  0.4641520000000  0.3862360000000  0.5127680000000 1.0
C      1  0.4641520000000  0.4768880000000  0.6121460000000 1.0
C      1  0.4650670000000  0.4014600000000  0.4588040000000 1.0
C      1  0.4650670000000  0.4302690000000  0.5809910000000 1.0
C      1  0.4650670000000  0.5553780000000  0.5913500000000 1.0
C      1  0.4650670000000  0.6038910000000  0.4755660000000 1.0
C      1  0.4650670000000  0.5087650000000  0.3936470000000 1.0
C      1  0.5445580000000  0.4567660000000  0.3972730000000 1.0
C      1  0.5445580000000  0.3888400000000  0.5093780000000 1.0
C      1  0.5445580000000  0.4744680000000  0.6086220000000 1.0
C      1  0.5445580000000  0.5953150000000  0.5578530000000 1.0
C      1  0.5445580000000  0.5843750000000  0.4272320000000 1.0
C      1  0.5141610000000  0.5353330000000  0.4957600000000 1.0
C      1  0.5141610000000  0.5067860000000  0.4650900000000 1.0
C      1  0.5141610000000  0.4687950000000  0.4827630000000 1.0
C      1  0.5141610000000  0.4738630000000  0.5243550000000 1.0
C      1  0.5141610000000  0.5149860000000  0.5323880000000 1.0
C      1  0.4880880000000  0.5159420000000  0.5440680000000 1.0
C      1  0.4880880000000  0.5467370000000  0.4984610000000 1.0
C      1  0.4880880000000  0.5128780000000  0.4550790000000 1.0
C      1  0.4880880000000  0.4611560000000  0.4738760000000 1.0
C      1  0.4880880000000  0.4630500000000  0.5288740000000 1.0
C      1  0.5180010000000  0.5036120000000  0.3980990000000 1.0
C      1  0.5180010000000  0.4041020000000  0.4650800000000 1.0
C      1  0.5180010000000  0.4370540000000  0.5804180000000 1.0
C      1  0.5180010000000  0.5569300000000  0.5847200000000 1.0
C      1  0.5180010000000  0.5980650000000  0.4720410000000 1.0
C      1  0.5263730000000  0.5594190000000  0.4130470000000 1.0
C      1  0.5263730000000  0.4355640000000  0.4166240000000 1.0
C      1  0.5263730000000  0.4006920000000  0.5355220000000 1.0
C      1  0.5263730000000  0.5029950000000  0.6054290000000 1.0
C      1  0.5263730000000  0.6010940000000  0.5297350000000 1.0
C      1  0.4828880000000  0.4366270000000  0.4898900000000 1.0
C      1  0.4828880000000  0.4707000000000  0.5571520000000 1.0
C      1  0.4828880000000  0.5452000000000  0.5455310000000 1.0
C      1  0.4828880000000  0.5571690000000  0.4710870000000 1.0
C      1  0.4828880000000  0.4900670000000  0.4366980000000 1.0
C      1  0.5320800000000  0.5506770000000  0.4813680000000 1.0
C      1  0.5320800000000  0.4978390000000  0.4460500000000 1.0
C      1  0.5320800000000  0.4479220000000  0.4853880000000 1.0
C      1  0.5320800000000  0.4699100000000  0.5450180000000 1.0
C      1  0.5320800000000  0.5334160000000  0.5425330000000 1.0
C      1  0.5922930000000  0.5796850000000  0.4519560000000 1.0
C      1  0.5922930000000  0.4788320000000  0.4093730000000 1.0
C      1  0.5922930000000  0.4071670000000  0.4921320000000 1.0
C      1  0.5922930000000  0.4637290000000  0.5858630000000 1.0
C      1  0.5922930000000  0.5703510000000  0.5610330000000 1.0
C      1  0.4366740000000  0.5099280000000  0.4746350000000 1.0
C      1  0.4366740000000  0.4788440000000  0.4827240000000 1.0
C      1  0.4366740000000  0.4769310000000  0.5147860000000 1.0
C      1  0.4366740000000  0.5068330000000  0.5265130000000 1.0
C      1  0.4366740000000  0.5272270000000  0.5016990000000 1.0
C      1  0.4613880000000  0.4578360000000  0.5691830000000 1.0
C      1  0.4613880000000  0.5526670000000  0.5614840000000 1.0
C      1  0.4613880000000  0.5746490000000  0.4689150000000 1.0
C      1  0.4613880000000  0.4934030000000  0.4194030000000 1.0
C      1  0.4613880000000  0.4212090000000  0.4813730000000 1.0
C      1  0.5657040000000  0.4476480000000  0.4250350000000 1.0
C      1  0.5657040000000  0.4124260000000  0.5266290000000 1.0
C      1  0.5657040000000  0.4981630000000  0.5915210000000 1.0
C      1  0.5657040000000  0.5863740000000  0.5300330000000 1.0
C      1  0.5657030000000  0.5551540000000  0.4271390000000 1.0
C      1  0.5328460000000  0.5120520000000  0.4211220000000 1.0
C      1  0.5328470000000  0.4286060000000  0.4641680000000 1.0
C      1  0.5328470000000  0.4437590000000  0.5568310000000 1.0
C      1  0.5328470000000  0.5365700000000  0.5710550000000 1.0
C      1  0.5328460000000  0.5787770000000  0.4871820000000 1.0
C      1  0.5897200000000  0.4272720000000  0.5138710000000 1.0
C      1  0.5897200000000  0.4906170000000  0.5734590000000 1.0
C      1  0.5897200000000  0.5668640000000  0.5316280000000 1.0
C      1  0.5897200000000  0.5506420000000  0.4461870000000 1.0
C      1  0.5897200000000  0.4643690000000  0.4352120000000 1.0
C      1  0.5718630000000  0.4721280000000  0.3896100000000 1.0
C      1  0.5718630000000  0.3863000000000  0.4924000000000 1.0
C      1  0.5718640000000  0.4575360000000  0.6057910000000 1.0
C      1  0.5718630000000  0.5873910000000  0.5730810000000 1.0
C      1  0.5718630000000  0.5964090000000  0.4394740000000 1.0
C      1  0.4109990000000  0.4480190000000  0.4705730000000 1.0
C      1  0.4110000000000  0.4558490000000  0.5403480000000 1.0
C      1  0.4110000000000  0.5246290000000  0.5544620000000 1.0
C      1  0.4109990000000  0.5593070000000  0.4934100000000 1.0
C      1  0.4109990000000  0.5119590000000  0.4415640000000 1.0
C      1  0.4669010000000  0.4789090000000  0.3803770000000 1.0
C      1  0.4669010000000  0.3796130000000  0.4830980000000 1.0
C      1  0.4669010000000  0.4466230000000  0.6092760000000 1.0
C      1  0.4669010000000  0.5873330000000  0.5845370000000 1.0
C      1  0.4669010000000  0.6072860000000  0.4430700000000 1.0
C      1  0.5451550000000  0.4921760000000  0.5553890000000 1.0
C      1  0.5451540000000  0.5501600000000  0.5245620000000 1.0
C      1  0.5451540000000  0.5387590000000  0.4598900000000 1.0
C      1  0.5451540000000  0.4737300000000  0.4507470000000 1.0
C      1  0.5451550000000  0.4449390000000  0.5097690000000 1.0
C      1  0.4016670000000  0.4999530000000  0.5000720000000 1.0
C      1  0.5187200000000  0.4999530000000  0.5000710000000 1.0
END
