TITL C-862502-1143-1215 26.7106907112593 125000 -860.65973044886 0 0 147 (C1) n - 1
REM
REM in /home/nfs/bkarasulu/CARBON/AIRSS/Generating-Clusters/TERSOFF/Higher-Symm/FIRE-HFTN
REM
REM
REM
REM
REM
REM ./C.cell (b20cbc046b6831c77cfcea5457e17084)
REM AIRSS Version 0.9.1 bugfix July 2018 build 013d7b7c2542+ Fri, 06 Jul 2018 19:26:36 +0100
REM compiler GCC version 9.2.1 20190827 (Red Hat 9.2.1-1)
REM options -cpp -mtune=generic -march=x86-64 -g -O0 -fpre-include=/usr/include/finclude/math-vector-fortran.h
REM seed 1344088556 -289097479 898437777 656551263 1378990615 -157214527 -479159516 -1968517295 -624722122 1506938671 1517763340 530030635 125089603 -1116013023 338028355 -1792486388 24651566 1642332844 1716038870 -1206282227 -1270148968 -478033299 -1315501894 -1151440035 1355553837 -563530724 -361339510 -709028282 454710598 -1502654863 32753349 665486392 364281795
REM
CELL 1.54180   50.00000   50.00000   50.00000   90.00000   90.00000   90.00000
LATT -1
SFAC C  
C      1  0.5289910000000  0.3984360000000  0.5135010000000 1.0
C      1  0.5320160000000  0.5354700000000  0.4807020000000 1.0
C      1  0.4128150000000  0.5415140000000  0.4740670000000 1.0
C      1  0.4162940000000  0.4474300000000  0.5182220000000 1.0
C      1  0.5378020000000  0.5149660000000  0.5872400000000 1.0
C      1  0.5113010000000  0.4781040000000  0.5913700000000 1.0
C      1  0.4625810000000  0.4185040000000  0.5668130000000 1.0
C      1  0.6183040000000  0.4819570000000  0.5093250000000 1.0
C      1  0.4871040000000  0.4188710000000  0.4404790000000 1.0
C      1  0.5161830000000  0.4795190000000  0.5237420000000 1.0
C      1  0.4341360000000  0.5337970000000  0.5450050000000 1.0
C      1  0.5298790000000  0.4407160000000  0.5869350000000 1.0
C      1  0.5819290000000  0.5376960000000  0.5549030000000 1.0
C      1  0.4195070000000  0.4892240000000  0.5208270000000 1.0
C      1  0.4171380000000  0.5118840000000  0.5836280000000 1.0
C      1  0.5275830000000  0.4507180000000  0.5323780000000 1.0
C      1  0.4937130000000  0.5127590000000  0.4541330000000 1.0
C      1  0.5073180000000  0.5619120000000  0.3766130000000 1.0
C      1  0.5398330000000  0.5325120000000  0.4515350000000 1.0
C      1  0.4897650000000  0.4510400000000  0.5551410000000 1.0
C      1  0.5781890000000  0.5439920000000  0.4907430000000 1.0
C      1  0.5014000000000  0.4824090000000  0.4961930000000 1.0
C      1  0.5168820000000  0.5943030000000  0.5201740000000 1.0
C      1  0.4117020000000  0.5323320000000  0.5621660000000 1.0
C      1  0.5824820000000  0.4881470000000  0.5701640000000 1.0
C      1  0.4760260000000  0.5963200000000  0.5518800000000 1.0
C      1  0.4600910000000  0.4085760000000  0.4459670000000 1.0
C      1  0.4509460000000  0.5558310000000  0.5444990000000 1.0
C      1  0.4597780000000  0.4836980000000  0.5830030000000 1.0
C      1  0.5081060000000  0.4992830000000  0.5461510000000 1.0
C      1  0.5060470000000  0.5919990000000  0.5484630000000 1.0
C      1  0.5471900000000  0.4390200000000  0.4791490000000 1.0
C      1  0.5640370000000  0.4312080000000  0.5396250000000 1.0
C      1  0.5388160000000  0.4871140000000  0.5941630000000 1.0
C      1  0.4900550000000  0.5804580000000  0.4222820000000 1.0
C      1  0.4893390000000  0.6182200000000  0.4576230000000 1.0
C      1  0.5559560000000  0.4688460000000  0.3882190000000 1.0
C      1  0.5590880000000  0.5539180000000  0.4459700000000 1.0
C      1  0.5354320000000  0.3812700000000  0.4905910000000 1.0
C      1  0.4188010000000  0.5070880000000  0.4472520000000 1.0
C      1  0.5850800000000  0.4436890000000  0.5218820000000 1.0
C      1  0.5027920000000  0.5645370000000  0.5904590000000 1.0
C      1  0.5656300000000  0.5620920000000  0.5519630000000 1.0
C      1  0.5712730000000  0.5102620000000  0.5549270000000 1.0
C      1  0.4828680000000  0.4612120000000  0.4863330000000 1.0
C      1  0.4428700000000  0.5910340000000  0.4858930000000 1.0
C      1  0.5017490000000  0.5292170000000  0.4286290000000 1.0
C      1  0.5558200000000  0.5026170000000  0.5081710000000 1.0
C      1  0.4360970000000  0.4657210000000  0.5661340000000 1.0
C      1  0.5151030000000  0.5167040000000  0.4018490000000 1.0
C      1  0.3925550000000  0.5370960000000  0.4948920000000 1.0
C      1  0.5181530000000  0.4651250000000  0.4384480000000 1.0
C      1  0.4925770000000  0.5674590000000  0.4810420000000 1.0
C      1  0.5695160000000  0.4809080000000  0.4943280000000 1.0
C      1  0.4536490000000  0.3809420000000  0.4395440000000 1.0
C      1  0.5525440000000  0.4042270000000  0.5325890000000 1.0
C      1  0.5039030000000  0.5421200000000  0.4908960000000 1.0
C      1  0.4755190000000  0.4495650000000  0.4018160000000 1.0
C      1  0.4398190000000  0.4036340000000  0.5312920000000 1.0
C      1  0.5522350000000  0.5009720000000  0.5357130000000 1.0
C      1  0.4944800000000  0.4310350000000  0.4146110000000 1.0
C      1  0.5440970000000  0.3911510000000  0.4650670000000 1.0
C      1  0.5040440000000  0.5332740000000  0.3792380000000 1.0
C      1  0.5110180000000  0.4997190000000  0.4744840000000 1.0
C      1  0.5378710000000  0.4185020000000  0.4563350000000 1.0
C      1  0.4168950000000  0.4868910000000  0.4692570000000 1.0
C      1  0.6030410000000  0.4661500000000  0.5296150000000 1.0
C      1  0.4137640000000  0.5903720000000  0.4907500000000 1.0
C      1  0.5193620000000  0.5552120000000  0.6119220000000 1.0
C      1  0.4987070000000  0.4782500000000  0.5652260000000 1.0
C      1  0.5540900000000  0.5289330000000  0.4972420000000 1.0
C      1  0.4380920000000  0.5139340000000  0.5251030000000 1.0
C      1  0.4884570000000  0.4364970000000  0.5270770000000 1.0
C      1  0.5223620000000  0.4437980000000  0.4168810000000 1.0
C      1  0.5262490000000  0.4387630000000  0.5021370000000 1.0
C      1  0.5066900000000  0.4219880000000  0.4618730000000 1.0
C      1  0.4922610000000  0.4113580000000  0.5683860000000 1.0
C      1  0.4986780000000  0.5939790000000  0.4976300000000 1.0
C      1  0.4364850000000  0.4874860000000  0.4919900000000 1.0
C      1  0.4451570000000  0.5197430000000  0.4426300000000 1.0
C      1  0.4398800000000  0.4360730000000  0.4853800000000 1.0
C      1  0.5035760000000  0.5955220000000  0.4442130000000 1.0
C      1  0.4601510000000  0.5721460000000  0.5675550000000 1.0
C      1  0.4812870000000  0.4778550000000  0.4088810000000 1.0
C      1  0.4009710000000  0.5805710000000  0.5155770000000 1.0
C      1  0.5070890000000  0.4877700000000  0.3966180000000 1.0
C      1  0.5699660000000  0.5661710000000  0.4706590000000 1.0
C      1  0.5190990000000  0.4212260000000  0.5513680000000 1.0
C      1  0.4622870000000  0.5341750000000  0.6039650000000 1.0
C      1  0.5157130000000  0.5701180000000  0.5646060000000 1.0
C      1  0.4815620000000  0.5517800000000  0.4239700000000 1.0
C      1  0.5665380000000  0.5804640000000  0.5289850000000 1.0
C      1  0.4987820000000  0.4077950000000  0.5172600000000 1.0
C      1  0.5457230000000  0.5814390000000  0.4807840000000 1.0
C      1  0.5682160000000  0.5592510000000  0.4194040000000 1.0
C      1  0.4740330000000  0.5582020000000  0.5894500000000 1.0
C      1  0.3878280000000  0.5408460000000  0.5465600000000 1.0
C      1  0.6040520000000  0.4742270000000  0.5573500000000 1.0
C      1  0.5596660000000  0.4722770000000  0.5796150000000 1.0
C      1  0.5436490000000  0.4263900000000  0.4274500000000 1.0
C      1  0.5179330000000  0.5778950000000  0.4640070000000 1.0
C      1  0.3894100000000  0.4870150000000  0.5208700000000 1.0
C      1  0.6065290000000  0.4999570000000  0.4888740000000 1.0
C      1  0.5251140000000  0.5208080000000  0.5608570000000 1.0
C      1  0.4192130000000  0.4185240000000  0.5174560000000 1.0
C      1  0.4394850000000  0.4259390000000  0.4578960000000 1.0
C      1  0.4607180000000  0.4928670000000  0.5278010000000 1.0
C      1  0.5740650000000  0.5026320000000  0.4264510000000 1.0
C      1  0.4530830000000  0.4609900000000  0.4938530000000 1.0
C      1  0.4910530000000  0.4745420000000  0.4370770000000 1.0
C      1  0.5596810000000  0.4652070000000  0.4706490000000 1.0
C      1  0.4596470000000  0.6087530000000  0.5021700000000 1.0
C      1  0.4498160000000  0.5182880000000  0.4955220000000 1.0
C      1  0.5772190000000  0.4577400000000  0.4054240000000 1.0
C      1  0.4754510000000  0.4571240000000  0.5978420000000 1.0
C      1  0.5438690000000  0.5862290000000  0.5107910000000 1.0
C      1  0.5401100000000  0.4798600000000  0.4517650000000 1.0
C      1  0.4469900000000  0.5108270000000  0.5920930000000 1.0
C      1  0.5485280000000  0.4490730000000  0.5622740000000 1.0
C      1  0.4580570000000  0.5663550000000  0.4775560000000 1.0
C      1  0.5862960000000  0.4758710000000  0.4266310000000 1.0
C      1  0.5450440000000  0.5182730000000  0.4004290000000 1.0
C      1  0.6038580000000  0.5294600000000  0.4910270000000 1.0
C      1  0.5844110000000  0.4629480000000  0.4530550000000 1.0
C      1  0.4127530000000  0.4826460000000  0.5773030000000 1.0
C      1  0.5002510000000  0.4366300000000  0.4867950000000 1.0
C      1  0.5602250000000  0.5427890000000  0.3973810000000 1.0
C      1  0.4738880000000  0.4668670000000  0.4578510000000 1.0
C      1  0.4662180000000  0.5588910000000  0.5203270000000 1.0
C      1  0.4999130000000  0.4382610000000  0.5845500000000 1.0
C      1  0.4522770000000  0.4424340000000  0.5810090000000 1.0
C      1  0.4659280000000  0.5081010000000  0.4581070000000 1.0
C      1  0.4376840000000  0.4664010000000  0.5362400000000 1.0
C      1  0.4877190000000  0.5370720000000  0.5158080000000 1.0
C      1  0.4848690000000  0.6185950000000  0.4874040000000 1.0
C      1  0.4666360000000  0.5893640000000  0.5243310000000 1.0
C      1  0.5487480000000  0.5059440000000  0.4408050000000 1.0
C      1  0.5278940000000  0.4652800000000  0.3954590000000 1.0
C      1  0.5263210000000  0.5474000000000  0.5507680000000 1.0
C      1  0.3921160000000  0.4615590000000  0.5042430000000 1.0
C      1  0.5702900000000  0.4311420000000  0.4164510000000 1.0
C      1  0.5392260000000  0.5350590000000  0.6080420000000 1.0
C      1  0.3903340000000  0.5533680000000  0.5191740000000 1.0
C      1  0.3945880000000  0.4689030000000  0.4753170000000 1.0
C      1  0.4526760000000  0.5436780000000  0.4268590000000 1.0
C      1  0.4418810000000  0.5407780000000  0.4788320000000 1.0
C      1  0.4858120000000  0.5101310000000  0.5298380000000 1.0
END
