TITL C-862133-5440-481 0.000329080303803882 125000 -280.36014505726 0 0 49 (C1) n - 1
REM
REM in /home/nfs/bkarasulu/CARBON/AIRSS/Generating-Clusters/TERSOFF/Higher-Symm/FIRE-HFTN
REM
REM
REM
REM
REM
REM ./C.cell (b20cbc046b6831c77cfcea5457e17084)
REM AIRSS Version 0.9.1 bugfix July 2018 build 013d7b7c2542+ Fri, 06 Jul 2018 19:26:36 +0100
REM compiler GCC version 9.2.1 20190827 (Red Hat 9.2.1-1)
REM options -cpp -mtune=generic -march=x86-64 -g -O0 -fpre-include=/usr/include/finclude/math-vector-fortran.h
REM seed -2098576023 550982788 129078313 1902742970 113435287 -1876947602 -1982673017 1602559373 -940213778 852431808 630795752 1348468245 -1069405116 -433867087 526622418 -1966745474 -1497096995 696480957 -7722851 1873916408 -2081248605 1237546123 -1024001671 -1441049337 -878250661 -697870379 -613957374 -1055103127 895884383 -127293410 -2051675879 414313466 1215503250
REM
CELL 1.54180   50.00000   50.00000   50.00000   90.00000   90.00000   90.00000
LATT -1
SFAC C  
C      1  0.5139060000000  0.5590240000000  0.4402040000000 1.0
C      1  0.4851250000000  0.5595300000000  0.5578710000000 1.0
C      1  0.5138570000000  0.5594790000000  0.5578440000000 1.0
C      1  0.4851740000000  0.5591280000000  0.4402020000000 1.0
C      1  0.5289680000000  0.5381270000000  0.5451610000000 1.0
C      1  0.4700080000000  0.5379700000000  0.4531090000000 1.0
C      1  0.5289910000000  0.5377450000000  0.4530410000000 1.0
C      1  0.4699850000000  0.5382580000000  0.5451210000000 1.0
C      1  0.5361000000000  0.4212260000000  0.5143640000000 1.0
C      1  0.4634460000000  0.4213880000000  0.4847020000000 1.0
C      1  0.5360920000000  0.4210910000000  0.4847770000000 1.0
C      1  0.4634690000000  0.4214650000000  0.5142920000000 1.0
C      1  0.5143150000000  0.4421250000000  0.5553060000000 1.0
C      1  0.4850540000000  0.4421370000000  0.4435810000000 1.0
C      1  0.5143100000000  0.4416020000000  0.4436380000000 1.0
C      1  0.4850570000000  0.4424300000000  0.5553130000000 1.0
C      1  0.5168580000000  0.5105510000000  0.4520570000000 1.0
C      1  0.4823850000000  0.5113480000000  0.5457270000000 1.0
C      1  0.5168720000000  0.5109260000000  0.5463370000000 1.0
C      1  0.4823720000000  0.5110410000000  0.4527050000000 1.0
C      1  0.4506640000000  0.5448080000000  0.5243800000000 1.0
C      1  0.5482750000000  0.5442700000000  0.4738040000000 1.0
C      1  0.4506700000000  0.5446930000000  0.4737790000000 1.0
C      1  0.5482700000000  0.5445240000000  0.5243730000000 1.0
C      1  0.5310980000000  0.4443690000000  0.4674350000000 1.0
C      1  0.4682950000000  0.4449060000000  0.5314660000000 1.0
C      1  0.5311180000000  0.4446610000000  0.5314940000000 1.0
C      1  0.4682720000000  0.4447320000000  0.4674010000000 1.0
C      1  0.5217720000000  0.4925820000000  0.4756390000000 1.0
C      1  0.4775380000000  0.4929960000000  0.5226250000000 1.0
C      1  0.5217970000000  0.4927970000000  0.5228810000000 1.0
C      1  0.4775130000000  0.4928700000000  0.4759460000000 1.0
C      1  0.5415630000000  0.4707560000000  0.4751750000000 1.0
C      1  0.4577460000000  0.4711850000000  0.5234750000000 1.0
C      1  0.5415860000000  0.4709740000000  0.5235110000000 1.0
C      1  0.4577220000000  0.4710520000000  0.4752480000000 1.0
C      1  0.5174850000000  0.4960820000000  0.5751450000000 1.0
C      1  0.4868480000000  0.4967870000000  0.4250430000000 1.0
C      1  0.5174620000000  0.4954980000000  0.4233510000000 1.0
C      1  0.4868660000000  0.4973010000000  0.5735010000000 1.0
C      1  0.5576870000000  0.4706470000000  0.4993360000000 1.0
C      1  0.4415340000000  0.4707910000000  0.4993710000000 1.0
C      1  0.5416660000000  0.5572870000000  0.4990230000000 1.0
C      1  0.4572860000000  0.5576310000000  0.4990510000000 1.0
C      1  0.4737950000000  0.5816820000000  0.4990010000000 1.0
C      1  0.5253050000000  0.5814390000000  0.4988980000000 1.0
C      1  0.4996600000000  0.4589430000000  0.4993960000000 1.0
C      1  0.4997280000000  0.4905190000000  0.4992810000000 1.0
C      1  0.4995880000000  0.5841160000000  0.5121640000000 1.0
END
