TITL C-862503-991-236 0.370882468450789 125000 -347.874262544249 0 0 64 (C3) n - 1
REM
REM in /home/nfs/bkarasulu/CARBON/AIRSS/Generating-Clusters/TERSOFF/Higher-Symm/FIRE-HFTN
REM
REM
REM
REM
REM
REM ./C.cell (b20cbc046b6831c77cfcea5457e17084)
REM AIRSS Version 0.9.1 bugfix July 2018 build 013d7b7c2542+ Fri, 06 Jul 2018 19:26:36 +0100
REM compiler GCC version 9.2.1 20190827 (Red Hat 9.2.1-1)
REM options -cpp -mtune=generic -march=x86-64 -g -O0 -fpre-include=/usr/include/finclude/math-vector-fortran.h
REM seed -1551797257 -540664166 -1828124524 100967400 -2027748104 2064215161 -1704995443 -962728716 -194376903 -122186927 2069627927 -1334068549 -1963036107 -1403208537 -233450123 -599747840 1039419500 -426404671 1890082559 -646871189 340492889 218113405 -1875213248 755739842 -13878229 29427745 -2108739537 963718333 -117798982 -1618485062 -642900211 321949724 -1311688974
REM
CELL 1.54180   50.00000   50.00000   50.00000   90.00000   90.00000   90.00000
LATT -1
SFAC C  
C      1  0.5072360000000  0.4938800000000  0.4419590000000 1.0
C      1  0.5072360000000  0.4520500000000  0.5344280000000 1.0
C      1  0.5072360000000  0.5530460000000  0.5244190000000 1.0
C      1  0.5341820000000  0.5279760000000  0.4958590000000 1.0
C      1  0.5341820000000  0.4816810000000  0.4779500000000 1.0
C      1  0.5341820000000  0.4893180000000  0.5269970000000 1.0
C      1  0.5745130000000  0.5172860000000  0.5116740000000 1.0
C      1  0.5745130000000  0.5007220000000  0.4793000000000 1.0
C      1  0.5745130000000  0.4809680000000  0.5098320000000 1.0
C      1  0.5273570000000  0.5547440000000  0.4558950000000 1.0
C      1  0.5273570000000  0.4336870000000  0.4747500000000 1.0
C      1  0.5273570000000  0.5105450000000  0.5701610000000 1.0
C      1  0.4955820000000  0.4760180000000  0.5171640000000 1.0
C      1  0.4955820000000  0.5261110000000  0.5122950000000 1.0
C      1  0.4955820000000  0.4968470000000  0.4713470000000 1.0
C      1  0.5013630000000  0.4582630000000  0.4408470000000 1.0
C      1  0.5013630000000  0.4688960000000  0.5658290000000 1.0
C      1  0.5013630000000  0.5718170000000  0.4941300000000 1.0
C      1  0.5054750000000  0.4838270000000  0.3873510000000 1.0
C      1  0.5054750000000  0.4097850000000  0.5704390000000 1.0
C      1  0.5054750000000  0.6053640000000  0.5430170000000 1.0
C      1  0.5017680000000  0.4982950000000  0.5685890000000 1.0
C      1  0.5017680000000  0.5595080000000  0.4672890000000 1.0
C      1  0.5017680000000  0.4411730000000  0.4649280000000 1.0
C      1  0.4910090000000  0.4296840000000  0.5550750000000 1.0
C      1  0.4910090000000  0.5821100000000  0.5334660000000 1.0
C      1  0.4910090000000  0.4871820000000  0.4122650000000 1.0
C      1  0.4795740000000  0.4432680000000  0.4834850000000 1.0
C      1  0.4795740000000  0.5133180000000  0.5574960000000 1.0
C      1  0.4795740000000  0.5423890000000  0.4598260000000 1.0
C      1  0.4408630000000  0.5621670000000  0.4866810000000 1.0
C      1  0.4408630000000  0.4566370000000  0.4529290000000 1.0
C      1  0.4408630000000  0.4801720000000  0.5611970000000 1.0
C      1  0.4976660000000  0.4524930000000  0.5897070000000 1.0
C      1  0.4976660000000  0.6006970000000  0.4963960000000 1.0
C      1  0.4976660000000  0.4457850000000  0.4147030000000 1.0
C      1  0.5381540000000  0.5530760000000  0.5292970000000 1.0
C      1  0.5381540000000  0.4980890000000  0.4394940000000 1.0
C      1  0.5381540000000  0.4478110000000  0.5320150000000 1.0
C      1  0.4608000000000  0.4320990000000  0.5561560000000 1.0
C      1  0.4608000000000  0.5818380000000  0.5308340000000 1.0
C      1  0.4608000000000  0.4850390000000  0.4138170000000 1.0
C      1  0.4585670000000  0.4288050000000  0.5271410000000 1.0
C      1  0.4585670000000  0.5583580000000  0.5481940000000 1.0
C      1  0.4585670000000  0.5118140000000  0.4254710000000 1.0
C      1  0.4466460000000  0.4529930000000  0.5712400000000 1.0
C      1  0.4466460000000  0.5844540000000  0.5051970000000 1.0
C      1  0.4466460000000  0.4615290000000  0.4243700000000 1.0
C      1  0.5551470000000  0.5132090000000  0.4588400000000 1.0
C      1  0.5551470000000  0.4570050000000  0.5092480000000 1.0
C      1  0.5551470000000  0.5287620000000  0.5327180000000 1.0
C      1  0.4687300000000  0.5237920000000  0.5025630000000 1.0
C      1  0.4687300000000  0.4895790000000  0.4782220000000 1.0
C      1  0.4687300000000  0.4856050000000  0.5200220000000 1.0
C      1  0.4592080000000  0.5399650000000  0.4808930000000 1.0
C      1  0.4592080000000  0.4627260000000  0.4750510000000 1.0
C      1  0.4592080000000  0.4962860000000  0.5448630000000 1.0
C      1  0.4826840000000  0.4363540000000  0.5124330000000 1.0
C      1  0.4826840000000  0.5418450000000  0.5490100000000 1.0
C      1  0.4826830000000  0.5207770000000  0.4393630000000 1.0
C      1  0.5441690000000  0.5373200000000  0.4704520000000 1.0
C      1  0.5441690000000  0.4550060000000  0.4825610000000 1.0
C      1  0.5441700000000  0.5066500000000  0.5477930000000 1.0
C      1  0.5305730000000  0.4996590000000  0.5002690000000 1.0
END
