TITL C-862131-2149-1133 0.000455272039314898 125000 -291.425874037319 0 0 57 (C4) n - 1
REM
REM in /home/nfs/bkarasulu/CARBON/AIRSS/Generating-Clusters/TERSOFF/Higher-Symm/FIRE-HFTN
REM
REM
REM
REM
REM
REM ./C.cell (b20cbc046b6831c77cfcea5457e17084)
REM AIRSS Version 0.9.1 bugfix July 2018 build 013d7b7c2542+ Fri, 06 Jul 2018 19:26:36 +0100
REM compiler GCC version 9.2.1 20190827 (Red Hat 9.2.1-1)
REM options -cpp -mtune=generic -march=x86-64 -g -O0 -fpre-include=/usr/include/finclude/math-vector-fortran.h
REM seed -88928826 -1209822051 1790595589 393749096 1676571134 -621250215 -1002829773 -1536755917 1338508373 -1244143894 -1847723021 -2099929949 -1331578704 -318180144 875254238 -876611594 219604333 547078526 1838385334 -643659744 1672770554 -1617999674 1493299334 -1756309047 -96342884 -432701940 518857516 -1621951290 -1764697310 -729737285 -1924996296 1239846125 -504908337
REM
CELL 1.54180   50.00000   50.00000   50.00000   90.00000   90.00000   90.00000
LATT -1
SFAC C  
C      1  0.4467850000000  0.5190430000000  0.4628390000000 1.0
C      1  0.5181780000000  0.5531950000000  0.4628390000000 1.0
C      1  0.5523300000000  0.4818030000000  0.4628390000000 1.0
C      1  0.4809370000000  0.4476500000000  0.4628390000000 1.0
C      1  0.4722780000000  0.4591520000000  0.5455630000000 1.0
C      1  0.4582870000000  0.5277020000000  0.5455620000000 1.0
C      1  0.5268360000000  0.5416930000000  0.5455620000000 1.0
C      1  0.5408280000000  0.4731440000000  0.5455630000000 1.0
C      1  0.5301130000000  0.5070930000000  0.4251770000000 1.0
C      1  0.5062270000000  0.4698670000000  0.4251770000000 1.0
C      1  0.4690020000000  0.4937530000000  0.4251770000000 1.0
C      1  0.4928870000000  0.5309780000000  0.4251770000000 1.0
C      1  0.5234330000000  0.4487800000000  0.5507000000000 1.0
C      1  0.4479150000000  0.4765470000000  0.5507000000000 1.0
C      1  0.4756820000000  0.5520660000000  0.5507000000000 1.0
C      1  0.5512000000000  0.5242980000000  0.5507000000000 1.0
C      1  0.4385170000000  0.4808920000000  0.5172970000000 1.0
C      1  0.4800270000000  0.5614630000000  0.5172970000000 1.0
C      1  0.5605980000000  0.5199530000000  0.5172970000000 1.0
C      1  0.5190880000000  0.4393820000000  0.5172970000000 1.0
C      1  0.5349140000000  0.5058730000000  0.5124900000000 1.0
C      1  0.5050070000000  0.4650660000000  0.5124900000000 1.0
C      1  0.4642000000000  0.4949730000000  0.5124900000000 1.0
C      1  0.4941070000000  0.5357800000000  0.5124900000000 1.0
C      1  0.5225270000000  0.4964830000000  0.5367780000000 1.0
C      1  0.4956180000000  0.4774530000000  0.5367780000000 1.0
C      1  0.4765870000000  0.5043620000000  0.5367780000000 1.0
C      1  0.5034970000000  0.5233930000000  0.5367780000000 1.0
C      1  0.5065070000000  0.5758030000000  0.5098040000000 1.0
C      1  0.5749380000000  0.4934730000000  0.5098040000000 1.0
C      1  0.4926070000000  0.4250420000000  0.5098040000000 1.0
C      1  0.4241770000000  0.5073730000000  0.5098040000000 1.0
C      1  0.4555490000000  0.4928650000000  0.4511640000000 1.0
C      1  0.4920000000000  0.5444310000000  0.4511640000000 1.0
C      1  0.5435660000000  0.5079810000000  0.4511640000000 1.0
C      1  0.5071150000000  0.4564140000000  0.4511640000000 1.0
C      1  0.4746130000000  0.4938260000000  0.5691100000000 1.0
C      1  0.4929600000000  0.5253670000000  0.5691100000000 1.0
C      1  0.5245020000000  0.5070200000000  0.5691100000000 1.0
C      1  0.5061550000000  0.4754780000000  0.5691100000000 1.0
C      1  0.5030450000000  0.4785570000000  0.4866140000000 1.0
C      1  0.4776910000000  0.4969350000000  0.4866140000000 1.0
C      1  0.4960700000000  0.5222890000000  0.4866140000000 1.0
C      1  0.5214230000000  0.5039100000000  0.4866140000000 1.0
C      1  0.4439720000000  0.4590420000000  0.4958990000000 1.0
C      1  0.4581760000000  0.5560080000000  0.4958990000000 1.0
C      1  0.5551420000000  0.5418040000000  0.4958990000000 1.0
C      1  0.5409380000000  0.4448380000000  0.4958990000000 1.0
C      1  0.5625940000000  0.4734740000000  0.4914930000000 1.0
C      1  0.4726080000000  0.4373860000000  0.4914920000000 1.0
C      1  0.4365210000000  0.5273720000000  0.4914920000000 1.0
C      1  0.5265060000000  0.5634590000000  0.4914920000000 1.0
C      1  0.4660190000000  0.5433660000000  0.4662370000000 1.0
C      1  0.5425010000000  0.5339610000000  0.4662370000000 1.0
C      1  0.5330950000000  0.4574790000000  0.4662370000000 1.0
C      1  0.4566140000000  0.4668850000000  0.4662370000000 1.0
C      1  0.4995570000000  0.5004230000000  0.4209590000000 1.0
END
