TITL C-862506-1665-572 -0.00069053251687615 125000 -701.227137609671 0 0 127 (C3) n - 1
REM
REM in /home/nfs/bkarasulu/CARBON/AIRSS/Generating-Clusters/TERSOFF/Higher-Symm/FIRE-HFTN
REM
REM
REM
REM
REM
REM ./C.cell (b20cbc046b6831c77cfcea5457e17084)
REM AIRSS Version 0.9.1 bugfix July 2018 build 013d7b7c2542+ Fri, 06 Jul 2018 19:26:36 +0100
REM compiler GCC version 9.2.1 20190827 (Red Hat 9.2.1-1)
REM options -cpp -mtune=generic -march=x86-64 -g -O0 -fpre-include=/usr/include/finclude/math-vector-fortran.h
REM seed -1439543077 -9835667 -131467494 480032124 816264991 -459813112 -859051736 -1024933162 1556537628 -1650595811 -1557980129 -1270506236 340865268 -687043972 106905401 -248781363 -657030653 -53469922 1241784837 345208000 678445396 -573852632 -609911135 -969914043 1245901719 198494359 -1650040173 1304018058 807187379 990090148 -410985991 1992431211 -317621431
REM
CELL 1.54180   50.00000   50.00000   50.00000   90.00000   90.00000   90.00000
LATT -1
SFAC C  
C      1  0.5433340000000  0.5318580000000  0.5408510000000 1.0
C      1  0.5433340000000  0.5201400000000  0.4519840000000 1.0
C      1  0.5433340000000  0.4490380000000  0.5065660000000 1.0
C      1  0.5415750000000  0.4418180000000  0.5788220000000 1.0
C      1  0.5415750000000  0.5980440000000  0.5109760000000 1.0
C      1  0.5415750000000  0.4611750000000  0.4096040000000 1.0
C      1  0.5336980000000  0.5651170000000  0.4556800000000 1.0
C      1  0.5336980000000  0.4297500000000  0.4657670000000 1.0
C      1  0.5336980000000  0.5061690000000  0.5779550000000 1.0
C      1  0.4763780000000  0.4519020000000  0.4294030000000 1.0
C      1  0.4763780000000  0.4636010000000  0.5769530000000 1.0
C      1  0.4763780000000  0.5855340000000  0.4930460000000 1.0
C      1  0.4195820000000  0.5135470000000  0.4773290000000 1.0
C      1  0.4195820000000  0.4742830000000  0.4996030000000 1.0
C      1  0.4195820000000  0.5132060000000  0.5224700000000 1.0
C      1  0.4719550000000  0.4977510000000  0.4578040000000 1.0
C      1  0.4719550000000  0.4652720000000  0.5230460000000 1.0
C      1  0.4719550000000  0.5380130000000  0.5185520000000 1.0
C      1  0.4598630000000  0.4105310000000  0.5106980000000 1.0
C      1  0.4598630000000  0.5546900000000  0.5721340000000 1.0
C      1  0.4598630000000  0.5358160000000  0.4165710000000 1.0
C      1  0.5489490000000  0.5690480000000  0.5099860000000 1.0
C      1  0.5489490000000  0.4748140000000  0.4352100000000 1.0
C      1  0.5489490000000  0.4571740000000  0.5542070000000 1.0
C      1  0.5350870000000  0.5351540000000  0.5706950000000 1.0
C      1  0.5350870000000  0.5443370000000  0.4342090000000 1.0
C      1  0.5350870000000  0.4215450000000  0.4944980000000 1.0
C      1  0.5751670000000  0.4412280000000  0.4701740000000 1.0
C      1  0.5751670000000  0.5042470000000  0.5658110000000 1.0
C      1  0.5751670000000  0.5555610000000  0.4634170000000 1.0
C      1  0.4793020000000  0.5194370000000  0.4389350000000 1.0
C      1  0.4793020000000  0.4380880000000  0.5137000000000 1.0
C      1  0.4793020000000  0.5435110000000  0.5467670000000 1.0
C      1  0.4113590000000  0.5401550000000  0.4873570000000 1.0
C      1  0.4113590000000  0.4696640000000  0.4715470000000 1.0
C      1  0.4113590000000  0.4912170000000  0.5404990000000 1.0
C      1  0.4873090000000  0.5145890000000  0.5548910000000 1.0
C      1  0.4873090000000  0.5409330000000  0.4599200000000 1.0
C      1  0.4873090000000  0.4455140000000  0.4845910000000 1.0
C      1  0.4532530000000  0.5106030000000  0.5473810000000 1.0
C      1  0.4532530000000  0.5364230000000  0.4671270000000 1.0
C      1  0.4532530000000  0.4540110000000  0.4848930000000 1.0
C      1  0.4844910000000  0.4212730000000  0.4645490000000 1.0
C      1  0.4844910000000  0.5093530000000  0.5859060000000 1.0
C      1  0.4844910000000  0.5704110000000  0.4489470000000 1.0
C      1  0.4618330000000  0.4406780000000  0.5660010000000 1.0
C      1  0.4618330000000  0.5875100000000  0.5183740000000 1.0
C      1  0.4618330000000  0.4728480000000  0.4150270000000 1.0
C      1  0.5710830000000  0.5202930000000  0.5272310000000 1.0
C      1  0.5710830000000  0.5141270000000  0.4688110000000 1.0
C      1  0.5710830000000  0.4666170000000  0.5033600000000 1.0
C      1  0.5106230000000  0.4213740000000  0.4509730000000 1.0
C      1  0.5106230000000  0.4975450000000  0.5926060000000 1.0
C      1  0.5106230000000  0.5821170000000  0.4558230000000 1.0
C      1  0.5378430000000  0.4846970000000  0.4851590000000 1.0
C      1  0.5378430000000  0.4954890000000  0.5206730000000 1.0
C      1  0.5378430000000  0.5208500000000  0.4935700000000 1.0
C      1  0.5137190000000  0.4700600000000  0.4122970000000 1.0
C      1  0.5137190000000  0.4397080000000  0.5697800000000 1.0
C      1  0.5137190000000  0.5912680000000  0.5173240000000 1.0
C      1  0.5742830000000  0.5620880000000  0.5248550000000 1.0
C      1  0.5742830000000  0.4911720000000  0.4338030000000 1.0
C      1  0.5742830000000  0.4477770000000  0.5407440000000 1.0
C      1  0.5476040000000  0.4583310000000  0.4619980000000 1.0
C      1  0.5476040000000  0.4886140000000  0.5550880000000 1.0
C      1  0.5476040000000  0.5540910000000  0.4823170000000 1.0
C      1  0.5260830000000  0.4967240000000  0.4421290000000 1.0
C      1  0.5260830000000  0.4522110000000  0.5317720000000 1.0
C      1  0.5260830000000  0.5521010000000  0.5255000000000 1.0
C      1  0.4036230000000  0.4966200000000  0.4586580000000 1.0
C      1  0.4036230000000  0.4665780000000  0.5235980000000 1.0
C      1  0.4036230000000  0.5378390000000  0.5171450000000 1.0
C      1  0.5769690000000  0.4199650000000  0.4921430000000 1.0
C      1  0.5769690000000  0.5339040000000  0.5732410000000 1.0
C      1  0.5769690000000  0.5471680000000  0.4340180000000 1.0
C      1  0.5003150000000  0.4880050000000  0.4657410000000 1.0
C      1  0.5003150000000  0.4770190000000  0.5275170000000 1.0
C      1  0.5003150000000  0.5360120000000  0.5061430000000 1.0
C      1  0.5168160000000  0.5129360000000  0.5401020000000 1.0
C      1  0.5168160000000  0.5289520000000  0.4687470000000 1.0
C      1  0.5168160000000  0.4591480000000  0.4905530000000 1.0
C      1  0.5014660000000  0.5710840000000  0.4972810000000 1.0
C      1  0.5014660000000  0.4627940000000  0.4397990000000 1.0
C      1  0.5014660000000  0.4671580000000  0.5623220000000 1.0
C      1  0.4766280000000  0.4181680000000  0.5531770000000 1.0
C      1  0.4766280000000  0.5876590000000  0.5442800000000 1.0
C      1  0.4766280000000  0.4952090000000  0.4019450000000 1.0
C      1  0.4237760000000  0.5027090000000  0.4365430000000 1.0
C      1  0.4237760000000  0.4443810000000  0.5293830000000 1.0
C      1  0.4237760000000  0.5539460000000  0.5334760000000 1.0
C      1  0.4847860000000  0.5564050000000  0.4200040000000 1.0
C      1  0.4847860000000  0.4032100000000  0.4911500000000 1.0
C      1  0.4847860000000  0.5414220000000  0.5882480000000 1.0
C      1  0.5732630000000  0.4227510000000  0.5230940000000 1.0
C      1  0.5732630000000  0.5593150000000  0.5553530000000 1.0
C      1  0.5732630000000  0.5189700000000  0.4209550000000 1.0
C      1  0.5107720000000  0.5531880000000  0.5735900000000 1.0
C      1  0.5107720000000  0.5378280000000  0.4171430000000 1.0
C      1  0.5107720000000  0.4100210000000  0.5086690000000 1.0
C      1  0.4610510000000  0.4332770000000  0.4468850000000 1.0
C      1  0.4610510000000  0.4880530000000  0.5843420000000 1.0
C      1  0.4610510000000  0.5797060000000  0.4681750000000 1.0
C      1  0.5863730000000  0.4676340000000  0.4778760000000 1.0
C      1  0.5863730000000  0.4977140000000  0.5390910000000 1.0
C      1  0.5863730000000  0.5356880000000  0.4824340000000 1.0
C      1  0.4507310000000  0.5142330000000  0.5148170000000 1.0
C      1  0.4507310000000  0.5064070000000  0.4802660000000 1.0
C      1  0.4507310000000  0.4803970000000  0.5043190000000 1.0
C      1  0.4365940000000  0.4854650000000  0.5605520000000 1.0
C      1  0.4365940000000  0.5603980000000  0.4823120000000 1.0
C      1  0.4365940000000  0.4551730000000  0.4565380000000 1.0
C      1  0.4388410000000  0.5696820000000  0.5127820000000 1.0
C      1  0.4388410000000  0.4769200000000  0.4332630000000 1.0
C      1  0.4388410000000  0.4544350000000  0.5533570000000 1.0
C      1  0.4385690000000  0.4330090000000  0.5052260000000 1.0
C      1  0.4385690000000  0.5387120000000  0.5554030000000 1.0
C      1  0.4385690000000  0.5293160000000  0.4387730000000 1.0
C      1  0.5862980000000  0.5389710000000  0.5109050000000 1.0
C      1  0.5862980000000  0.4906490000000  0.4607980000000 1.0
C      1  0.5862980000000  0.4714160000000  0.5276990000000 1.0
C      1  0.4608750000000  0.5835550000000  0.5682300000000 1.0
C      1  0.4608750000000  0.5180020000000  0.3935240000000 1.0
C      1  0.4608750000000  0.3994790000000  0.5376470000000 1.0
C      1  0.5069020000000  0.5750570000000  0.5460020000000 1.0
C      1  0.5069020000000  0.5030010000000  0.4119980000000 1.0
C      1  0.5069020000000  0.4229780000000  0.5414020000000 1.0
C      1  0.5017880000000  0.5003450000000  0.4998010000000 1.0
END
