TITL C-862129-6180-1310 0.00763535266427657 125000 -924.285801103489 0 0 157 (C1) n - 1
REM
REM in /home/nfs/bkarasulu/CARBON/AIRSS/Generating-Clusters/TERSOFF/Higher-Symm/FIRE-HFTN
REM
REM
REM
REM
REM
REM ./C.cell (b20cbc046b6831c77cfcea5457e17084)
REM AIRSS Version 0.9.1 bugfix July 2018 build 013d7b7c2542+ Fri, 06 Jul 2018 19:26:36 +0100
REM compiler GCC version 9.2.1 20190827 (Red Hat 9.2.1-1)
REM options -cpp -mtune=generic -march=x86-64 -g -O0 -fpre-include=/usr/include/finclude/math-vector-fortran.h
REM seed -1953925194 -376187478 -802822683 -1805203718 -302829291 986272956 302768940 1932330609 1667999037 -1531492584 1937156931 17042354 758935870 -2127359145 1865146509 -673902120 -1957359070 351576715 -1695636823 1442782847 -2083050295 -1779323098 326848875 -1817255883 766585961 1950486850 367114657 -1606820112 -272640942 -1554482123 -594510028 -914716017 128397365
REM
CELL 1.54180   50.00000   50.00000   50.00000   90.00000   90.00000   90.00000
LATT -1
SFAC C  
C      1  0.4896460000000  0.4259280000000  0.5734490000000 1.0
C      1  0.5702180000000  0.4225450000000  0.5341310000000 1.0
C      1  0.5548460000000  0.4216160000000  0.4434220000000 1.0
C      1  0.4637560000000  0.4248390000000  0.4347220000000 1.0
C      1  0.4294430000000  0.4277790000000  0.5138330000000 1.0
C      1  0.4897200000000  0.5761960000000  0.5765590000000 1.0
C      1  0.5657800000000  0.5721980000000  0.5313980000000 1.0
C      1  0.5494940000000  0.5719390000000  0.4476100000000 1.0
C      1  0.4645180000000  0.5744320000000  0.4327970000000 1.0
C      1  0.4219080000000  0.5773400000000  0.5137460000000 1.0
C      1  0.5022260000000  0.6127290000000  0.4737770000000 1.0
C      1  0.4743200000000  0.6139310000000  0.4907240000000 1.0
C      1  0.4826020000000  0.6144330000000  0.5222250000000 1.0
C      1  0.5146110000000  0.6135870000000  0.5240880000000 1.0
C      1  0.5263840000000  0.6126220000000  0.4946860000000 1.0
C      1  0.5012120000000  0.3846380000000  0.4717900000000 1.0
C      1  0.4744610000000  0.3859840000000  0.4890060000000 1.0
C      1  0.4820960000000  0.3866510000000  0.5197220000000 1.0
C      1  0.5143040000000  0.3857080000000  0.5223530000000 1.0
C      1  0.5264210000000  0.3847030000000  0.4922180000000 1.0
C      1  0.4025030000000  0.5456810000000  0.5461750000000 1.0
C      1  0.5151390000000  0.5424670000000  0.5990770000000 1.0
C      1  0.5930750000000  0.5379020000000  0.5130020000000 1.0
C      1  0.5417110000000  0.5389760000000  0.4143980000000 1.0
C      1  0.4271720000000  0.5445560000000  0.4244960000000 1.0
C      1  0.4175100000000  0.4619320000000  0.5446900000000 1.0
C      1  0.5153200000000  0.4557810000000  0.6009570000000 1.0
C      1  0.6056300000000  0.4534900000000  0.5195550000000 1.0
C      1  0.5507230000000  0.4536190000000  0.4066440000000 1.0
C      1  0.4307040000000  0.4591480000000  0.4332530000000 1.0
C      1  0.4074420000000  0.5369990000000  0.4753160000000 1.0
C      1  0.4483970000000  0.5374120000000  0.5812050000000 1.0
C      1  0.5601540000000  0.5346190000000  0.5724210000000 1.0
C      1  0.5857510000000  0.5323940000000  0.4663340000000 1.0
C      1  0.4946180000000  0.5331640000000  0.4059190000000 1.0
C      1  0.4098020000000  0.4659990000000  0.4774580000000 1.0
C      1  0.4495210000000  0.4666380000000  0.5785140000000 1.0
C      1  0.5603540000000  0.4627950000000  0.5741860000000 1.0
C      1  0.5893550000000  0.4615890000000  0.4658510000000 1.0
C      1  0.4931790000000  0.4621710000000  0.4043090000000 1.0
C      1  0.4425150000000  0.5666380000000  0.5730470000000 1.0
C      1  0.5514820000000  0.5637670000000  0.5763620000000 1.0
C      1  0.5859530000000  0.5608620000000  0.4775660000000 1.0
C      1  0.5059330000000  0.5616520000000  0.4103580000000 1.0
C      1  0.4146700000000  0.5656730000000  0.4668440000000 1.0
C      1  0.4428750000000  0.4382980000000  0.5683910000000 1.0
C      1  0.5490200000000  0.4343560000000  0.5765920000000 1.0
C      1  0.5887610000000  0.4326340000000  0.4765600000000 1.0
C      1  0.5020920000000  0.4328500000000  0.4068220000000 1.0
C      1  0.4152440000000  0.4372270000000  0.4687290000000 1.0
C      1  0.5180560000000  0.5721930000000  0.5302050000000 1.0
C      1  0.5307770000000  0.5711120000000  0.4903540000000 1.0
C      1  0.4968210000000  0.5718720000000  0.4659090000000 1.0
C      1  0.4631850000000  0.5734710000000  0.4906950000000 1.0
C      1  0.4762340000000  0.5737640000000  0.5304260000000 1.0
C      1  0.5242540000000  0.4261760000000  0.5272740000000 1.0
C      1  0.5364200000000  0.4251620000000  0.4872850000000 1.0
C      1  0.5022220000000  0.4257210000000  0.4632080000000 1.0
C      1  0.4689140000000  0.4275860000000  0.4884860000000 1.0
C      1  0.4824760000000  0.4277680000000  0.5280740000000 1.0
C      1  0.5030420000000  0.3902300000000  0.4407910000000 1.0
C      1  0.4464710000000  0.3938480000000  0.4774570000000 1.0
C      1  0.4618470000000  0.3942220000000  0.5426550000000 1.0
C      1  0.5307290000000  0.3909020000000  0.5491040000000 1.0
C      1  0.5570370000000  0.3887000000000  0.4844740000000 1.0
C      1  0.5052630000000  0.6059130000000  0.4428290000000 1.0
C      1  0.4451150000000  0.6094520000000  0.4788090000000 1.0
C      1  0.4626560000000  0.6100980000000  0.5464840000000 1.0
C      1  0.5308630000000  0.6068350000000  0.5501810000000 1.0
C      1  0.5558990000000  0.6046810000000  0.4879630000000 1.0
C      1  0.5815850000000  0.4670790000000  0.5554600000000 1.0
C      1  0.5779120000000  0.4666250000000  0.4398040000000 1.0
C      1  0.4647080000000  0.4682290000000  0.4079440000000 1.0
C      1  0.4023160000000  0.4704050000000  0.5052090000000 1.0
C      1  0.4730350000000  0.4693090000000  0.5949000000000 1.0
C      1  0.5822240000000  0.5294790000000  0.5540020000000 1.0
C      1  0.5761190000000  0.5288190000000  0.4392180000000 1.0
C      1  0.4660650000000  0.5304000000000  0.4068920000000 1.0
C      1  0.4012460000000  0.5323710000000  0.5029950000000 1.0
C      1  0.4733090000000  0.5316690000000  0.5955440000000 1.0
C      1  0.4373090000000  0.4824490000000  0.5336090000000 1.0
C      1  0.5156210000000  0.4778260000000  0.5804610000000 1.0
C      1  0.5862580000000  0.4748440000000  0.5116530000000 1.0
C      1  0.5372120000000  0.4745270000000  0.4229450000000 1.0
C      1  0.4475860000000  0.4798850000000  0.4476950000000 1.0
C      1  0.4230880000000  0.5246680000000  0.5415650000000 1.0
C      1  0.5120860000000  0.5218170000000  0.5775010000000 1.0
C      1  0.5706900000000  0.5170950000000  0.5114080000000 1.0
C      1  0.5313500000000  0.5182010000000  0.4339210000000 1.0
C      1  0.4382540000000  0.5228210000000  0.4418600000000 1.0
C      1  0.4914760000000  0.5835100000000  0.4259230000000 1.0
C      1  0.4238730000000  0.5874130000000  0.4859870000000 1.0
C      1  0.4638080000000  0.5877820000000  0.5684150000000 1.0
C      1  0.5521470000000  0.5845390000000  0.5543690000000 1.0
C      1  0.5661290000000  0.5821520000000  0.4694790000000 1.0
C      1  0.4884050000000  0.4124120000000  0.4244460000000 1.0
C      1  0.4274510000000  0.4163960000000  0.4868150000000 1.0
C      1  0.4636650000000  0.4166720000000  0.5639350000000 1.0
C      1  0.5523190000000  0.4128060000000  0.5554750000000 1.0
C      1  0.5699600000000  0.4109130000000  0.4664460000000 1.0
C      1  0.5626210000000  0.5540410000000  0.4272530000000 1.0
C      1  0.4508120000000  0.5563940000000  0.4130100000000 1.0
C      1  0.3997600000000  0.5578270000000  0.5200350000000 1.0
C      1  0.4904890000000  0.5574260000000  0.6000960000000 1.0
C      1  0.5892810000000  0.5541640000000  0.5365630000000 1.0
C      1  0.5688910000000  0.4410640000000  0.4251880000000 1.0
C      1  0.4482820000000  0.4432860000000  0.4167320000000 1.0
C      1  0.4071360000000  0.4456660000000  0.5232540000000 1.0
C      1  0.4895670000000  0.4435160000000  0.5977870000000 1.0
C      1  0.5921160000000  0.4415800000000  0.5422150000000 1.0
C      1  0.4448400000000  0.4894460000000  0.5608100000000 1.0
C      1  0.5440110000000  0.4858640000000  0.5825640000000 1.0
C      1  0.5929380000000  0.4838940000000  0.4845660000000 1.0
C      1  0.5130920000000  0.4830980000000  0.4086210000000 1.0
C      1  0.4252370000000  0.4874380000000  0.4652130000000 1.0
C      1  0.4344800000000  0.5159080000000  0.5671710000000 1.0
C      1  0.5399250000000  0.5138460000000  0.5746350000000 1.0
C      1  0.5799640000000  0.5101510000000  0.4843350000000 1.0
C      1  0.5091030000000  0.5104700000000  0.4174390000000 1.0
C      1  0.4155660000000  0.5142950000000  0.4584900000000 1.0
C      1  0.5316290000000  0.4352120000000  0.4568080000000 1.0
C      1  0.4732340000000  0.4381850000000  0.4596960000000 1.0
C      1  0.4569020000000  0.4401590000000  0.5150130000000 1.0
C      1  0.5046340000000  0.4376910000000  0.5496960000000 1.0
C      1  0.5524380000000  0.4351100000000  0.5131260000000 1.0
C      1  0.5254740000000  0.5597950000000  0.4612870000000 1.0
C      1  0.4659370000000  0.5625500000000  0.4606820000000 1.0
C      1  0.4485200000000  0.5640710000000  0.5183550000000 1.0
C      1  0.4974300000000  0.5623430000000  0.5512110000000 1.0
C      1  0.5434790000000  0.5592430000000  0.5161640000000 1.0
C      1  0.5095580000000  0.4800950000000  0.5249750000000 1.0
C      1  0.5332230000000  0.4789850000000  0.5038530000000 1.0
C      1  0.5202100000000  0.4793230000000  0.4747120000000 1.0
C      1  0.4901130000000  0.4801200000000  0.4789610000000 1.0
C      1  0.4836930000000  0.4812120000000  0.5081670000000 1.0
C      1  0.4952060000000  0.5193160000000  0.5279350000000 1.0
C      1  0.5178150000000  0.5177250000000  0.5083010000000 1.0
C      1  0.5067740000000  0.5185850000000  0.4806300000000 1.0
C      1  0.4754590000000  0.5192800000000  0.4817530000000 1.0
C      1  0.4684070000000  0.5199700000000  0.5128120000000 1.0
C      1  0.4460880000000  0.5357790000000  0.5231450000000 1.0
C      1  0.4993150000000  0.5337450000000  0.5529730000000 1.0
C      1  0.5438720000000  0.5302810000000  0.5143350000000 1.0
C      1  0.5227100000000  0.5312310000000  0.4592920000000 1.0
C      1  0.4600600000000  0.5343160000000  0.4612440000000 1.0
C      1  0.4583620000000  0.4689660000000  0.5173960000000 1.0
C      1  0.5098310000000  0.4660760000000  0.5517670000000 1.0
C      1  0.5573020000000  0.4633360000000  0.5098150000000 1.0
C      1  0.5311060000000  0.4635980000000  0.4521520000000 1.0
C      1  0.4716360000000  0.4669960000000  0.4602790000000 1.0
C      1  0.4543400000000  0.5003120000000  0.4207460000000 1.0
C      1  0.5608440000000  0.4976670000000  0.4330870000000 1.0
C      1  0.5828390000000  0.4973850000000  0.5376940000000 1.0
C      1  0.4112370000000  0.5015770000000  0.5184450000000 1.0
C      1  0.4901950000000  0.4999840000000  0.5914660000000 1.0
C      1  0.5026070000000  0.4186050000000  0.4990360000000 1.0
C      1  0.4972690000000  0.5804400000000  0.5013630000000 1.0
END
