TITL C-862128-1543-444 -0.00134211850885349 125000 -213.137177650096 0 0 38 (C2) n - 1
REM
REM in /home/nfs/bkarasulu/CARBON/AIRSS/Generating-Clusters/TERSOFF/Higher-Symm/FIRE-HFTN
REM
REM
REM
REM
REM
REM ./C.cell (b20cbc046b6831c77cfcea5457e17084)
REM AIRSS Version 0.9.1 bugfix July 2018 build 013d7b7c2542+ Fri, 06 Jul 2018 19:26:36 +0100
REM compiler GCC version 9.2.1 20190827 (Red Hat 9.2.1-1)
REM options -cpp -mtune=generic -march=x86-64 -g -O0 -fpre-include=/usr/include/finclude/math-vector-fortran.h
REM seed 1373144503 2147101476 -1784504919 819712222 -1673737015 1936416549 590334863 1864493635 721126838 737932331 -863556166 -2061622695 -48157798 -123234204 -1566740564 512568280 1363395403 -2119972777 -2054749789 -195225201 -668507369 -253613645 -374737940 1000273365 -695202783 1873503131 876623368 -1765094154 1223823539 78937892 1432197647 -60319991 -138834537
REM
CELL 1.54180   50.00000   50.00000   50.00000   90.00000   90.00000   90.00000
LATT -1
SFAC C  
C      1  0.4522990000000  0.5108420000000  0.5229580000000 1.0
C      1  0.4955980000000  0.5516660000000  0.5281150000000 1.0
C      1  0.5467440000000  0.5189450000000  0.5257170000000 1.0
C      1  0.5352040000000  0.4594550000000  0.5260440000000 1.0
C      1  0.4739830000000  0.4563490000000  0.5215760000000 1.0
C      1  0.4522970000000  0.4884700000000  0.4764790000000 1.0
C      1  0.4956000000000  0.4476500000000  0.4713170000000 1.0
C      1  0.5467430000000  0.4803750000000  0.4737110000000 1.0
C      1  0.5351980000000  0.5398640000000  0.4733850000000 1.0
C      1  0.4739770000000  0.5429650000000  0.4778590000000 1.0
C      1  0.4927940000000  0.4355500000000  0.5138670000000 1.0
C      1  0.4379710000000  0.4862640000000  0.5158910000000 1.0
C      1  0.4675100000000  0.5559570000000  0.5194750000000 1.0
C      1  0.5434520000000  0.5469870000000  0.5184310000000 1.0
C      1  0.5592390000000  0.4737780000000  0.5167510000000 1.0
C      1  0.4927870000000  0.5637660000000  0.4855660000000 1.0
C      1  0.4379690000000  0.5130470000000  0.4835480000000 1.0
C      1  0.4675130000000  0.4433560000000  0.4799600000000 1.0
C      1  0.5434550000000  0.4523330000000  0.4809980000000 1.0
C      1  0.5592360000000  0.5255430000000  0.4826750000000 1.0
C      1  0.5171170000000  0.4785930000000  0.5414070000000 1.0
C      1  0.4866010000000  0.4774370000000  0.5387360000000 1.0
C      1  0.4760000000000  0.5053890000000  0.5393220000000 1.0
C      1  0.4983290000000  0.5251660000000  0.5423090000000 1.0
C      1  0.5242480000000  0.5086550000000  0.5421080000000 1.0
C      1  0.5171110000000  0.5207240000000  0.4580230000000 1.0
C      1  0.4865950000000  0.5218780000000  0.4606980000000 1.0
C      1  0.4759960000000  0.4939250000000  0.4601130000000 1.0
C      1  0.4983270000000  0.4741500000000  0.4571230000000 1.0
C      1  0.5242450000000  0.4906640000000  0.4573220000000 1.0
C      1  0.5188030000000  0.4444170000000  0.4985660000000 1.0
C      1  0.5187980000000  0.5549000000000  0.5008650000000 1.0
C      1  0.4523340000000  0.5351720000000  0.5008620000000 1.0
C      1  0.5545700000000  0.4996600000000  0.4997140000000 1.0
C      1  0.4523370000000  0.4641410000000  0.4985750000000 1.0
C      1  0.5053550000000  0.5238940000000  0.4982180000000 1.0
C      1  0.5053580000000  0.4754230000000  0.5012140000000 1.0
C      1  0.5200250000000  0.4996590000000  0.4997150000000 1.0
END
