TITL C-862506-1665-200 0.0371572545749789 125000 -1084.50481463144 0 0 186 (Ci) n - 1
REM
REM in /home/nfs/bkarasulu/CARBON/AIRSS/Generating-Clusters/TERSOFF/Higher-Symm/FIRE-HFTN
REM
REM
REM
REM
REM
REM ./C.cell (b20cbc046b6831c77cfcea5457e17084)
REM AIRSS Version 0.9.1 bugfix July 2018 build 013d7b7c2542+ Fri, 06 Jul 2018 19:26:36 +0100
REM compiler GCC version 9.2.1 20190827 (Red Hat 9.2.1-1)
REM options -cpp -mtune=generic -march=x86-64 -g -O0 -fpre-include=/usr/include/finclude/math-vector-fortran.h
REM seed -782711553 -1874111356 336766133 -421045799 -1303713911 1954900490 -2047773770 -1229468157 -734781656 -405608181 -1378570990 181087460 1625437053 -930060369 -126769121 -997556746 -1117009935 1358236211 -347583323 -1348333180 -209528228 1338321753 -827140440 -1968203674 -1074052686 -481203145 1432532912 -862374152 -290898876 419333840 1893167868 149413013 -60241846
REM
CELL 1.54180   50.00000   50.00000   50.00000   90.00000   90.00000   90.00000
LATT -1
SFAC C  
C      1  0.4290860000000  0.5135810000000  0.5304720000000 1.0
C      1  0.5688740000000  0.4864540000000  0.5293400000000 1.0
C      1  0.4311260000000  0.5135460000000  0.4696130000000 1.0
C      1  0.5709140000000  0.4864190000000  0.4684810000000 1.0
C      1  0.4278380000000  0.4852260000000  0.5313440000000 1.0
C      1  0.5683670000000  0.5148290000000  0.5274190000000 1.0
C      1  0.4316330000000  0.4851710000000  0.4715340000000 1.0
C      1  0.5721620000000  0.5147740000000  0.4676090000000 1.0
C      1  0.4111250000000  0.5301710000000  0.4844540000000 1.0
C      1  0.5899690000000  0.4699240000000  0.4846740000000 1.0
C      1  0.4100310000000  0.5300760000000  0.5142790000000 1.0
C      1  0.5888750000000  0.4698290000000  0.5144980000000 1.0
C      1  0.4096010000000  0.4706190000000  0.4853560000000 1.0
C      1  0.5917370000000  0.5302290000000  0.4840550000000 1.0
C      1  0.4082630000000  0.4697710000000  0.5148980000000 1.0
C      1  0.5903990000000  0.5293810000000  0.5135970000000 1.0
C      1  0.4309950000000  0.5312920000000  0.5902240000000 1.0
C      1  0.5679090000000  0.4711840000000  0.5890790000000 1.0
C      1  0.4320910000000  0.5288160000000  0.4098730000000 1.0
C      1  0.5690050000000  0.4687080000000  0.4087290000000 1.0
C      1  0.4316670000000  0.4728180000000  0.5955640000000 1.0
C      1  0.5679690000000  0.5302990000000  0.5894080000000 1.0
C      1  0.4320310000000  0.4697010000000  0.4095440000000 1.0
C      1  0.5683330000000  0.5271820000000  0.4033890000000 1.0
C      1  0.4538700000000  0.5263400000000  0.4540540000000 1.0
C      1  0.5479810000000  0.4736120000000  0.4530870000000 1.0
C      1  0.4520190000000  0.5263880000000  0.5458660000000 1.0
C      1  0.5461300000000  0.4736600000000  0.5448980000000 1.0
C      1  0.4530820000000  0.4697460000000  0.4545800000000 1.0
C      1  0.5510270000000  0.5288920000000  0.4502680000000 1.0
C      1  0.4489730000000  0.4711080000000  0.5486850000000 1.0
C      1  0.5469180000000  0.5302540000000  0.5443730000000 1.0
C      1  0.5291280000000  0.5614170000000  0.4147980000000 1.0
C      1  0.4718260000000  0.4365810000000  0.4135510000000 1.0
C      1  0.5281740000000  0.5634190000000  0.5854020000000 1.0
C      1  0.4708720000000  0.4385830000000  0.5841540000000 1.0
C      1  0.5287350000000  0.4368660000000  0.4115090000000 1.0
C      1  0.4722450000000  0.5613500000000  0.4130530000000 1.0
C      1  0.5277550000000  0.4386500000000  0.5858990000000 1.0
C      1  0.4712650000000  0.5631340000000  0.5874440000000 1.0
C      1  0.5565560000000  0.5725950000000  0.5867580000000 1.0
C      1  0.4423140000000  0.4298000000000  0.5844560000000 1.0
C      1  0.5576860000000  0.5702000000000  0.4144970000000 1.0
C      1  0.4434440000000  0.4274050000000  0.4121950000000 1.0
C      1  0.5564240000000  0.4299280000000  0.5859070000000 1.0
C      1  0.4424960000000  0.5715740000000  0.5872400000000 1.0
C      1  0.5575040000000  0.4284260000000  0.4117130000000 1.0
C      1  0.4435760000000  0.5700720000000  0.4130450000000 1.0
C      1  0.4851190000000  0.5853720000000  0.5725400000000 1.0
C      1  0.5138290000000  0.4171910000000  0.5699640000000 1.0
C      1  0.4861710000000  0.5828090000000  0.4289890000000 1.0
C      1  0.5148810000000  0.4146280000000  0.4264130000000 1.0
C      1  0.4852870000000  0.4172160000000  0.5689400000000 1.0
C      1  0.5136490000000  0.5854080000000  0.5712130000000 1.0
C      1  0.4863510000000  0.4145920000000  0.4277390000000 1.0
C      1  0.5147130000000  0.5827840000000  0.4300130000000 1.0
C      1  0.5227520000000  0.4834550000000  0.4631730000000 1.0
C      1  0.4777030000000  0.5140570000000  0.4646830000000 1.0
C      1  0.5222970000000  0.4859430000000  0.5342700000000 1.0
C      1  0.4772480000000  0.5165450000000  0.5357800000000 1.0
C      1  0.5217280000000  0.5251730000000  0.4584880000000 1.0
C      1  0.4822360000000  0.4724910000000  0.4617530000000 1.0
C      1  0.5177640000000  0.5275090000000  0.5371990000000 1.0
C      1  0.4782720000000  0.4748270000000  0.5404640000000 1.0
C      1  0.4828000000000  0.6357660000000  0.4834260000000 1.0
C      1  0.5180980000000  0.3628260000000  0.4820810000000 1.0
C      1  0.4819020000000  0.6371740000000  0.5168720000000 1.0
C      1  0.5172000000000  0.3642340000000  0.5155270000000 1.0
C      1  0.4865020000000  0.3603260000000  0.4823630000000 1.0
C      1  0.5143480000000  0.6379090000000  0.4828090000000 1.0
C      1  0.4856520000000  0.3620910000000  0.5161430000000 1.0
C      1  0.5134980000000  0.6396740000000  0.5165890000000 1.0
C      1  0.5880700000000  0.5110300000000  0.3903600000000 1.0
C      1  0.4117340000000  0.4851420000000  0.3964840000000 1.0
C      1  0.5882660000000  0.5148580000000  0.6024690000000 1.0
C      1  0.4119300000000  0.4889700000000  0.6085920000000 1.0
C      1  0.5884390000000  0.4827440000000  0.3930160000000 1.0
C      1  0.4117500000000  0.5135630000000  0.3966620000000 1.0
C      1  0.5882500000000  0.4864370000000  0.6022910000000 1.0
C      1  0.4115610000000  0.5172560000000  0.6059370000000 1.0
C      1  0.5571020000000  0.6204210000000  0.5157460000000 1.0
C      1  0.4427000000000  0.3818180000000  0.5123610000000 1.0
C      1  0.5573000000000  0.6181820000000  0.4865920000000 1.0
C      1  0.4428980000000  0.3795790000000  0.4832070000000 1.0
C      1  0.5570430000000  0.3900380000000  0.5129770000000 1.0
C      1  0.4425630000000  0.6106970000000  0.5148660000000 1.0
C      1  0.5574370000000  0.3893030000000  0.4840870000000 1.0
C      1  0.4429570000000  0.6099620000000  0.4859750000000 1.0
C      1  0.4401880000000  0.5972340000000  0.5721740000000 1.0
C      1  0.5586030000000  0.4046240000000  0.5701880000000 1.0
C      1  0.4413970000000  0.5953760000000  0.4287650000000 1.0
C      1  0.5598120000000  0.4027660000000  0.4267790000000 1.0
C      1  0.4405770000000  0.4037560000000  0.5698000000000 1.0
C      1  0.5580870000000  0.5994480000000  0.5736100000000 1.0
C      1  0.4419130000000  0.4005520000000  0.4253430000000 1.0
C      1  0.5594230000000  0.5962440000000  0.4291530000000 1.0
C      1  0.4755050000000  0.5024920000000  0.4904170000000 1.0
C      1  0.5159090000000  0.4793360000000  0.4893580000000 1.0
C      1  0.4840910000000  0.5206640000000  0.5095940000000 1.0
C      1  0.5244950000000  0.4975080000000  0.5085360000000 1.0
C      1  0.4878280000000  0.4745990000000  0.4919290000000 1.0
C      1  0.5178820000000  0.5399900000000  0.4830780000000 1.0
C      1  0.4821180000000  0.4600100000000  0.5158750000000 1.0
C      1  0.5121720000000  0.5254010000000  0.5070230000000 1.0
C      1  0.4823580000000  0.5313960000000  0.4108110000000 1.0
C      1  0.5183850000000  0.4668080000000  0.4103500000000 1.0
C      1  0.4816150000000  0.5331920000000  0.5886030000000 1.0
C      1  0.5176420000000  0.4686040000000  0.5881420000000 1.0
C      1  0.4822850000000  0.4666220000000  0.4112010000000 1.0
C      1  0.5184210000000  0.5316150000000  0.4109520000000 1.0
C      1  0.4815790000000  0.4683850000000  0.5880010000000 1.0
C      1  0.5177150000000  0.5333780000000  0.5877510000000 1.0
C      1  0.5323780000000  0.3959090000000  0.5571190000000 1.0
C      1  0.4664710000000  0.6065150000000  0.5596630000000 1.0
C      1  0.5335290000000  0.3934850000000  0.4392900000000 1.0
C      1  0.4676220000000  0.6040910000000  0.4418340000000 1.0
C      1  0.5319150000000  0.6091700000000  0.5606820000000 1.0
C      1  0.4669160000000  0.3943350000000  0.5571100000000 1.0
C      1  0.5330840000000  0.6056650000000  0.4418430000000 1.0
C      1  0.4680850000000  0.3908300000000  0.4382710000000 1.0
C      1  0.4556840000000  0.5168850000000  0.4247460000000 1.0
C      1  0.5458360000000  0.4818690000000  0.4233470000000 1.0
C      1  0.4541640000000  0.5181310000000  0.5756060000000 1.0
C      1  0.5443160000000  0.4831150000000  0.5742070000000 1.0
C      1  0.4554140000000  0.4814450000000  0.4250410000000 1.0
C      1  0.5465680000000  0.5164400000000  0.4215310000000 1.0
C      1  0.4534320000000  0.4835600000000  0.5774220000000 1.0
C      1  0.5445860000000  0.5185550000000  0.5739110000000 1.0
C      1  0.5805400000000  0.5679440000000  0.5416040000000 1.0
C      1  0.4200480000000  0.4287620000000  0.5386480000000 1.0
C      1  0.5799520000000  0.5712380000000  0.4603050000000 1.0
C      1  0.4194600000000  0.4320560000000  0.4573480000000 1.0
C      1  0.5708620000000  0.4306760000000  0.5377300000000 1.0
C      1  0.4269400000000  0.5694430000000  0.5378180000000 1.0
C      1  0.5730600000000  0.4305570000000  0.4611350000000 1.0
C      1  0.4291380000000  0.5693240000000  0.4612230000000 1.0
C      1  0.4789530000000  0.4859870000000  0.6137630000000 1.0
C      1  0.5211960000000  0.5157470000000  0.6132590000000 1.0
C      1  0.4788040000000  0.4842530000000  0.3856940000000 1.0
C      1  0.5210470000000  0.5140130000000  0.3851900000000 1.0
C      1  0.4792050000000  0.5152920000000  0.6139980000000 1.0
C      1  0.5209500000000  0.4864070000000  0.6134310000000 1.0
C      1  0.4790500000000  0.5135930000000  0.3855220000000 1.0
C      1  0.5207950000000  0.4847080000000  0.3849540000000 1.0
C      1  0.4683590000000  0.6127080000000  0.5302450000000 1.0
C      1  0.5308280000000  0.3891140000000  0.5278160000000 1.0
C      1  0.4691720000000  0.6108860000000  0.4711370000000 1.0
C      1  0.5316410000000  0.3872920000000  0.4687080000000 1.0
C      1  0.4685720000000  0.3853190000000  0.5279400000000 1.0
C      1  0.5310510000000  0.6186450000000  0.5312330000000 1.0
C      1  0.4689490000000  0.3813550000000  0.4677190000000 1.0
C      1  0.5314280000000  0.6146810000000  0.4710120000000 1.0
C      1  0.4822130000000  0.4080850000000  0.5138630000000 1.0
C      1  0.5181290000000  0.5946210000000  0.5190210000000 1.0
C      1  0.4818710000000  0.4053790000000  0.4799320000000 1.0
C      1  0.5177870000000  0.5919150000000  0.4850900000000 1.0
C      1  0.4861470000000  0.5914390000000  0.5181870000000 1.0
C      1  0.5137860000000  0.4100540000000  0.5140420000000 1.0
C      1  0.4862140000000  0.5899460000000  0.4849110000000 1.0
C      1  0.5138530000000  0.4085610000000  0.4807660000000 1.0
C      1  0.4543630000000  0.5548880000000  0.4627870000000 1.0
C      1  0.5476250000000  0.4447050000000  0.4618050000000 1.0
C      1  0.4523750000000  0.5552950000000  0.5371480000000 1.0
C      1  0.5456370000000  0.4451120000000  0.5361660000000 1.0
C      1  0.4469830000000  0.4408060000000  0.4610150000000 1.0
C      1  0.5533770000000  0.5595280000000  0.4601850000000 1.0
C      1  0.4466230000000  0.4404720000000  0.5387680000000 1.0
C      1  0.5530170000000  0.5591940000000  0.5379380000000 1.0
C      1  0.3993790000000  0.4447790000000  0.5269800000000 1.0
C      1  0.6005970000000  0.5522420000000  0.5284860000000 1.0
C      1  0.3994030000000  0.4477580000000  0.4704660000000 1.0
C      1  0.6006210000000  0.5552210000000  0.4719730000000 1.0
C      1  0.4042070000000  0.5558110000000  0.5268340000000 1.0
C      1  0.5940220000000  0.4441390000000  0.5274410000000 1.0
C      1  0.4059780000000  0.5558610000000  0.4715120000000 1.0
C      1  0.5957930000000  0.4441890000000  0.4721190000000 1.0
C      1  0.5267590000000  0.4367900000000  0.4814850000000 1.0
C      1  0.4739390000000  0.5616610000000  0.4841870000000 1.0
C      1  0.5260610000000  0.4383390000000  0.5147660000000 1.0
C      1  0.4732410000000  0.5632100000000  0.5174680000000 1.0
C      1  0.5341570000000  0.5640690000000  0.4843750000000 1.0
C      1  0.4628060000000  0.4288110000000  0.4829640000000 1.0
C      1  0.5371940000000  0.5711890000000  0.5159890000000 1.0
C      1  0.4658430000000  0.4359310000000  0.5145770000000 1.0
C      1  0.5011430000000  0.5001120000000  0.4471360000000 1.0
C      1  0.4988570000000  0.4998880000000  0.5518170000000 1.0
END
