TITL C-862131-2149-1164 0.00313947836505814 125000 -1212.3609723524 0 0 200 (C4h) n - 1
REM
REM in /home/nfs/bkarasulu/CARBON/AIRSS/Generating-Clusters/TERSOFF/Higher-Symm/FIRE-HFTN
REM
REM
REM
REM
REM
REM ./C.cell (b20cbc046b6831c77cfcea5457e17084)
REM AIRSS Version 0.9.1 bugfix July 2018 build 013d7b7c2542+ Fri, 06 Jul 2018 19:26:36 +0100
REM compiler GCC version 9.2.1 20190827 (Red Hat 9.2.1-1)
REM options -cpp -mtune=generic -march=x86-64 -g -O0 -fpre-include=/usr/include/finclude/math-vector-fortran.h
REM seed 1917628713 1940216351 -1774638757 1318197224 -188796629 1454263961 62455260 -777794184 1077353459 -1153529654 560004241 -1732007203 708720187 -1254602151 -357350361 -1368065853 -1443432555 160614525 649436217 1207107803 529673310 -1800215967 911083696 1763037832 -683762277 165973136 -1100858737 112526762 -2116637637 345919155 -707253773 -270629857 1938050493
REM
CELL 1.54180   50.00000   50.00000   50.00000   90.00000   90.00000   90.00000
LATT -1
SFAC C  
C      1  0.4183970000000  0.4758780000000  0.5135140000000 1.0
C      1  0.5241220000000  0.4183970000000  0.5135140000000 1.0
C      1  0.5816030000000  0.5241220000000  0.5135140000000 1.0
C      1  0.4758780000000  0.5816030000000  0.5135140000000 1.0
C      1  0.4183970000000  0.4758780000000  0.4864860000000 1.0
C      1  0.5241220000000  0.4183970000000  0.4864860000000 1.0
C      1  0.5816030000000  0.5241220000000  0.4864860000000 1.0
C      1  0.4758780000000  0.5816030000000  0.4864860000000 1.0
C      1  0.4298190000000  0.4248530000000  0.5157950000000 1.0
C      1  0.5751470000000  0.4298190000000  0.5157950000000 1.0
C      1  0.5701810000000  0.5751470000000  0.5157950000000 1.0
C      1  0.4248530000000  0.5701810000000  0.5157950000000 1.0
C      1  0.4298190000000  0.4248530000000  0.4842050000000 1.0
C      1  0.5751470000000  0.4298190000000  0.4842050000000 1.0
C      1  0.5701810000000  0.5751470000000  0.4842050000000 1.0
C      1  0.4248530000000  0.5701810000000  0.4842050000000 1.0
C      1  0.5586420000000  0.4728790000000  0.6034640000000 1.0
C      1  0.5271210000000  0.5586420000000  0.6034640000000 1.0
C      1  0.4413580000000  0.5271210000000  0.6034640000000 1.0
C      1  0.4728790000000  0.4413580000000  0.6034640000000 1.0
C      1  0.5586420000000  0.4728790000000  0.3965360000000 1.0
C      1  0.5271210000000  0.5586420000000  0.3965360000000 1.0
C      1  0.4413580000000  0.5271210000000  0.3965360000000 1.0
C      1  0.4728790000000  0.4413580000000  0.3965360000000 1.0
C      1  0.5464810000000  0.5313310000000  0.3654010000000 1.0
C      1  0.4686690000000  0.5464810000000  0.3654010000000 1.0
C      1  0.4535190000000  0.4686690000000  0.3654010000000 1.0
C      1  0.5313310000000  0.4535190000000  0.3654010000000 1.0
C      1  0.5464810000000  0.5313310000000  0.6345990000000 1.0
C      1  0.4686690000000  0.5464810000000  0.6345990000000 1.0
C      1  0.4535190000000  0.4686690000000  0.6345990000000 1.0
C      1  0.5313310000000  0.4535190000000  0.6345990000000 1.0
C      1  0.4297570000000  0.5438000000000  0.5576030000000 1.0
C      1  0.4562000000000  0.4297570000000  0.5576030000000 1.0
C      1  0.5702430000000  0.4562000000000  0.5576030000000 1.0
C      1  0.5438000000000  0.5702430000000  0.5576030000000 1.0
C      1  0.4297570000000  0.5438000000000  0.4423970000000 1.0
C      1  0.4562000000000  0.4297570000000  0.4423970000000 1.0
C      1  0.5702430000000  0.4562000000000  0.4423970000000 1.0
C      1  0.5438000000000  0.5702430000000  0.4423970000000 1.0
C      1  0.5378710000000  0.4927690000000  0.3886680000000 1.0
C      1  0.5072310000000  0.5378710000000  0.3886680000000 1.0
C      1  0.4621290000000  0.5072310000000  0.3886680000000 1.0
C      1  0.4927690000000  0.4621290000000  0.3886680000000 1.0
C      1  0.5378710000000  0.4927690000000  0.6113320000000 1.0
C      1  0.5072310000000  0.5378710000000  0.6113320000000 1.0
C      1  0.4621290000000  0.5072310000000  0.6113320000000 1.0
C      1  0.4927690000000  0.4621290000000  0.6113320000000 1.0
C      1  0.6055750000000  0.5327420000000  0.5288990000000 1.0
C      1  0.4672580000000  0.6055750000000  0.5288990000000 1.0
C      1  0.3944250000000  0.4672580000000  0.5288990000000 1.0
C      1  0.5327420000000  0.3944250000000  0.5288990000000 1.0
C      1  0.6055750000000  0.5327420000000  0.4711010000000 1.0
C      1  0.4672580000000  0.6055750000000  0.4711010000000 1.0
C      1  0.3944250000000  0.4672580000000  0.4711010000000 1.0
C      1  0.5327420000000  0.3944250000000  0.4711010000000 1.0
C      1  0.5058950000000  0.4779020000000  0.5885250000000 1.0
C      1  0.5220980000000  0.5058950000000  0.5885250000000 1.0
C      1  0.4941050000000  0.5220980000000  0.5885250000000 1.0
C      1  0.4779020000000  0.4941050000000  0.5885250000000 1.0
C      1  0.5058950000000  0.4779020000000  0.4114750000000 1.0
C      1  0.5220980000000  0.5058950000000  0.4114750000000 1.0
C      1  0.4941050000000  0.5220980000000  0.4114750000000 1.0
C      1  0.4779020000000  0.4941050000000  0.4114750000000 1.0
C      1  0.5198710000000  0.4382720000000  0.4428340000000 1.0
C      1  0.5617280000000  0.5198710000000  0.4428340000000 1.0
C      1  0.4801290000000  0.5617280000000  0.4428340000000 1.0
C      1  0.4382720000000  0.4801290000000  0.4428340000000 1.0
C      1  0.5198710000000  0.4382720000000  0.5571660000000 1.0
C      1  0.5617280000000  0.5198710000000  0.5571660000000 1.0
C      1  0.4801290000000  0.5617280000000  0.5571660000000 1.0
C      1  0.4382720000000  0.4801290000000  0.5571660000000 1.0
C      1  0.5872250000000  0.5576820000000  0.5380920000000 1.0
C      1  0.4423180000000  0.5872250000000  0.5380920000000 1.0
C      1  0.4127750000000  0.4423180000000  0.5380920000000 1.0
C      1  0.5576820000000  0.4127750000000  0.5380920000000 1.0
C      1  0.5872250000000  0.5576820000000  0.4619080000000 1.0
C      1  0.4423180000000  0.5872250000000  0.4619080000000 1.0
C      1  0.4127750000000  0.4423180000000  0.4619080000000 1.0
C      1  0.5576820000000  0.4127750000000  0.4619080000000 1.0
C      1  0.5474350000000  0.4241770000000  0.5929860000000 1.0
C      1  0.5758230000000  0.5474350000000  0.5929860000000 1.0
C      1  0.4525650000000  0.5758230000000  0.5929860000000 1.0
C      1  0.4241770000000  0.4525650000000  0.5929860000000 1.0
C      1  0.5474350000000  0.4241770000000  0.4070140000000 1.0
C      1  0.5758230000000  0.5474350000000  0.4070140000000 1.0
C      1  0.4525650000000  0.5758230000000  0.4070140000000 1.0
C      1  0.4241770000000  0.4525650000000  0.4070140000000 1.0
C      1  0.5738300000000  0.4764300000000  0.4211230000000 1.0
C      1  0.5235700000000  0.5738300000000  0.4211230000000 1.0
C      1  0.4261700000000  0.5235700000000  0.4211230000000 1.0
C      1  0.4764300000000  0.4261700000000  0.4211230000000 1.0
C      1  0.5738300000000  0.4764300000000  0.5788770000000 1.0
C      1  0.5235700000000  0.5738300000000  0.5788770000000 1.0
C      1  0.4261700000000  0.5235700000000  0.5788770000000 1.0
C      1  0.4764300000000  0.4261700000000  0.5788770000000 1.0
C      1  0.6119170000000  0.5011290000000  0.4687010000000 1.0
C      1  0.4988710000000  0.6119170000000  0.4687010000000 1.0
C      1  0.3880830000000  0.4988710000000  0.4687010000000 1.0
C      1  0.5011290000000  0.3880830000000  0.4687010000000 1.0
C      1  0.6119170000000  0.5011290000000  0.5312990000000 1.0
C      1  0.4988710000000  0.6119170000000  0.5312990000000 1.0
C      1  0.3880830000000  0.4988710000000  0.5312990000000 1.0
C      1  0.5011290000000  0.3880830000000  0.5312990000000 1.0
C      1  0.5176500000000  0.5122800000000  0.5381320000000 1.0
C      1  0.4877200000000  0.5176500000000  0.5381320000000 1.0
C      1  0.4823500000000  0.4877200000000  0.5381320000000 1.0
C      1  0.5122800000000  0.4823500000000  0.5381320000000 1.0
C      1  0.5176500000000  0.5122800000000  0.4618680000000 1.0
C      1  0.4877200000000  0.5176500000000  0.4618680000000 1.0
C      1  0.4823500000000  0.4877200000000  0.4618680000000 1.0
C      1  0.5122800000000  0.4823500000000  0.4618680000000 1.0
C      1  0.4556910000000  0.4160480000000  0.5301280000000 1.0
C      1  0.5839520000000  0.4556910000000  0.5301280000000 1.0
C      1  0.5443090000000  0.5839520000000  0.5301280000000 1.0
C      1  0.4160480000000  0.5443090000000  0.5301280000000 1.0
C      1  0.4556910000000  0.4160480000000  0.4698720000000 1.0
C      1  0.5839520000000  0.4556910000000  0.4698720000000 1.0
C      1  0.5443090000000  0.5839520000000  0.4698720000000 1.0
C      1  0.4160480000000  0.5443090000000  0.4698720000000 1.0
C      1  0.4408350000000  0.4867380000000  0.4729940000000 1.0
C      1  0.5132620000000  0.4408350000000  0.4729940000000 1.0
C      1  0.5591650000000  0.5132620000000  0.4729940000000 1.0
C      1  0.4867380000000  0.5591650000000  0.4729940000000 1.0
C      1  0.4408350000000  0.4867380000000  0.5270060000000 1.0
C      1  0.5132620000000  0.4408350000000  0.5270060000000 1.0
C      1  0.5591650000000  0.5132620000000  0.5270060000000 1.0
C      1  0.4867380000000  0.5591650000000  0.5270060000000 1.0
C      1  0.4678170000000  0.4734120000000  0.5162020000000 1.0
C      1  0.5265880000000  0.4678170000000  0.5162020000000 1.0
C      1  0.5321830000000  0.5265880000000  0.5162020000000 1.0
C      1  0.4734120000000  0.5321830000000  0.5162020000000 1.0
C      1  0.4678170000000  0.4734120000000  0.4837980000000 1.0
C      1  0.5265880000000  0.4678170000000  0.4837980000000 1.0
C      1  0.5321830000000  0.5265880000000  0.4837980000000 1.0
C      1  0.4734120000000  0.5321830000000  0.4837980000000 1.0
C      1  0.5187990000000  0.4833950000000  0.3635010000000 1.0
C      1  0.5166050000000  0.5187990000000  0.3635010000000 1.0
C      1  0.4812010000000  0.5166050000000  0.3635010000000 1.0
C      1  0.4833950000000  0.4812010000000  0.3635010000000 1.0
C      1  0.5187990000000  0.4833950000000  0.6364990000000 1.0
C      1  0.5166050000000  0.5187990000000  0.6364990000000 1.0
C      1  0.4812010000000  0.5166050000000  0.6364990000000 1.0
C      1  0.4833950000000  0.4812010000000  0.6364990000000 1.0
C      1  0.4459840000000  0.4484330000000  0.3867410000000 1.0
C      1  0.5515670000000  0.4459840000000  0.3867410000000 1.0
C      1  0.5540160000000  0.5515670000000  0.3867410000000 1.0
C      1  0.4484330000000  0.5540160000000  0.3867410000000 1.0
C      1  0.4459840000000  0.4484330000000  0.6132590000000 1.0
C      1  0.5515670000000  0.4459840000000  0.6132590000000 1.0
C      1  0.5540160000000  0.5515670000000  0.6132590000000 1.0
C      1  0.4484330000000  0.5540160000000  0.6132590000000 1.0
C      1  0.4325340000000  0.4486260000000  0.5622130000000 1.0
C      1  0.5513740000000  0.4325340000000  0.5622130000000 1.0
C      1  0.5674660000000  0.5513740000000  0.5622130000000 1.0
C      1  0.4486260000000  0.5674660000000  0.5622130000000 1.0
C      1  0.4325340000000  0.4486260000000  0.4377870000000 1.0
C      1  0.5513740000000  0.4325340000000  0.4377870000000 1.0
C      1  0.5674660000000  0.5513740000000  0.4377870000000 1.0
C      1  0.4486260000000  0.5674660000000  0.4377870000000 1.0
C      1  0.4792160000000  0.4025340000000  0.4843870000000 1.0
C      1  0.5974660000000  0.4792160000000  0.4843870000000 1.0
C      1  0.5207840000000  0.5974660000000  0.4843870000000 1.0
C      1  0.4025340000000  0.5207840000000  0.4843870000000 1.0
C      1  0.4792160000000  0.4025340000000  0.5156130000000 1.0
C      1  0.5974660000000  0.4792160000000  0.5156130000000 1.0
C      1  0.5207840000000  0.5974660000000  0.5156130000000 1.0
C      1  0.4025340000000  0.5207840000000  0.5156130000000 1.0
C      1  0.5218970000000  0.4089270000000  0.4063100000000 1.0
C      1  0.5910730000000  0.5218970000000  0.4063100000000 1.0
C      1  0.4781030000000  0.5910730000000  0.4063100000000 1.0
C      1  0.4089270000000  0.4781030000000  0.4063100000000 1.0
C      1  0.5218970000000  0.4089270000000  0.5936900000000 1.0
C      1  0.5910730000000  0.5218970000000  0.5936900000000 1.0
C      1  0.4781030000000  0.5910730000000  0.5936900000000 1.0
C      1  0.4089270000000  0.4781030000000  0.5936900000000 1.0
C      1  0.4855590000000  0.5333650000000  0.4373190000000 1.0
C      1  0.4666350000000  0.4855590000000  0.4373190000000 1.0
C      1  0.5144410000000  0.4666350000000  0.4373190000000 1.0
C      1  0.5333650000000  0.5144410000000  0.4373190000000 1.0
C      1  0.4855590000000  0.5333650000000  0.5626810000000 1.0
C      1  0.4666350000000  0.4855590000000  0.5626810000000 1.0
C      1  0.5144410000000  0.4666350000000  0.5626810000000 1.0
C      1  0.5333650000000  0.5144410000000  0.5626810000000 1.0
C      1  0.4443480000000  0.5162470000000  0.4839290000000 1.0
C      1  0.4837530000000  0.4443480000000  0.4839290000000 1.0
C      1  0.5556520000000  0.4837530000000  0.4839290000000 1.0
C      1  0.5162470000000  0.5556520000000  0.4839290000000 1.0
C      1  0.4443480000000  0.5162470000000  0.5160710000000 1.0
C      1  0.4837530000000  0.4443480000000  0.5160710000000 1.0
C      1  0.5556520000000  0.4837530000000  0.5160710000000 1.0
C      1  0.5162470000000  0.5556520000000  0.5160710000000 1.0
C      1  0.4964100000000  0.5811350000000  0.5727210000000 1.0
C      1  0.4188650000000  0.4964100000000  0.5727210000000 1.0
C      1  0.5035900000000  0.4188650000000  0.5727210000000 1.0
C      1  0.5811350000000  0.5035900000000  0.5727210000000 1.0
C      1  0.4964100000000  0.5811350000000  0.4272790000000 1.0
C      1  0.4188650000000  0.4964100000000  0.4272790000000 1.0
C      1  0.5035900000000  0.4188650000000  0.4272790000000 1.0
C      1  0.5811350000000  0.5035900000000  0.4272790000000 1.0
END
