TITL C-862502-1143-374 -0.000369272529783253 125000 -379.240767272855 0 0 66 (C2) n - 1
REM
REM in /home/nfs/bkarasulu/CARBON/AIRSS/Generating-Clusters/TERSOFF/Higher-Symm/FIRE-HFTN
REM
REM
REM
REM
REM
REM ./C.cell (b20cbc046b6831c77cfcea5457e17084)
REM AIRSS Version 0.9.1 bugfix July 2018 build 013d7b7c2542+ Fri, 06 Jul 2018 19:26:36 +0100
REM compiler GCC version 9.2.1 20190827 (Red Hat 9.2.1-1)
REM options -cpp -mtune=generic -march=x86-64 -g -O0 -fpre-include=/usr/include/finclude/math-vector-fortran.h
REM seed -1110236548 -1232318130 -389494723 1971715355 -1325635991 -1407545628 -1294746376 1563255887 1401311846 1102356308 1909179064 498488789 -2128025317 -1804665198 769746606 -470033963 1638652511 -1603842141 316077037 435164520 -127242206 1211985745 -1824806017 66206378 1785309306 -1406798412 1330454296 2017061959 564465586 1820997513 -2133877187 -483685299 630240908
REM
CELL 1.54180   50.00000   50.00000   50.00000   90.00000   90.00000   90.00000
LATT -1
SFAC C  
C      1  0.5658480000000  0.5264860000000  0.4725800000000 1.0
C      1  0.5658480000000  0.4735130000000  0.5274200000000 1.0
C      1  0.5257840000000  0.5550080000000  0.4816790000000 1.0
C      1  0.5257840000000  0.4449920000000  0.5183210000000 1.0
C      1  0.5031060000000  0.5681030000000  0.4657660000000 1.0
C      1  0.5031060000000  0.4318970000000  0.5342340000000 1.0
C      1  0.4477840000000  0.4960730000000  0.5753780000000 1.0
C      1  0.4477840000000  0.5039270000000  0.4246220000000 1.0
C      1  0.5312360000000  0.5371220000000  0.4362120000000 1.0
C      1  0.5312360000000  0.4628780000000  0.5637880000000 1.0
C      1  0.4937660000000  0.5018210000000  0.5583080000000 1.0
C      1  0.4937660000000  0.4981790000000  0.4416920000000 1.0
C      1  0.4349010000000  0.4909240000000  0.5252230000000 1.0
C      1  0.4349010000000  0.5090760000000  0.4747770000000 1.0
C      1  0.5119570000000  0.5258180000000  0.4868090000000 1.0
C      1  0.5119570000000  0.4741820000000  0.5131910000000 1.0
C      1  0.5038010000000  0.5556460000000  0.4381520000000 1.0
C      1  0.5038010000000  0.4443540000000  0.5618480000000 1.0
C      1  0.5430700000000  0.4935270000000  0.5672670000000 1.0
C      1  0.5430700000000  0.5064730000000  0.4327330000000 1.0
C      1  0.4385920000000  0.5410110000000  0.4820080000000 1.0
C      1  0.4385920000000  0.4589890000000  0.5179920000000 1.0
C      1  0.4964040000000  0.4354960000000  0.4632250000000 1.0
C      1  0.4964040000000  0.5645040000000  0.5367750000000 1.0
C      1  0.5655930000000  0.5027760000000  0.4538850000000 1.0
C      1  0.5655930000000  0.4972240000000  0.5461150000000 1.0
C      1  0.5460060000000  0.4542810000000  0.5377090000000 1.0
C      1  0.5460060000000  0.5457190000000  0.4622910000000 1.0
C      1  0.4525930000000  0.5582310000000  0.4579750000000 1.0
C      1  0.4525930000000  0.4417690000000  0.5420250000000 1.0
C      1  0.5633480000000  0.4756640000000  0.4695640000000 1.0
C      1  0.5633480000000  0.5243360000000  0.5304360000000 1.0
C      1  0.4732590000000  0.5177120000000  0.4303720000000 1.0
C      1  0.4732590000000  0.4822880000000  0.5696280000000 1.0
C      1  0.5095750000000  0.4996680000000  0.5319710000000 1.0
C      1  0.5095750000000  0.5003320000000  0.4680290000000 1.0
C      1  0.4634140000000  0.5076450000000  0.4874250000000 1.0
C      1  0.4634140000000  0.4923550000000  0.5125750000000 1.0
C      1  0.4513630000000  0.4603310000000  0.4857300000000 1.0
C      1  0.4513630000000  0.5396690000000  0.5142700000000 1.0
C      1  0.4775820000000  0.4727140000000  0.4377640000000 1.0
C      1  0.4775820000000  0.5272860000000  0.5622360000000 1.0
C      1  0.4765760000000  0.5578910000000  0.4760590000000 1.0
C      1  0.4765760000000  0.4421090000000  0.5239410000000 1.0
C      1  0.4373330000000  0.4786900000000  0.4659040000000 1.0
C      1  0.4373330000000  0.5213100000000  0.5340960000000 1.0
C      1  0.4749020000000  0.5456420000000  0.4359210000000 1.0
C      1  0.4749020000000  0.4543580000000  0.5640790000000 1.0
C      1  0.4822950000000  0.4572980000000  0.4770900000000 1.0
C      1  0.4822960000000  0.5427020000000  0.5229100000000 1.0
C      1  0.5301010000000  0.4786890000000  0.4340260000000 1.0
C      1  0.5301010000000  0.5213110000000  0.5659740000000 1.0
C      1  0.4474510000000  0.5231280000000  0.5620070000000 1.0
C      1  0.4474510000000  0.4768720000000  0.4379930000000 1.0
C      1  0.4825400000000  0.5295550000000  0.4813940000000 1.0
C      1  0.4825400000000  0.4704450000000  0.5186060000000 1.0
C      1  0.5409700000000  0.4602900000000  0.4551520000000 1.0
C      1  0.5409700000000  0.5397100000000  0.5448480000000 1.0
C      1  0.5634050000000  0.4851450000000  0.4992240000000 1.0
C      1  0.5634050000000  0.5148550000000  0.5007760000000 1.0
C      1  0.5346940000000  0.5693700000000  0.5056870000000 1.0
C      1  0.5346940000000  0.4306300000000  0.4943130000000 1.0
C      1  0.5259900000000  0.5625190000000  0.5326480000000 1.0
C      1  0.5259900000000  0.4374810000000  0.4673520000000 1.0
C      1  0.5047620000000  0.4766010000000  0.4835950000000 1.0
C      1  0.5047620000000  0.5233990000000  0.5164050000000 1.0
END
