TITL C-862131-2149-637 0.00805580484503609 125000 -671.881900684246 0 0 117 (D3) n - 1
REM
REM in /home/nfs/bkarasulu/CARBON/AIRSS/Generating-Clusters/TERSOFF/Higher-Symm/FIRE-HFTN
REM
REM
REM
REM
REM
REM ./C.cell (b20cbc046b6831c77cfcea5457e17084)
REM AIRSS Version 0.9.1 bugfix July 2018 build 013d7b7c2542+ Fri, 06 Jul 2018 19:26:36 +0100
REM compiler GCC version 9.2.1 20190827 (Red Hat 9.2.1-1)
REM options -cpp -mtune=generic -march=x86-64 -g -O0 -fpre-include=/usr/include/finclude/math-vector-fortran.h
REM seed 2014211329 2116960888 462646169 1678658405 -1012641957 -221138947 -2099133537 553664829 1607438455 779821796 1476123998 -413295616 15337641 1790333789 1422254704 132559705 1562793738 -1279621009 -2145831822 129714649 808058841 -487909995 -1683642276 589011144 800201300 205606422 -759552410 -131398250 -1489754131 -1060619369 2104861721 -441676745 715844306
REM
CELL 1.54180   50.00000   50.00000   50.00000   90.00000   90.00000   90.00000
LATT -1
SFAC C  
C      1  0.5462570000000  0.5652210000000  0.4502630000000 1.0
C      1  0.5199450000000  0.5652210000000  0.5649280000000 1.0
C      1  0.4337980000000  0.5652210000000  0.4848080000000 1.0
C      1  0.4537430000000  0.4341920000000  0.4502630000000 1.0
C      1  0.4800550000000  0.4341920000000  0.5649280000000 1.0
C      1  0.5662020000000  0.4341920000000  0.4848080000000 1.0
C      1  0.5045890000000  0.6018310000000  0.5341750000000 1.0
C      1  0.4681090000000  0.6018310000000  0.4868870000000 1.0
C      1  0.5273010000000  0.6018310000000  0.4789380000000 1.0
C      1  0.4954110000000  0.3975820000000  0.5341750000000 1.0
C      1  0.5318910000000  0.3975820000000  0.4868870000000 1.0
C      1  0.4726990000000  0.3975820000000  0.4789380000000 1.0
C      1  0.4413010000000  0.5253580000000  0.4562590000000 1.0
C      1  0.5672300000000  0.5253580000000  0.4710360000000 1.0
C      1  0.4914690000000  0.5253580000000  0.5727050000000 1.0
C      1  0.5586990000000  0.4740550000000  0.4562590000000 1.0
C      1  0.4327700000000  0.4740550000000  0.4710360000000 1.0
C      1  0.5085310000000  0.4740550000000  0.5727050000000 1.0
C      1  0.4229560000000  0.5293170000000  0.5532810000000 1.0
C      1  0.4923790000000  0.5293170000000  0.4066370000000 1.0
C      1  0.5846650000000  0.5293170000000  0.5400820000000 1.0
C      1  0.5770440000000  0.4700960000000  0.5532810000000 1.0
C      1  0.5076210000000  0.4700960000000  0.4066370000000 1.0
C      1  0.4153350000000  0.4700960000000  0.5400820000000 1.0
C      1  0.4484690000000  0.5323080000000  0.4280400000000 1.0
C      1  0.5880850000000  0.5323080000000  0.4913530000000 1.0
C      1  0.4634460000000  0.5323080000000  0.5806070000000 1.0
C      1  0.5515310000000  0.4671060000000  0.4280400000000 1.0
C      1  0.4119150000000  0.4671050000000  0.4913530000000 1.0
C      1  0.5365540000000  0.4671060000000  0.5806070000000 1.0
C      1  0.4811680000000  0.4752140000000  0.4388510000000 1.0
C      1  0.5623730000000  0.4752140000000  0.5142650000000 1.0
C      1  0.4564600000000  0.4752140000000  0.5468840000000 1.0
C      1  0.5188320000000  0.5241990000000  0.4388510000000 1.0
C      1  0.4376270000000  0.5241990000000  0.5142650000000 1.0
C      1  0.5435400000000  0.5241990000000  0.5468840000000 1.0
C      1  0.5751560000000  0.5826700000000  0.4901770000000 1.0
C      1  0.4709290000000  0.5826700000000  0.5699990000000 1.0
C      1  0.4539150000000  0.5826700000000  0.4398240000000 1.0
C      1  0.4248440000000  0.4167430000000  0.4901770000000 1.0
C      1  0.5290710000000  0.4167430000000  0.5699990000000 1.0
C      1  0.5460850000000  0.4167430000000  0.4398240000000 1.0
C      1  0.4163760000000  0.5152580000000  0.4680010000000 1.0
C      1  0.5695240000000  0.5152580000000  0.4435790000000 1.0
C      1  0.5141000000000  0.5152580000000  0.5884200000000 1.0
C      1  0.5836240000000  0.4841550000000  0.4680010000000 1.0
C      1  0.4304760000000  0.4841550000000  0.4435790000000 1.0
C      1  0.4859000000000  0.4841550000000  0.5884200000000 1.0
C      1  0.4139320000000  0.5190180000000  0.4970190000000 1.0
C      1  0.5456150000000  0.5190180000000  0.4269530000000 1.0
C      1  0.5404530000000  0.5190180000000  0.5760280000000 1.0
C      1  0.5860680000000  0.4803950000000  0.4970190000000 1.0
C      1  0.4543850000000  0.4803950000000  0.4269530000000 1.0
C      1  0.4595470000000  0.4803950000000  0.5760280000000 1.0
C      1  0.5339700000000  0.4826030000000  0.4095820000000 1.0
C      1  0.5613190000000  0.4826030000000  0.5746280000000 1.0
C      1  0.4047110000000  0.4826030000000  0.5157900000000 1.0
C      1  0.4660300000000  0.5168100000000  0.4095820000000 1.0
C      1  0.4386810000000  0.5168100000000  0.5746280000000 1.0
C      1  0.5952890000000  0.5168100000000  0.5157900000000 1.0
C      1  0.5431130000000  0.4422910000000  0.5639280000000 1.0
C      1  0.4230800000000  0.4422910000000  0.5053730000000 1.0
C      1  0.5338070000000  0.4422920000000  0.4306990000000 1.0
C      1  0.4568870000000  0.5571220000000  0.5639280000000 1.0
C      1  0.5769200000000  0.5571220000000  0.5053730000000 1.0
C      1  0.4661930000000  0.5571220000000  0.4306990000000 1.0
C      1  0.4523930000000  0.5445150000000  0.4751650000000 1.0
C      1  0.5453120000000  0.5445160000000  0.4711890000000 1.0
C      1  0.5022950000000  0.5445160000000  0.5536470000000 1.0
C      1  0.5476070000000  0.4548980000000  0.4751650000000 1.0
C      1  0.4546880000000  0.4548980000000  0.4711890000000 1.0
C      1  0.4977050000000  0.4548980000000  0.5536470000000 1.0
C      1  0.4785790000000  0.5556200000000  0.4707960000000 1.0
C      1  0.5360020000000  0.5556200000000  0.4960510000000 1.0
C      1  0.4854190000000  0.5556200000000  0.5331530000000 1.0
C      1  0.5214210000000  0.4437930000000  0.4707960000000 1.0
C      1  0.4639980000000  0.4437930000000  0.4960510000000 1.0
C      1  0.5145810000000  0.4437930000000  0.5331530000000 1.0
C      1  0.4799860000000  0.4258390000000  0.4393090000000 1.0
C      1  0.5625670000000  0.4258390000000  0.5130130000000 1.0
C      1  0.4574470000000  0.4258390000000  0.5476780000000 1.0
C      1  0.5200140000000  0.5735750000000  0.4393090000000 1.0
C      1  0.4374330000000  0.5735740000000  0.5130130000000 1.0
C      1  0.5425530000000  0.5735740000000  0.5476780000000 1.0
C      1  0.5403870000000  0.4063340000000  0.5133510000000 1.0
C      1  0.4682450000000  0.4063340000000  0.5283010000000 1.0
C      1  0.4913680000000  0.4063340000000  0.4583480000000 1.0
C      1  0.4596130000000  0.5930790000000  0.5133510000000 1.0
C      1  0.5317550000000  0.5930790000000  0.5283010000000 1.0
C      1  0.5086320000000  0.5930790000000  0.4583480000000 1.0
C      1  0.4835750000000  0.5843820000000  0.4695040000000 1.0
C      1  0.5346220000000  0.5843830000000  0.5010240000000 1.0
C      1  0.4818020000000  0.5843820000000  0.5294720000000 1.0
C      1  0.5164250000000  0.4150310000000  0.4695040000000 1.0
C      1  0.4653780000000  0.4150310000000  0.5010240000000 1.0
C      1  0.5181980000000  0.4150310000000  0.5294720000000 1.0
C      1  0.4384880000000  0.5505190000000  0.5344470000000 1.0
C      1  0.5009240000000  0.5505190000000  0.4295060000000 1.0
C      1  0.5605880000000  0.5505190000000  0.5360470000000 1.0
C      1  0.5615120000000  0.4488940000000  0.5344470000000 1.0
C      1  0.4990760000000  0.4488940000000  0.4295060000000 1.0
C      1  0.4394120000000  0.4488940000000  0.5360470000000 1.0
C      1  0.4617780000000  0.5076970000000  0.5080240000000 1.0
C      1  0.5121620000000  0.5076970000000  0.4628870000000 1.0
C      1  0.5260600000000  0.5076970000000  0.5290890000000 1.0
C      1  0.5382220000000  0.4917160000000  0.5080240000000 1.0
C      1  0.4878380000000  0.4917160000000  0.4628870000000 1.0
C      1  0.4739400000000  0.4917160000000  0.5290890000000 1.0
C      1  0.5000980000000  0.5850890000000  0.5750650000000 1.0
C      1  0.4349430000000  0.5850890000000  0.4625530000000 1.0
C      1  0.5649590000000  0.5850890000000  0.4623830000000 1.0
C      1  0.4999020000000  0.4143250000000  0.5750650000000 1.0
C      1  0.5650570000000  0.4143250000000  0.4625530000000 1.0
C      1  0.4350410000000  0.4143250000000  0.4623830000000 1.0
C      1  0.5352190000000  0.4997070000000  0.4796660000000 1.0
C      1  0.4647810000000  0.4997070000000  0.4796660000000 1.0
C      1  0.5000000000000  0.4997070000000  0.5406680000000 1.0
END
