TITL C-862134-6730-965 2.33709307402787e-05 125000 -72.1845010953273 0 0 15 (C1) n - 1
REM
REM in /home/nfs/bkarasulu/CARBON/AIRSS/Generating-Clusters/TERSOFF/Higher-Symm/FIRE-HFTN
REM
REM
REM
REM
REM
REM ./C.cell (b20cbc046b6831c77cfcea5457e17084)
REM AIRSS Version 0.9.1 bugfix July 2018 build 013d7b7c2542+ Fri, 06 Jul 2018 19:26:36 +0100
REM compiler GCC version 9.2.1 20190827 (Red Hat 9.2.1-1)
REM options -cpp -mtune=generic -march=x86-64 -g -O0 -fpre-include=/usr/include/finclude/math-vector-fortran.h
REM seed 1528173517 307487667 1791422133 -179465339 433578400 -1024597641 1250602509 1631401891 -395831384 -1913842751 -1331462192 -2055404721 1963622824 1554295119 -2048710024 -1717927445 1377844356 -1088486456 -1741989036 -627057390 1590818134 -1013436918 1435561611 -1405356735 -1448338517 -1682574340 50187493 -69048127 1078692286 -2123038258 -1108091182 420001124 -1193409558
REM
CELL 1.54180   50.00000   50.00000   50.00000   90.00000   90.00000   90.00000
LATT -1
SFAC C  
C      1  0.4665970000000  0.5126850000000  0.4915760000000 1.0
C      1  0.4943250000000  0.4703880000000  0.5504630000000 1.0
C      1  0.5313490000000  0.5233040000000  0.5211790000000 1.0
C      1  0.4854940000000  0.5333070000000  0.4792390000000 1.0
C      1  0.4537390000000  0.5002130000000  0.5504850000000 1.0
C      1  0.5293700000000  0.4779750000000  0.5016220000000 1.0
C      1  0.4864410000000  0.5022150000000  0.5121920000000 1.0
C      1  0.4781650000000  0.4909330000000  0.5377260000000 1.0
C      1  0.5163880000000  0.5045750000000  0.5036940000000 1.0
C      1  0.5602030000000  0.5248250000000  0.5228860000000 1.0
C      1  0.5062620000000  0.4972180000000  0.4537390000000 1.0
C      1  0.4798400000000  0.4850420000000  0.4514950000000 1.0
C      1  0.5108410000000  0.5170420000000  0.4753590000000 1.0
C      1  0.5416680000000  0.4674230000000  0.4776390000000 1.0
C      1  0.4593190000000  0.4928540000000  0.4707050000000 1.0
END
