TITL C-862502-1143-1010 -59671.9410188688 125000 -910.329656695193 0 0 156 (C1) n - 1
REM
REM in /home/nfs/bkarasulu/CARBON/AIRSS/Generating-Clusters/TERSOFF/Higher-Symm/FIRE-HFTN
REM
REM
REM
REM
REM
REM ./C.cell (b20cbc046b6831c77cfcea5457e17084)
REM AIRSS Version 0.9.1 bugfix July 2018 build 013d7b7c2542+ Fri, 06 Jul 2018 19:26:36 +0100
REM compiler GCC version 9.2.1 20190827 (Red Hat 9.2.1-1)
REM options -cpp -mtune=generic -march=x86-64 -g -O0 -fpre-include=/usr/include/finclude/math-vector-fortran.h
REM seed 1289192899 -420803985 829709870 -566679202 -1097539592 -1521580194 1701105322 1774657732 181463774 -1117658079 -1053449341 -939262287 -829922600 -257989562 1035772341 -1995025453 92309152 93624265 1291267644 1330798636 236544280 1352717058 1474743903 -1231317178 -538758709 -1865825851 -588386516 -256031163 -1533119055 -661783206 880219162 -1258556841 -1644069361
REM
CELL 1.54180   50.00000   50.00000   50.00000   90.00000   90.00000   90.00000
LATT -1
SFAC C  
C      1  0.5492770000000  0.4081640000000  0.5331540000000 1.0
C      1  0.4349850000000  0.5237550000000  0.4778110000000 1.0
C      1  0.5892220000000  0.5288210000000  0.5493760000000 1.0
C      1  0.4391870000000  0.4609000000000  0.5496080000000 1.0
C      1  0.4807700000000  0.4926820000000  0.4731460000000 1.0
C      1  0.5919540000000  0.5198060000000  0.4344810000000 1.0
C      1  0.5939500000000  0.4866910000000  0.4820350000000 1.0
C      1  0.6132890000000  0.4435390000000  0.5184300000000 1.0
C      1  0.5414540000000  0.4494200000000  0.5339630000000 1.0
C      1  0.5040610000000  0.5843180000000  0.4483930000000 1.0
C      1  0.4060250000000  0.4709290000000  0.5135030000000 1.0
C      1  0.4516800000000  0.5388960000000  0.5820180000000 1.0
C      1  0.4710730000000  0.5284550000000  0.6016020000000 1.0
C      1  0.5612030000000  0.5839390000000  0.5453240000000 1.0
C      1  0.4123750000000  0.4867170000000  0.5876540000000 1.0
C      1  0.4755340000000  0.5301910000000  0.5373730000000 1.0
C      1  0.5686810000000  0.4269640000000  0.4404790000000 1.0
C      1  0.4775030000000  0.5730910000000  0.4478260000000 1.0
C      1  0.4399780000000  0.5466580000000  0.3930010000000 1.0
C      1  0.4361030000000  0.4317130000000  0.4599980000000 1.0
C      1  0.4059220000000  0.5709570000000  0.5567580000000 1.0
C      1  0.5494620000000  0.5795690000000  0.5184910000000 1.0
C      1  0.4093910000000  0.4576990000000  0.4318020000000 1.0
C      1  0.4779220000000  0.4141650000000  0.4528680000000 1.0
C      1  0.5355320000000  0.5536130000000  0.5104460000000 1.0
C      1  0.4639300000000  0.5274630000000  0.4318710000000 1.0
C      1  0.4773620000000  0.4839790000000  0.4216580000000 1.0
C      1  0.6051470000000  0.4603690000000  0.4741590000000 1.0
C      1  0.5578720000000  0.5811820000000  0.4045590000000 1.0
C      1  0.5670250000000  0.5212040000000  0.4916250000000 1.0
C      1  0.5028010000000  0.5408190000000  0.5334380000000 1.0
C      1  0.5130710000000  0.5293710000000  0.4584740000000 1.0
C      1  0.5435590000000  0.4821390000000  0.6041740000000 1.0
C      1  0.5962480000000  0.5598400000000  0.5029730000000 1.0
C      1  0.5750260000000  0.5608080000000  0.4169340000000 1.0
C      1  0.4987950000000  0.5864000000000  0.5575780000000 1.0
C      1  0.5519390000000  0.4476120000000  0.4263660000000 1.0
C      1  0.5192820000000  0.5340690000000  0.5714720000000 1.0
C      1  0.4063590000000  0.5206060000000  0.4713080000000 1.0
C      1  0.4886750000000  0.3873680000000  0.4591550000000 1.0
C      1  0.4643580000000  0.5641350000000  0.4724570000000 1.0
C      1  0.5210740000000  0.3916410000000  0.4951810000000 1.0
C      1  0.5139660000000  0.5657190000000  0.5443910000000 1.0
C      1  0.4253840000000  0.5096500000000  0.5492370000000 1.0
C      1  0.4148390000000  0.5396780000000  0.4348660000000 1.0
C      1  0.4341980000000  0.5757270000000  0.5518600000000 1.0
C      1  0.5944280000000  0.5655910000000  0.4399710000000 1.0
C      1  0.4731520000000  0.4982850000000  0.3785830000000 1.0
C      1  0.4888040000000  0.5052610000000  0.5972170000000 1.0
C      1  0.4750580000000  0.3944610000000  0.5096980000000 1.0
C      1  0.5486460000000  0.5280210000000  0.5116250000000 1.0
C      1  0.4723720000000  0.4531430000000  0.5251000000000 1.0
C      1  0.5660620000000  0.5000830000000  0.5874970000000 1.0
C      1  0.4719690000000  0.5011690000000  0.5405420000000 1.0
C      1  0.5143340000000  0.4850010000000  0.5596680000000 1.0
C      1  0.4958240000000  0.4856900000000  0.5374130000000 1.0
C      1  0.5182950000000  0.3906260000000  0.4523940000000 1.0
C      1  0.3665410000000  0.4854820000000  0.4919630000000 1.0
C      1  0.4944130000000  0.5229210000000  0.4788740000000 1.0
C      1  0.4355330000000  0.5665000000000  0.4748160000000 1.0
C      1  0.5187180000000  0.4449540000000  0.5171770000000 1.0
C      1  0.4549760000000  0.4840690000000  0.4005140000000 1.0
C      1  0.3958070000000  0.5040810000000  0.4487810000000 1.0
C      1  0.5362080000000  0.5062630000000  0.5241300000000 1.0
C      1  0.3878820000000  0.4649740000000  0.4907630000000 1.0
C      1  0.5523070000000  0.4184750000000  0.5602050000000 1.0
C      1  0.6042780000000  0.5398770000000  0.4551510000000 1.0
C      1  0.5649630000000  0.5750550000000  0.4683520000000 1.0
C      1  0.5902030000000  0.4553570000000  0.5309810000000 1.0
C      1  0.4776770000000  0.5817100000000  0.5763820000000 1.0
C      1  0.4943390000000  0.4359650000000  0.5269930000000 1.0
C      1  0.4603470000000  0.5665940000000  0.4002470000000 1.0
C      1  0.4377390000000  0.4704560000000  0.5957360000000 1.0
C      1  0.4673860000000  0.5967320000000  0.5174220000000 1.0
C      1  0.5231460000000  0.5725800000000  0.4657130000000 1.0
C      1  0.5110510000000  0.5071050000000  0.5787910000000 1.0
C      1  0.4486980000000  0.4044170000000  0.5016410000000 1.0
C      1  0.4893990000000  0.5115190000000  0.4195590000000 1.0
C      1  0.5428500000000  0.6016640000000  0.4191110000000 1.0
C      1  0.4925840000000  0.4509920000000  0.6094410000000 1.0
C      1  0.5721000000000  0.5756580000000  0.4965560000000 1.0
C      1  0.5578430000000  0.4994450000000  0.4479960000000 1.0
C      1  0.3916780000000  0.4825270000000  0.5640460000000 1.0
C      1  0.5664120000000  0.4818660000000  0.5637240000000 1.0
C      1  0.5813380000000  0.4165190000000  0.4904290000000 1.0
C      1  0.4244140000000  0.5690080000000  0.5017730000000 1.0
C      1  0.4120930000000  0.4866170000000  0.4305360000000 1.0
C      1  0.3900560000000  0.5291860000000  0.4957150000000 1.0
C      1  0.4308670000000  0.4990160000000  0.4111550000000 1.0
C      1  0.5983890000000  0.5056720000000  0.5323150000000 1.0
C      1  0.5719100000000  0.5309330000000  0.4131250000000 1.0
C      1  0.5688710000000  0.5266350000000  0.5722130000000 1.0
C      1  0.5505020000000  0.5732520000000  0.5700450000000 1.0
C      1  0.4532050000000  0.4210690000000  0.4376480000000 1.0
C      1  0.4534590000000  0.5414260000000  0.5233020000000 1.0
C      1  0.5075110000000  0.4828080000000  0.4890950000000 1.0
C      1  0.5145000000000  0.5998020000000  0.4261120000000 1.0
C      1  0.5337240000000  0.4098860000000  0.4717840000000 1.0
C      1  0.4932530000000  0.3831360000000  0.4888730000000 1.0
C      1  0.4479490000000  0.4518800000000  0.5750710000000 1.0
C      1  0.4442840000000  0.4895960000000  0.5381770000000 1.0
C      1  0.4360940000000  0.5251290000000  0.5074160000000 1.0
C      1  0.4987880000000  0.4473860000000  0.4247810000000 1.0
C      1  0.5136820000000  0.5141890000000  0.4348060000000 1.0
C      1  0.4525870000000  0.4543170000000  0.5035070000000 1.0
C      1  0.5116360000000  0.4942670000000  0.5154470000000 1.0
C      1  0.5622890000000  0.5235560000000  0.4639750000000 1.0
C      1  0.5183360000000  0.4550470000000  0.4905720000000 1.0
C      1  0.4697330000000  0.4385870000000  0.4166090000000 1.0
C      1  0.4559130000000  0.4800120000000  0.6176660000000 1.0
C      1  0.5183860000000  0.4359670000000  0.4692480000000 1.0
C      1  0.5349050000000  0.4956130000000  0.4321020000000 1.0
C      1  0.5462740000000  0.5446530000000  0.5726280000000 1.0
C      1  0.5227080000000  0.3993660000000  0.5233720000000 1.0
C      1  0.6056570000000  0.5079250000000  0.5007860000000 1.0
C      1  0.4709250000000  0.4322580000000  0.5787210000000 1.0
C      1  0.5895750000000  0.4801960000000  0.5452720000000 1.0
C      1  0.4575620000000  0.5148670000000  0.4605500000000 1.0
C      1  0.5171800000000  0.5577420000000  0.4891550000000 1.0
C      1  0.4774260000000  0.4075190000000  0.5618270000000 1.0
C      1  0.4708430000000  0.5564800000000  0.4259420000000 1.0
C      1  0.4939500000000  0.5839580000000  0.5122930000000 1.0
C      1  0.4774610000000  0.5441210000000  0.4889830000000 1.0
C      1  0.6048560000000  0.4363240000000  0.4911850000000 1.0
C      1  0.5256950000000  0.4431540000000  0.4123540000000 1.0
C      1  0.4417880000000  0.5817220000000  0.5237250000000 1.0
C      1  0.3751900000000  0.5074480000000  0.5113380000000 1.0
C      1  0.5375190000000  0.4578060000000  0.5875220000000 1.0
C      1  0.5219610000000  0.5963350000000  0.5137840000000 1.0
C      1  0.5238680000000  0.5234350000000  0.3825900000000 1.0
C      1  0.5158530000000  0.4409880000000  0.5959220000000 1.0
C      1  0.4950490000000  0.5161680000000  0.3907570000000 1.0
C      1  0.3924440000000  0.4892230000000  0.5331130000000 1.0
C      1  0.5398870000000  0.4669840000000  0.5582840000000 1.0
C      1  0.4909660000000  0.4079190000000  0.5342000000000 1.0
C      1  0.4183640000000  0.5641990000000  0.4509340000000 1.0
C      1  0.6057750000000  0.5366330000000  0.4868600000000 1.0
C      1  0.5494490000000  0.5152140000000  0.3979830000000 1.0
C      1  0.4356350000000  0.5278540000000  0.4163420000000 1.0
C      1  0.5200500000000  0.4908620000000  0.6212930000000 1.0
C      1  0.4439040000000  0.4303720000000  0.4888040000000 1.0
C      1  0.5442040000000  0.5910320000000  0.5921630000000 1.0
C      1  0.6406820000000  0.4481540000000  0.5265600000000 1.0
C      1  0.5628680000000  0.4542240000000  0.4894670000000 1.0
C      1  0.5737650000000  0.4026160000000  0.5161860000000 1.0
C      1  0.4345590000000  0.4761310000000  0.5107460000000 1.0
C      1  0.4542410000000  0.5659610000000  0.5709730000000 1.0
C      1  0.4968670000000  0.4355370000000  0.4513410000000 1.0
C      1  0.3886590000000  0.5605710000000  0.5362340000000 1.0
C      1  0.5623470000000  0.4152220000000  0.4670970000000 1.0
C      1  0.5577410000000  0.5505280000000  0.4537830000000 1.0
C      1  0.4756350000000  0.4742220000000  0.4489120000000 1.0
C      1  0.4876420000000  0.4803790000000  0.6160000000000 1.0
C      1  0.5654050000000  0.4496440000000  0.5182130000000 1.0
C      1  0.4286450000000  0.5231580000000  0.5745760000000 1.0
C      1  0.3987810000000  0.5543770000000  0.5096810000000 1.0
END
