TITL C-862503-991-411 2.80105082955522 125000 -312.808565169949 0 0 60 (C1) n - 1
REM
REM in /home/nfs/bkarasulu/CARBON/AIRSS/Generating-Clusters/TERSOFF/Higher-Symm/FIRE-HFTN
REM
REM
REM
REM
REM
REM ./C.cell (b20cbc046b6831c77cfcea5457e17084)
REM AIRSS Version 0.9.1 bugfix July 2018 build 013d7b7c2542+ Fri, 06 Jul 2018 19:26:36 +0100
REM compiler GCC version 9.2.1 20190827 (Red Hat 9.2.1-1)
REM options -cpp -mtune=generic -march=x86-64 -g -O0 -fpre-include=/usr/include/finclude/math-vector-fortran.h
REM seed 1749444822 1224738961 -1000727049 332274093 -2100363323 -286603540 1710288161 -899194357 -1587267798 1176281579 646834628 1668773568 -1867467851 579863548 -370416915 1071389551 2055882336 -83812724 1516604179 1780717274 614237379 -2143249963 -261962904 1245263598 1968219681 187369220 -1753643509 -2054732696 -1510490130 173140410 -951748884 1663416262 2135987074
REM
CELL 1.54180   50.00000   50.00000   50.00000   90.00000   90.00000   90.00000
LATT -1
SFAC C  
C      1  0.4378650000000  0.5074140000000  0.4620830000000 1.0
C      1  0.4390560000000  0.5381890000000  0.5352720000000 1.0
C      1  0.4389890000000  0.4554400000000  0.5105970000000 1.0
C      1  0.4630670000000  0.5133590000000  0.4481910000000 1.0
C      1  0.4654810000000  0.5454470000000  0.5459910000000 1.0
C      1  0.4661780000000  0.4446800000000  0.5134860000000 1.0
C      1  0.4774970000000  0.4469020000000  0.5590720000000 1.0
C      1  0.4808130000000  0.4678230000000  0.4222080000000 1.0
C      1  0.4823720000000  0.5878410000000  0.5117380000000 1.0
C      1  0.4739950000000  0.4357630000000  0.4682330000000 1.0
C      1  0.4717330000000  0.5584190000000  0.4655010000000 1.0
C      1  0.4729430000000  0.5011130000000  0.5645400000000 1.0
C      1  0.4584740000000  0.5733220000000  0.5056310000000 1.0
C      1  0.4555760000000  0.4630760000000  0.5504030000000 1.0
C      1  0.4575670000000  0.4668760000000  0.4385760000000 1.0
C      1  0.4898210000000  0.4820250000000  0.4813540000000 1.0
C      1  0.4905980000000  0.5272100000000  0.5023400000000 1.0
C      1  0.4865070000000  0.4948520000000  0.5132080000000 1.0
C      1  0.4845570000000  0.4952060000000  0.4538270000000 1.0
C      1  0.4857530000000  0.5483190000000  0.5254740000000 1.0
C      1  0.4862340000000  0.4639680000000  0.5217100000000 1.0
C      1  0.4345430000000  0.4828610000000  0.5199220000000 1.0
C      1  0.4368850000000  0.4815600000000  0.4759380000000 1.0
C      1  0.4369680000000  0.5348310000000  0.5063690000000 1.0
C      1  0.5247530000000  0.4874210000000  0.4400630000000 1.0
C      1  0.5256190000000  0.5600200000000  0.5193310000000 1.0
C      1  0.5250110000000  0.4501030000000  0.5401020000000 1.0
C      1  0.5062490000000  0.5753840000000  0.5007710000000 1.0
C      1  0.5036280000000  0.4589680000000  0.5595720000000 1.0
C      1  0.5057950000000  0.4636160000000  0.4361220000000 1.0
C      1  0.5942170000000  0.5113670000000  0.4838670000000 1.0
C      1  0.5932420000000  0.5114320000000  0.5189540000000 1.0
C      1  0.5952060000000  0.4812090000000  0.5010650000000 1.0
C      1  0.5203110000000  0.5032600000000  0.5224320000000 1.0
C      1  0.5214170000000  0.4733950000000  0.4898370000000 1.0
C      1  0.5195340000000  0.5239310000000  0.4859170000000 1.0
C      1  0.5488050000000  0.4659820000000  0.5454750000000 1.0
C      1  0.5511560000000  0.4775250000000  0.4479800000000 1.0
C      1  0.5520470000000  0.5578360000000  0.5058280000000 1.0
C      1  0.5023240000000  0.5687170000000  0.4694790000000 1.0
C      1  0.5022850000000  0.4886050000000  0.5703570000000 1.0
C      1  0.5044130000000  0.4381240000000  0.4564570000000 1.0
C      1  0.5189460000000  0.5191550000000  0.4558460000000 1.0
C      1  0.5213480000000  0.5294210000000  0.5371040000000 1.0
C      1  0.5224650000000  0.4485150000000  0.5072610000000 1.0
C      1  0.5045480000000  0.5428950000000  0.4444270000000 1.0
C      1  0.5083390000000  0.5236920000000  0.5641340000000 1.0
C      1  0.5084440000000  0.4276900000000  0.4908150000000 1.0
C      1  0.5482960000000  0.5291100000000  0.4992070000000 1.0
C      1  0.5489850000000  0.4857060000000  0.5241710000000 1.0
C      1  0.5498660000000  0.4843090000000  0.4763960000000 1.0
C      1  0.4614270000000  0.5455750000000  0.4913620000000 1.0
C      1  0.4594510000000  0.4924550000000  0.5370140000000 1.0
C      1  0.4610970000000  0.4638580000000  0.4690060000000 1.0
C      1  0.5636980000000  0.5123820000000  0.4792720000000 1.0
C      1  0.5625750000000  0.5130870000000  0.5225330000000 1.0
C      1  0.5654030000000  0.4740110000000  0.5003700000000 1.0
C      1  0.4766910000000  0.4236310000000  0.4958260000000 1.0
C      1  0.4721770000000  0.5401480000000  0.4416400000000 1.0
C      1  0.4767590000000  0.5309690000000  0.5683410000000 1.0
END
