TITL C-862503-991-1160 104916.630075678 125000 -116.315286567357 0 0 23 (C1) n - 1
REM
REM in /home/nfs/bkarasulu/CARBON/AIRSS/Generating-Clusters/TERSOFF/Higher-Symm/FIRE-HFTN
REM
REM
REM
REM
REM
REM ./C.cell (b20cbc046b6831c77cfcea5457e17084)
REM AIRSS Version 0.9.1 bugfix July 2018 build 013d7b7c2542+ Fri, 06 Jul 2018 19:26:36 +0100
REM compiler GCC version 9.2.1 20190827 (Red Hat 9.2.1-1)
REM options -cpp -mtune=generic -march=x86-64 -g -O0 -fpre-include=/usr/include/finclude/math-vector-fortran.h
REM seed 1867594455 -1219696491 1197304276 -1852998340 523817598 1757896474 1910989617 1474870968 1222608411 771741502 -1623079213 -693150083 -1410816827 -1024916143 339797060 -303682383 -1730790425 1486453534 -1071289480 233517203 234762837 -2088142847 -673534080 -1521300992 221924801 -316486740 650469909 -623343437 132359047 -1110940000 2090917417 1626385910 -478995290
REM
CELL 1.54180   50.00000   50.00000   50.00000   90.00000   90.00000   90.00000
LATT -1
SFAC C  
C      1  0.5450090000000  0.5034700000000  0.4773200000000 1.0
C      1  0.4558940000000  0.4875420000000  0.5306490000000 1.0
C      1  0.5204910000000  0.5304180000000  0.5555130000000 1.0
C      1  0.5056520000000  0.4990120000000  0.4537590000000 1.0
C      1  0.4914360000000  0.4755960000000  0.4961470000000 1.0
C      1  0.4974650000000  0.5238770000000  0.5115800000000 1.0
C      1  0.4907050000000  0.5671450000000  0.5376150000000 1.0
C      1  0.4822350000000  0.4544930000000  0.4512400000000 1.0
C      1  0.5604490000000  0.4790400000000  0.4790820000000 1.0
C      1  0.4578180000000  0.5155010000000  0.5234120000000 1.0
C      1  0.4856000000000  0.5352300000000  0.4876140000000 1.0
C      1  0.4754770000000  0.4550940000000  0.5092170000000 1.0
C      1  0.4644580000000  0.5295260000000  0.4517740000000 1.0
C      1  0.5269210000000  0.4871090000000  0.5307240000000 1.0
C      1  0.5323860000000  0.5043870000000  0.5533210000000 1.0
C      1  0.4915700000000  0.5225140000000  0.4444310000000 1.0
C      1  0.5027750000000  0.5408660000000  0.5350680000000 1.0
C      1  0.4931540000000  0.4763570000000  0.4670030000000 1.0
C      1  0.5602970000000  0.4609960000000  0.5017290000000 1.0
C      1  0.4461640000000  0.5272530000000  0.4996640000000 1.0
C      1  0.4492270000000  0.5167840000000  0.4728440000000 1.0
C      1  0.5434750000000  0.4639640000000  0.5250910000000 1.0
C      1  0.5056460000000  0.4954400000000  0.5121970000000 1.0
END
