TITL C-862501-1041-825 5.21377294557946e-07 125000 -372.277923046561 0 0 72 (Th) n - 1
REM
REM in /home/nfs/bkarasulu/CARBON/AIRSS/Generating-Clusters/TERSOFF/Higher-Symm/FIRE-HFTN
REM
REM
REM
REM
REM
REM ./C.cell (b20cbc046b6831c77cfcea5457e17084)
REM AIRSS Version 0.9.1 bugfix July 2018 build 013d7b7c2542+ Fri, 06 Jul 2018 19:26:36 +0100
REM compiler GCC version 9.2.1 20190827 (Red Hat 9.2.1-1)
REM options -cpp -mtune=generic -march=x86-64 -g -O0 -fpre-include=/usr/include/finclude/math-vector-fortran.h
REM seed -2024283061 1955283222 -1283739522 10080332 -517904195 1350628952 1157744247 -878514462 -455731735 684182590 2094000383 -978425063 173929300 476480702 -2120602716 -1262811007 -536613152 1907917984 1367122978 -1631494621 1249376357 331826127 2086700478 -587090189 -1468737320 -256623184 -368727629 1216623299 772186060 347865655 -863987280 1663454386 1389660006
REM
CELL 1.54180   50.00000   50.00000   50.00000   90.00000   90.00000   90.00000
LATT -1
SFAC C  
C      1  0.5289710000000  0.4842230000000  0.4269480000000 1.0
C      1  0.4269480000000  0.5289710000000  0.4842230000000 1.0
C      1  0.4842230000000  0.4269480000000  0.5289710000000 1.0
C      1  0.4710290000000  0.4842230000000  0.5730520000000 1.0
C      1  0.5289710000000  0.5157770000000  0.5730520000000 1.0
C      1  0.4710290000000  0.5157770000000  0.4269480000000 1.0
C      1  0.5730520000000  0.5289710000000  0.5157770000000 1.0
C      1  0.4269480000000  0.4710290000000  0.5157770000000 1.0
C      1  0.5730520000000  0.4710290000000  0.4842230000000 1.0
C      1  0.5157770000000  0.4269480000000  0.4710290000000 1.0
C      1  0.4842230000000  0.5730520000000  0.4710290000000 1.0
C      1  0.5157770000000  0.5730520000000  0.5289710000000 1.0
C      1  0.5289710000000  0.5157770000000  0.4269480000000 1.0
C      1  0.4269480000000  0.4710290000000  0.4842230000000 1.0
C      1  0.4842230000000  0.5730520000000  0.5289710000000 1.0
C      1  0.4710290000000  0.5157770000000  0.5730520000000 1.0
C      1  0.5289710000000  0.4842230000000  0.5730520000000 1.0
C      1  0.4710290000000  0.4842230000000  0.4269480000000 1.0
C      1  0.5730520000000  0.4710290000000  0.5157770000000 1.0
C      1  0.4269480000000  0.5289710000000  0.5157770000000 1.0
C      1  0.5730520000000  0.5289710000000  0.4842230000000 1.0
C      1  0.5157770000000  0.5730520000000  0.4710290000000 1.0
C      1  0.4842230000000  0.4269480000000  0.4710290000000 1.0
C      1  0.5157770000000  0.4269480000000  0.5289710000000 1.0
C      1  0.5301130000000  0.5936940000000  0.4856150000000 1.0
C      1  0.4856150000000  0.5301130000000  0.5936940000000 1.0
C      1  0.5936940000000  0.4856150000000  0.5301130000000 1.0
C      1  0.4698870000000  0.5936940000000  0.5143850000000 1.0
C      1  0.5301130000000  0.4063060000000  0.5143850000000 1.0
C      1  0.4698870000000  0.4063060000000  0.4856150000000 1.0
C      1  0.5143850000000  0.5301130000000  0.4063060000000 1.0
C      1  0.4856150000000  0.4698870000000  0.4063060000000 1.0
C      1  0.5143850000000  0.4698870000000  0.5936940000000 1.0
C      1  0.4063060000000  0.4856150000000  0.4698870000000 1.0
C      1  0.5936940000000  0.5143850000000  0.4698870000000 1.0
C      1  0.4063060000000  0.5143850000000  0.5301130000000 1.0
C      1  0.5301130000000  0.4063060000000  0.4856150000000 1.0
C      1  0.4856150000000  0.4698870000000  0.5936940000000 1.0
C      1  0.5936940000000  0.5143850000000  0.5301130000000 1.0
C      1  0.4698870000000  0.4063060000000  0.5143850000000 1.0
C      1  0.5301130000000  0.5936940000000  0.5143850000000 1.0
C      1  0.4698870000000  0.5936940000000  0.4856150000000 1.0
C      1  0.5143850000000  0.4698870000000  0.4063060000000 1.0
C      1  0.4856150000000  0.5301130000000  0.4063060000000 1.0
C      1  0.5143850000000  0.5301130000000  0.5936940000000 1.0
C      1  0.4063060000000  0.5143850000000  0.4698870000000 1.0
C      1  0.5936940000000  0.4856150000000  0.4698870000000 1.0
C      1  0.4063060000000  0.4856150000000  0.5301130000000 1.0
C      1  0.4825860000000  0.4571210000000  0.5173860000000 1.0
C      1  0.5173860000000  0.4825860000000  0.4571210000000 1.0
C      1  0.4571210000000  0.5173860000000  0.4825860000000 1.0
C      1  0.5174140000000  0.4571210000000  0.4826140000000 1.0
C      1  0.4825860000000  0.5428790000000  0.4826140000000 1.0
C      1  0.5174140000000  0.5428790000000  0.5173860000000 1.0
C      1  0.4826140000000  0.4825860000000  0.5428790000000 1.0
C      1  0.5173860000000  0.5174140000000  0.5428790000000 1.0
C      1  0.4826140000000  0.5174140000000  0.4571210000000 1.0
C      1  0.5428790000000  0.5173860000000  0.5174140000000 1.0
C      1  0.4571210000000  0.4826140000000  0.5174140000000 1.0
C      1  0.5428790000000  0.4826140000000  0.4825860000000 1.0
C      1  0.4825860000000  0.5428790000000  0.5173860000000 1.0
C      1  0.5173860000000  0.5174140000000  0.4571210000000 1.0
C      1  0.4571210000000  0.4826140000000  0.4825860000000 1.0
C      1  0.5174140000000  0.5428790000000  0.4826140000000 1.0
C      1  0.4825860000000  0.4571210000000  0.4826140000000 1.0
C      1  0.5174140000000  0.4571210000000  0.5173860000000 1.0
C      1  0.4826140000000  0.5174140000000  0.5428790000000 1.0
C      1  0.5173860000000  0.4825860000000  0.5428790000000 1.0
C      1  0.4826140000000  0.4825860000000  0.4571210000000 1.0
C      1  0.5428790000000  0.4826140000000  0.5174140000000 1.0
C      1  0.4571210000000  0.5173860000000  0.5174140000000 1.0
C      1  0.5428790000000  0.5173860000000  0.4825860000000 1.0
END
