TITL C-862500-986-423 0.00013824399495058 125000 -340.846557985131 0 0 62 (C2v) n - 1
REM
REM in /home/nfs/bkarasulu/CARBON/AIRSS/Generating-Clusters/TERSOFF/Higher-Symm/FIRE-HFTN
REM
REM
REM
REM
REM
REM ./C.cell (b20cbc046b6831c77cfcea5457e17084)
REM AIRSS Version 0.9.1 bugfix July 2018 build 013d7b7c2542+ Fri, 06 Jul 2018 19:26:36 +0100
REM compiler GCC version 9.2.1 20190827 (Red Hat 9.2.1-1)
REM options -cpp -mtune=generic -march=x86-64 -g -O0 -fpre-include=/usr/include/finclude/math-vector-fortran.h
REM seed -1213218210 593128031 1273267517 -222966683 281932687 243583628 -1741338950 -443276026 -1521477349 -1243489701 992888969 2146098329 132017150 -629406110 802217501 1022258009 767650462 1972912147 -1042944575 -1021984497 574946817 1323026123 1576258596 -2067954903 12162137 -1763265125 1756901952 904915870 630182175 1296749980 -219428458 1975518204 -1538573950
REM
CELL 1.54180   50.00000   50.00000   50.00000   90.00000   90.00000   90.00000
LATT -1
SFAC C  
C      1  0.4805850000000  0.5664120000000  0.4735120000000 1.0
C      1  0.5098430000000  0.5682440000000  0.5255520000000 1.0
C      1  0.4805850000000  0.4320300000000  0.4735120000000 1.0
C      1  0.5098430000000  0.4301970000000  0.5255520000000 1.0
C      1  0.4805780000000  0.5664120000000  0.5264830000000 1.0
C      1  0.5098500000000  0.5682440000000  0.4744510000000 1.0
C      1  0.4805780000000  0.4320300000000  0.5264830000000 1.0
C      1  0.5098500000000  0.4301970000000  0.4744510000000 1.0
C      1  0.5321350000000  0.4755670000000  0.4844270000000 1.0
C      1  0.4782720000000  0.4782350000000  0.5154020000000 1.0
C      1  0.5321350000000  0.5228750000000  0.4844270000000 1.0
C      1  0.4782720000000  0.5202060000000  0.5154020000000 1.0
C      1  0.5321310000000  0.4755670000000  0.5155810000000 1.0
C      1  0.4782760000000  0.4782350000000  0.4845920000000 1.0
C      1  0.5321310000000  0.5228750000000  0.5155810000000 1.0
C      1  0.4782760000000  0.5202060000000  0.4845920000000 1.0
C      1  0.5158260000000  0.5301540000000  0.5620760000000 1.0
C      1  0.4880280000000  0.5173260000000  0.4364860000000 1.0
C      1  0.5158260000000  0.4682880000000  0.5620760000000 1.0
C      1  0.4880280000000  0.4811150000000  0.4364860000000 1.0
C      1  0.5158430000000  0.5301540000000  0.4379280000000 1.0
C      1  0.4880120000000  0.5173260000000  0.5635100000000 1.0
C      1  0.5158430000000  0.4682880000000  0.4379280000000 1.0
C      1  0.4880120000000  0.4811150000000  0.5635100000000 1.0
C      1  0.4464140000000  0.5137390000000  0.4784900000000 1.0
C      1  0.5589100000000  0.5139470000000  0.5273970000000 1.0
C      1  0.4464140000000  0.4847020000000  0.4784900000000 1.0
C      1  0.5589100000000  0.4844940000000  0.5273970000000 1.0
C      1  0.4464090000000  0.5137390000000  0.5214960000000 1.0
C      1  0.5589180000000  0.5139470000000  0.4726180000000 1.0
C      1  0.4464090000000  0.4847020000000  0.5214960000000 1.0
C      1  0.5589180000000  0.4844940000000  0.4726180000000 1.0
C      1  0.5224700000000  0.5436560000000  0.4646020000000 1.0
C      1  0.4725180000000  0.5404860000000  0.5404630000000 1.0
C      1  0.5224700000000  0.4547850000000  0.4646020000000 1.0
C      1  0.4725180000000  0.4579550000000  0.5404630000000 1.0
C      1  0.5224610000000  0.5436560000000  0.5354040000000 1.0
C      1  0.4725290000000  0.5404860000000  0.4595290000000 1.0
C      1  0.5224610000000  0.4547850000000  0.5354040000000 1.0
C      1  0.4725290000000  0.4579550000000  0.4595300000000 1.0
C      1  0.5619610000000  0.4750600000000  0.4447030000000 1.0
C      1  0.4414610000000  0.4680660000000  0.5479020000000 1.0
C      1  0.5619610000000  0.5233810000000  0.4447030000000 1.0
C      1  0.4414610000000  0.5303750000000  0.5479020000000 1.0
C      1  0.5619460000000  0.4750600000000  0.5553130000000 1.0
C      1  0.4414730000000  0.4680660000000  0.4520830000000 1.0
C      1  0.5619460000000  0.5233810000000  0.5553130000000 1.0
C      1  0.4414730000000  0.5303750000000  0.4520830000000 1.0
C      1  0.5395000000000  0.4836670000000  0.4268750000000 1.0
C      1  0.4553150000000  0.4836980000000  0.5712030000000 1.0
C      1  0.5395000000000  0.5147740000000  0.4268750000000 1.0
C      1  0.4553150000000  0.5147430000000  0.5712030000000 1.0
C      1  0.5394810000000  0.4836670000000  0.5731350000000 1.0
C      1  0.4553330000000  0.4836980000000  0.4287850000000 1.0
C      1  0.5394810000000  0.5147740000000  0.5731350000000 1.0
C      1  0.4553330000000  0.5147430000000  0.4287850000000 1.0
C      1  0.4677460000000  0.5726360000000  0.4999960000000 1.0
C      1  0.5199550000000  0.4197420000000  0.5000030000000 1.0
C      1  0.5199550000000  0.5786990000000  0.5000030000000 1.0
C      1  0.4677460000000  0.4258050000000  0.4999960000000 1.0
C      1  0.5058240000000  0.4992210000000  0.4776980000000 1.0
C      1  0.5058180000000  0.4992210000000  0.5223030000000 1.0
END
