TITL C-862130-1496-616 0.00755722948149398 125000 -852.22339158918 0 0 142 (C1) n - 1
REM
REM in /home/nfs/bkarasulu/CARBON/AIRSS/Generating-Clusters/TERSOFF/Higher-Symm/FIRE-HFTN
REM
REM
REM
REM
REM
REM ./C.cell (b20cbc046b6831c77cfcea5457e17084)
REM AIRSS Version 0.9.1 bugfix July 2018 build 013d7b7c2542+ Fri, 06 Jul 2018 19:26:36 +0100
REM compiler GCC version 9.2.1 20190827 (Red Hat 9.2.1-1)
REM options -cpp -mtune=generic -march=x86-64 -g -O0 -fpre-include=/usr/include/finclude/math-vector-fortran.h
REM seed -2030265182 -70213529 1072372175 -562705859 -1620928257 -890105488 1196438843 1349422794 -305819729 -752992049 1420383759 -1395130195 1555155692 -1841572274 -138677816 1683776560 2020179032 -824628103 900623979 -1165032842 -283073664 -1709839596 1763544445 298930989 360796384 -572093097 -1241017611 -73527170 1301273816 1635957898 -1204023810 82981210 -1366775008
REM
CELL 1.54180   50.00000   50.00000   50.00000   90.00000   90.00000   90.00000
LATT -1
SFAC C  
C      1  0.5517360000000  0.5810710000000  0.4754390000000 1.0
C      1  0.4979600000000  0.5824730000000  0.5608110000000 1.0
C      1  0.4501700000000  0.5764680000000  0.4701440000000 1.0
C      1  0.5517460000000  0.5774680000000  0.5316590000000 1.0
C      1  0.4992490000000  0.5756340000000  0.4430860000000 1.0
C      1  0.4496180000000  0.5815880000000  0.5315220000000 1.0
C      1  0.4252390000000  0.5813080000000  0.4847000000000 1.0
C      1  0.5507780000000  0.5863290000000  0.4466040000000 1.0
C      1  0.5232930000000  0.5867140000000  0.5748550000000 1.0
C      1  0.4254410000000  0.5859730000000  0.5157880000000 1.0
C      1  0.5508700000000  0.5812000000000  0.5605860000000 1.0
C      1  0.5246380000000  0.5806620000000  0.4296390000000 1.0
C      1  0.6057120000000  0.4993550000000  0.4699450000000 1.0
C      1  0.4725500000000  0.4994700000000  0.6063400000000 1.0
C      1  0.4231240000000  0.4940820000000  0.4248240000000 1.0
C      1  0.6041510000000  0.4944090000000  0.5289530000000 1.0
C      1  0.4741800000000  0.4931270000000  0.3964570000000 1.0
C      1  0.4215520000000  0.4986500000000  0.5758090000000 1.0
C      1  0.5204280000000  0.4028330000000  0.4725990000000 1.0
C      1  0.5104770000000  0.4135540000000  0.5235490000000 1.0
C      1  0.4705340000000  0.4073760000000  0.4899320000000 1.0
C      1  0.5320210000000  0.4089900000000  0.5014130000000 1.0
C      1  0.4898300000000  0.4035850000000  0.4647600000000 1.0
C      1  0.4797590000000  0.4155050000000  0.5185990000000 1.0
C      1  0.5415500000000  0.4376480000000  0.5470660000000 1.0
C      1  0.4359520000000  0.4573130000000  0.5072660000000 1.0
C      1  0.5226440000000  0.4386150000000  0.4370510000000 1.0
C      1  0.5404100000000  0.4580730000000  0.4476370000000 1.0
C      1  0.4339730000000  0.4365140000000  0.4878030000000 1.0
C      1  0.5232630000000  0.4560690000000  0.5589590000000 1.0
C      1  0.5731040000000  0.5078590000000  0.5663270000000 1.0
C      1  0.4041330000000  0.5154350000000  0.5316670000000 1.0
C      1  0.5206170000000  0.5079870000000  0.4058100000000 1.0
C      1  0.5740480000000  0.5160820000000  0.4355160000000 1.0
C      1  0.4069150000000  0.5085800000000  0.4693100000000 1.0
C      1  0.5197930000000  0.5153160000000  0.5991620000000 1.0
C      1  0.4035920000000  0.5638940000000  0.5180710000000 1.0
C      1  0.5338200000000  0.5587400000000  0.4086250000000 1.0
C      1  0.5640730000000  0.5582420000000  0.5779930000000 1.0
C      1  0.4030370000000  0.5590080000000  0.4822890000000 1.0
C      1  0.5321070000000  0.5637110000000  0.5938390000000 1.0
C      1  0.5633100000000  0.5643310000000  0.4285950000000 1.0
C      1  0.5595060000000  0.4652620000000  0.4243360000000 1.0
C      1  0.5341060000000  0.4629240000000  0.5869800000000 1.0
C      1  0.4045600000000  0.4472690000000  0.4812420000000 1.0
C      1  0.5618790000000  0.4454670000000  0.5715140000000 1.0
C      1  0.5333930000000  0.4465380000000  0.4078840000000 1.0
C      1  0.4069270000000  0.4664600000000  0.5116290000000 1.0
C      1  0.5274660000000  0.5674770000000  0.5189870000000 1.0
C      1  0.4726750000000  0.5709140000000  0.5175100000000 1.0
C      1  0.5005620000000  0.5659000000000  0.4705180000000 1.0
C      1  0.5275780000000  0.5704440000000  0.4874430000000 1.0
C      1  0.4727180000000  0.5666980000000  0.4857840000000 1.0
C      1  0.4997290000000  0.5716760000000  0.5339080000000 1.0
C      1  0.5886000000000  0.5436930000000  0.5326900000000 1.0
C      1  0.4278870000000  0.5485090000000  0.5627270000000 1.0
C      1  0.4831130000000  0.5422960000000  0.4093360000000 1.0
C      1  0.5895460000000  0.5479950000000  0.4714690000000 1.0
C      1  0.4299960000000  0.5426880000000  0.4392080000000 1.0
C      1  0.4811310000000  0.5486650000000  0.5941190000000 1.0
C      1  0.5263730000000  0.5381750000000  0.4886560000000 1.0
C      1  0.5000790000000  0.5389250000000  0.5330770000000 1.0
C      1  0.4739270000000  0.5331580000000  0.4868210000000 1.0
C      1  0.5268490000000  0.5327540000000  0.5190540000000 1.0
C      1  0.5012300000000  0.5317050000000  0.4720690000000 1.0
C      1  0.4737480000000  0.5377090000000  0.5172900000000 1.0
C      1  0.4251900000000  0.4437390000000  0.4325540000000 1.0
C      1  0.5929540000000  0.4505260000000  0.4632950000000 1.0
C      1  0.4823270000000  0.4503530000000  0.5948100000000 1.0
C      1  0.4292770000000  0.4478680000000  0.5575760000000 1.0
C      1  0.5894230000000  0.4415010000000  0.5255890000000 1.0
C      1  0.4811410000000  0.4413170000000  0.4058270000000 1.0
C      1  0.5466020000000  0.5008150000000  0.5572660000000 1.0
C      1  0.4276250000000  0.5091370000000  0.5153910000000 1.0
C      1  0.5248750000000  0.5003550000000  0.4334500000000 1.0
C      1  0.5487790000000  0.5080700000000  0.4480320000000 1.0
C      1  0.4274000000000  0.5001440000000  0.4878940000000 1.0
C      1  0.5223930000000  0.5088010000000  0.5708200000000 1.0
C      1  0.5012490000000  0.4919520000000  0.4483100000000 1.0
C      1  0.5446960000000  0.4937360000000  0.5294630000000 1.0
C      1  0.4508700000000  0.5053400000000  0.5309760000000 1.0
C      1  0.4975630000000  0.5050490000000  0.5577420000000 1.0
C      1  0.5507870000000  0.5027040000000  0.4759780000000 1.0
C      1  0.4526950000000  0.4910620000000  0.4764440000000 1.0
C      1  0.5601300000000  0.4725050000000  0.5164620000000 1.0
C      1  0.4559930000000  0.4811750000000  0.5452400000000 1.0
C      1  0.4833820000000  0.4697000000000  0.4406120000000 1.0
C      1  0.5626620000000  0.4784960000000  0.4859130000000 1.0
C      1  0.4556450000000  0.4695300000000  0.4566280000000 1.0
C      1  0.4817870000000  0.4814440000000  0.5607580000000 1.0
C      1  0.4617090000000  0.5257840000000  0.5968890000000 1.0
C      1  0.4368830000000  0.5201910000000  0.4207290000000 1.0
C      1  0.6022140000000  0.5244960000000  0.4855910000000 1.0
C      1  0.4636700000000  0.5198230000000  0.4058350000000 1.0
C      1  0.4349900000000  0.5254800000000  0.5808690000000 1.0
C      1  0.6012760000000  0.5220500000000  0.5164270000000 1.0
C      1  0.4031790000000  0.4891260000000  0.4471970000000 1.0
C      1  0.5955980000000  0.4966020000000  0.4413670000000 1.0
C      1  0.5022400000000  0.4950440000000  0.6121350000000 1.0
C      1  0.4021390000000  0.4945450000000  0.5531000000000 1.0
C      1  0.5928200000000  0.4874750000000  0.5562150000000 1.0
C      1  0.5035550000000  0.4879920000000  0.3914220000000 1.0
C      1  0.5088890000000  0.4658990000000  0.6045260000000 1.0
C      1  0.4042760000000  0.4580200000000  0.4529070000000 1.0
C      1  0.5874540000000  0.4675180000000  0.4367730000000 1.0
C      1  0.5079830000000  0.4569540000000  0.3957060000000 1.0
C      1  0.4059170000000  0.4661940000000  0.5419410000000 1.0
C      1  0.5849500000000  0.4565340000000  0.5552450000000 1.0
C      1  0.4098940000000  0.5370720000000  0.4619090000000 1.0
C      1  0.5797490000000  0.5437510000000  0.4422220000000 1.0
C      1  0.5113770000000  0.5433580000000  0.6008600000000 1.0
C      1  0.4071020000000  0.5435000000000  0.5398280000000 1.0
C      1  0.5786210000000  0.5367290000000  0.5611630000000 1.0
C      1  0.5128340000000  0.5366280000000  0.4038800000000 1.0
C      1  0.5947280000000  0.4747890000000  0.4822790000000 1.0
C      1  0.4664550000000  0.4761340000000  0.5889880000000 1.0
C      1  0.4401200000000  0.4701580000000  0.4273710000000 1.0
C      1  0.5939050000000  0.4713460000000  0.5130070000000 1.0
C      1  0.4669440000000  0.4693520000000  0.4126000000000 1.0
C      1  0.4398060000000  0.4751080000000  0.5727100000000 1.0
C      1  0.4475410000000  0.4238230000000  0.4431640000000 1.0
C      1  0.5702190000000  0.4330200000000  0.4757240000000 1.0
C      1  0.4809880000000  0.4343340000000  0.5671480000000 1.0
C      1  0.4577210000000  0.4297900000000  0.5438200000000 1.0
C      1  0.5656750000000  0.4223870000000  0.5057400000000 1.0
C      1  0.4777550000000  0.4182230000000  0.4335740000000 1.0
C      1  0.4562810000000  0.4574650000000  0.5269720000000 1.0
C      1  0.4955910000000  0.4413950000000  0.4452160000000 1.0
C      1  0.5479370000000  0.4441490000000  0.5200890000000 1.0
C      1  0.4537200000000  0.4400600000000  0.4680730000000 1.0
C      1  0.4961950000000  0.4563400000000  0.5519510000000 1.0
C      1  0.5487380000000  0.4547410000000  0.4740560000000 1.0
C      1  0.5762800000000  0.5690140000000  0.4878460000000 1.0
C      1  0.4743880000000  0.5709320000000  0.5752450000000 1.0
C      1  0.4495450000000  0.5647910000000  0.4428150000000 1.0
C      1  0.5761410000000  0.5670070000000  0.5185300000000 1.0
C      1  0.4762330000000  0.5644740000000  0.4280380000000 1.0
C      1  0.4478650000000  0.5706760000000  0.5592800000000 1.0
C      1  0.4846030000000  0.4440910000000  0.4738610000000 1.0
C      1  0.4861550000000  0.4568020000000  0.5227310000000 1.0
C      1  0.5290280000000  0.4506040000000  0.4971710000000 1.0
C      1  0.4998990000000  0.4502660000000  0.4980020000000 1.0
END
