TITL C-862131-2149-264 -0.000192606583218989 125000 -307.152079480574 0 0 56 (C1) n - 1
REM
REM in /home/nfs/bkarasulu/CARBON/AIRSS/Generating-Clusters/TERSOFF/Higher-Symm/FIRE-HFTN
REM
REM
REM
REM
REM
REM ./C.cell (b20cbc046b6831c77cfcea5457e17084)
REM AIRSS Version 0.9.1 bugfix July 2018 build 013d7b7c2542+ Fri, 06 Jul 2018 19:26:36 +0100
REM compiler GCC version 9.2.1 20190827 (Red Hat 9.2.1-1)
REM options -cpp -mtune=generic -march=x86-64 -g -O0 -fpre-include=/usr/include/finclude/math-vector-fortran.h
REM seed -1487930457 -1467020877 839981146 -398804159 223567614 647314299 -391434521 -1488450637 510144717 -1586395595 -1716100874 -948511346 -1662976052 -462179983 -1142037907 2020633475 -676603822 399428071 -1934657759 1197559720 -303567076 -26784940 543276102 -270433913 1590302431 1095438515 1110027082 817516629 -1177748949 1123439266 1353625509 -511536147 30157132
REM
CELL 1.54180   50.00000   50.00000   50.00000   90.00000   90.00000   90.00000
LATT -1
SFAC C  
C      1  0.4507710000000  0.4579950000000  0.4789320000000 1.0
C      1  0.4985410000000  0.4473600000000  0.4739100000000 1.0
C      1  0.5436360000000  0.4538130000000  0.4899560000000 1.0
C      1  0.5183820000000  0.4525510000000  0.5257980000000 1.0
C      1  0.4734870000000  0.4581210000000  0.5272400000000 1.0
C      1  0.5428560000000  0.5601190000000  0.4898640000000 1.0
C      1  0.5020510000000  0.5476890000000  0.4530110000000 1.0
C      1  0.4640540000000  0.5400790000000  0.4840900000000 1.0
C      1  0.4775780000000  0.5578070000000  0.5288940000000 1.0
C      1  0.5314790000000  0.5538010000000  0.5383530000000 1.0
C      1  0.4678240000000  0.5446880000000  0.4541340000000 1.0
C      1  0.5353270000000  0.5535790000000  0.4594660000000 1.0
C      1  0.5601490000000  0.5485060000000  0.5187960000000 1.0
C      1  0.5022010000000  0.5569980000000  0.5511010000000 1.0
C      1  0.4499730000000  0.5509950000000  0.5083460000000 1.0
C      1  0.5281860000000  0.4410620000000  0.4663000000000 1.0
C      1  0.4722980000000  0.4525410000000  0.4586430000000 1.0
C      1  0.4503850000000  0.4478840000000  0.5090530000000 1.0
C      1  0.4959980000000  0.4433380000000  0.5442720000000 1.0
C      1  0.5467020000000  0.4434390000000  0.5191360000000 1.0
C      1  0.4972930000000  0.5373920000000  0.5727090000000 1.0
C      1  0.4477900000000  0.5125720000000  0.5397530000000 1.0
C      1  0.4264330000000  0.5154190000000  0.4651330000000 1.0
C      1  0.5210170000000  0.5105880000000  0.4376170000000 1.0
C      1  0.5732960000000  0.5314690000000  0.4933990000000 1.0
C      1  0.5055770000000  0.4607330000000  0.5680320000000 1.0
C      1  0.5563210000000  0.4717330000000  0.5302010000000 1.0
C      1  0.5571460000000  0.4824750000000  0.4582660000000 1.0
C      1  0.4797740000000  0.4764740000000  0.4398290000000 1.0
C      1  0.4114000000000  0.4818600000000  0.5046430000000 1.0
C      1  0.4845200000000  0.5222860000000  0.4935260000000 1.0
C      1  0.5070070000000  0.5286390000000  0.4778350000000 1.0
C      1  0.5313780000000  0.5297380000000  0.4942530000000 1.0
C      1  0.5217850000000  0.5268740000000  0.5243200000000 1.0
C      1  0.4905210000000  0.5287320000000  0.5223270000000 1.0
C      1  0.5310260000000  0.4822740000000  0.4915620000000 1.0
C      1  0.5037590000000  0.4794570000000  0.4765280000000 1.0
C      1  0.4531100000000  0.4867850000000  0.4846080000000 1.0
C      1  0.4856080000000  0.4851230000000  0.5207890000000 1.0
C      1  0.5169190000000  0.4818260000000  0.5197610000000 1.0
C      1  0.4600340000000  0.4968930000000  0.4304910000000 1.0
C      1  0.5340890000000  0.4657960000000  0.4487620000000 1.0
C      1  0.5686590000000  0.4942700000000  0.5122050000000 1.0
C      1  0.5137420000000  0.4897120000000  0.5653990000000 1.0
C      1  0.4225650000000  0.4571420000000  0.5159730000000 1.0
C      1  0.5413470000000  0.5241700000000  0.4538660000000 1.0
C      1  0.4498010000000  0.5197810000000  0.4469390000000 1.0
C      1  0.4357500000000  0.5245920000000  0.5160630000000 1.0
C      1  0.4915790000000  0.5093810000000  0.5660400000000 1.0
C      1  0.5621840000000  0.5181630000000  0.5316490000000 1.0
C      1  0.5542950000000  0.5057510000000  0.4815440000000 1.0
C      1  0.4767220000000  0.5076250000000  0.5401740000000 1.0
C      1  0.4289740000000  0.5041210000000  0.4936250000000 1.0
C      1  0.5337340000000  0.4979160000000  0.5414350000000 1.0
C      1  0.5093580000000  0.4847890000000  0.4449250000000 1.0
C      1  0.4802150000000  0.4936980000000  0.4919630000000 1.0
END
