TITL C-862500-986-450 1.28164876123708 125000 -324.653916262837 0 0 57 (Cs) n - 1
REM
REM in /home/nfs/bkarasulu/CARBON/AIRSS/Generating-Clusters/TERSOFF/Higher-Symm/FIRE-HFTN
REM
REM
REM
REM
REM
REM ./C.cell (b20cbc046b6831c77cfcea5457e17084)
REM AIRSS Version 0.9.1 bugfix July 2018 build 013d7b7c2542+ Fri, 06 Jul 2018 19:26:36 +0100
REM compiler GCC version 9.2.1 20190827 (Red Hat 9.2.1-1)
REM options -cpp -mtune=generic -march=x86-64 -g -O0 -fpre-include=/usr/include/finclude/math-vector-fortran.h
REM seed -51399967 2092173202 -490451430 -404171145 1911625633 -1416046393 1605169971 -101058894 -32918994 592368472 -201998635 -203742651 849363727 -1952535680 652518099 1317096573 2065445862 -813775137 -1336328932 -1287091270 402049097 -98643522 1644022118 1913917006 1151274697 29713037 1567217425 -1775613993 -1360411822 -1327702225 -2021772396 -1736469372 262211312
REM
CELL 1.54180   50.00000   50.00000   50.00000   90.00000   90.00000   90.00000
LATT -1
SFAC C  
C      1  0.5136470000000  0.5690450000000  0.4607450000000 1.0
C      1  0.5136470000000  0.4320860000000  0.4607450000000 1.0
C      1  0.5691050000000  0.4775070000000  0.5279630000000 1.0
C      1  0.5691050000000  0.5236240000000  0.5279630000000 1.0
C      1  0.4475570000000  0.5299070000000  0.4826750000000 1.0
C      1  0.4475570000000  0.4712240000000  0.4826750000000 1.0
C      1  0.5057750000000  0.5315800000000  0.4434700000000 1.0
C      1  0.5057750000000  0.4695510000000  0.4434700000000 1.0
C      1  0.5386310000000  0.5557380000000  0.4680080000000 1.0
C      1  0.5386310000000  0.4453930000000  0.4680080000000 1.0
C      1  0.4529060000000  0.4713530000000  0.5320970000000 1.0
C      1  0.4529060000000  0.5297780000000  0.5320970000000 1.0
C      1  0.5425160000000  0.5495280000000  0.4960250000000 1.0
C      1  0.5425160000000  0.4516030000000  0.4960250000000 1.0
C      1  0.4628310000000  0.4459950000000  0.4800740000000 1.0
C      1  0.4628320000000  0.5551360000000  0.4800740000000 1.0
C      1  0.4954080000000  0.4186410000000  0.4799970000000 1.0
C      1  0.4954090000000  0.5824900000000  0.4799970000000 1.0
C      1  0.5690530000000  0.4856780000000  0.4747180000000 1.0
C      1  0.5690530000000  0.5154530000000  0.4747180000000 1.0
C      1  0.5206810000000  0.4672990000000  0.5394660000000 1.0
C      1  0.5206810000000  0.5338320000000  0.5394660000000 1.0
C      1  0.4858570000000  0.5507580000000  0.4351140000000 1.0
C      1  0.4858570000000  0.4503730000000  0.4351140000000 1.0
C      1  0.4467140000000  0.4857180000000  0.5079730000000 1.0
C      1  0.4467140000000  0.5154130000000  0.5079730000000 1.0
C      1  0.4548460000000  0.4711280000000  0.5827430000000 1.0
C      1  0.4548460000000  0.5300030000000  0.5827430000000 1.0
C      1  0.4684620000000  0.5645090000000  0.4532670000000 1.0
C      1  0.4684610000000  0.4366220000000  0.4532670000000 1.0
C      1  0.5038570000000  0.5149330000000  0.4673860000000 1.0
C      1  0.5038570000000  0.4861980000000  0.4673860000000 1.0
C      1  0.5176800000000  0.4376740000000  0.5443220000000 1.0
C      1  0.5176810000000  0.5634570000000  0.5443210000000 1.0
C      1  0.5530850000000  0.5326710000000  0.4543550000000 1.0
C      1  0.5530850000000  0.4684600000000  0.4543550000000 1.0
C      1  0.5663240000000  0.5327820000000  0.5005320000000 1.0
C      1  0.5663240000000  0.4683490000000  0.5005320000000 1.0
C      1  0.4397450000000  0.4861870000000  0.4590170000000 1.0
C      1  0.4397450000000  0.5149440000000  0.4590170000000 1.0
C      1  0.4538850000000  0.4857770000000  0.5576570000000 1.0
C      1  0.4538850000000  0.5153540000000  0.5576570000000 1.0
C      1  0.4627070000000  0.4439740000000  0.5294240000000 1.0
C      1  0.4627070000000  0.5571570000000  0.5294240000000 1.0
C      1  0.5190250000000  0.4613230000000  0.5096390000000 1.0
C      1  0.5190250000000  0.5398080000000  0.5096390000000 1.0
C      1  0.4800120000000  0.4332760000000  0.5050730000000 1.0
C      1  0.4800120000000  0.5678550000000  0.5050730000000 1.0
C      1  0.4987210000000  0.4768190000000  0.4952230000000 1.0
C      1  0.4987210000000  0.5243120000000  0.4952230000000 1.0
C      1  0.5455050000000  0.4850980000000  0.5444660000000 1.0
C      1  0.5455050000000  0.5160320000000  0.5444660000000 1.0
C      1  0.4935840000000  0.5215470000000  0.5385050000000 1.0
C      1  0.4935840000000  0.4795840000000  0.5385050000000 1.0
C      1  0.5015980000000  0.4214060000000  0.5260920000000 1.0
C      1  0.5015980000000  0.5797250000000  0.5260920000000 1.0
C      1  0.4852950000000  0.5005660000000  0.5153170000000 1.0
END
