TITL C-862127-1500-837 -0.000732222201077744 125000 -455.267466601876 0 0 97 (C2) n - 1
REM
REM in /home/nfs/bkarasulu/CARBON/AIRSS/Generating-Clusters/TERSOFF/Higher-Symm/FIRE-HFTN
REM
REM
REM
REM
REM
REM ./C.cell (b20cbc046b6831c77cfcea5457e17084)
REM AIRSS Version 0.9.1 bugfix July 2018 build 013d7b7c2542+ Fri, 06 Jul 2018 19:26:36 +0100
REM compiler GCC version 9.2.1 20190827 (Red Hat 9.2.1-1)
REM options -cpp -mtune=generic -march=x86-64 -g -O0 -fpre-include=/usr/include/finclude/math-vector-fortran.h
REM seed 1191616693 -1498277501 969254074 1800840504 1341595256 262562222 -1501520179 1357917943 1396199807 -57442603 -736937337 -1905481938 -1310931801 -1067392928 -1260987211 -446693082 -840437890 1842017632 -1757114575 341433 -1260983517 -1601507596 -957585818 1247959064 537526035 603955209 -723263028 1028911097 -1441308644 983536187 659653603 -2016613378 -1183732920
REM
CELL 1.54180   50.00000   50.00000   50.00000   90.00000   90.00000   90.00000
LATT -1
SFAC C  
C      1  0.5026590000000  0.5940550000000  0.5320690000000 1.0
C      1  0.5893130000000  0.5323830000000  0.4999500000000 1.0
C      1  0.5327050000000  0.5023520000000  0.5913150000000 1.0
C      1  0.5005320000000  0.4096340000000  0.4695440000000 1.0
C      1  0.4967510000000  0.5942370000000  0.4682860000000 1.0
C      1  0.4990200000000  0.4096130000000  0.5306590000000 1.0
C      1  0.5914700000000  0.4691600000000  0.4985780000000 1.0
C      1  0.4101850000000  0.5323990000000  0.5002160000000 1.0
C      1  0.4081570000000  0.4691260000000  0.5017250000000 1.0
C      1  0.5307650000000  0.4957780000000  0.4081480000000 1.0
C      1  0.4669650000000  0.5024250000000  0.4088860000000 1.0
C      1  0.4689640000000  0.4955990000000  0.5921940000000 1.0
C      1  0.5014830000000  0.5304310000000  0.5915210000000 1.0
C      1  0.5919270000000  0.5041580000000  0.5309320000000 1.0
C      1  0.5302280000000  0.5900010000000  0.5006620000000 1.0
C      1  0.4998560000000  0.4674740000000  0.4107790000000 1.0
C      1  0.4997580000000  0.4671850000000  0.5894100000000 1.0
C      1  0.4978740000000  0.5308470000000  0.4085800000000 1.0
C      1  0.5911480000000  0.4973010000000  0.4674130000000 1.0
C      1  0.4083050000000  0.4972140000000  0.5329390000000 1.0
C      1  0.4074330000000  0.5041500000000  0.4692690000000 1.0
C      1  0.5317290000000  0.4056680000000  0.4973630000000 1.0
C      1  0.4678830000000  0.4056120000000  0.5027780000000 1.0
C      1  0.4691050000000  0.5901230000000  0.4996180000000 1.0
C      1  0.5047280000000  0.4711490000000  0.5464460000000 1.0
C      1  0.4766550000000  0.5464140000000  0.5082950000000 1.0
C      1  0.5486440000000  0.5044010000000  0.4700690000000 1.0
C      1  0.5073220000000  0.5334850000000  0.4494170000000 1.0
C      1  0.4942140000000  0.4712650000000  0.4533130000000 1.0
C      1  0.4915940000000  0.5332350000000  0.5507990000000 1.0
C      1  0.4645580000000  0.4419200000000  0.4819420000000 1.0
C      1  0.5228230000000  0.5462500000000  0.4917410000000 1.0
C      1  0.5347810000000  0.4420200000000  0.5181640000000 1.0
C      1  0.5496630000000  0.4937110000000  0.5292800000000 1.0
C      1  0.4493860000000  0.5052410000000  0.5295060000000 1.0
C      1  0.4488170000000  0.4934390000000  0.4708260000000 1.0
C      1  0.5175450000000  0.5579060000000  0.4649390000000 1.0
C      1  0.4701740000000  0.5062510000000  0.5506070000000 1.0
C      1  0.5502940000000  0.4665970000000  0.5083000000000 1.0
C      1  0.5078070000000  0.4533570000000  0.5230130000000 1.0
C      1  0.4914760000000  0.4533970000000  0.4768220000000 1.0
C      1  0.4817330000000  0.5577830000000  0.5352210000000 1.0
C      1  0.4699120000000  0.4947330000000  0.4500690000000 1.0
C      1  0.5288090000000  0.4944290000000  0.5502550000000 1.0
C      1  0.5282850000000  0.5065440000000  0.4486680000000 1.0
C      1  0.5463130000000  0.5282360000000  0.4941150000000 1.0
C      1  0.4531610000000  0.5286050000000  0.5053460000000 1.0
C      1  0.4489230000000  0.4664020000000  0.4919920000000 1.0
C      1  0.4833360000000  0.5663960000000  0.4595390000000 1.0
C      1  0.5666400000000  0.4585250000000  0.4821360000000 1.0
C      1  0.4595000000000  0.4801740000000  0.5663730000000 1.0
C      1  0.4840020000000  0.4360440000000  0.5363480000000 1.0
C      1  0.5157620000000  0.5659940000000  0.5405850000000 1.0
C      1  0.5154630000000  0.4361100000000  0.4638440000000 1.0
C      1  0.5642550000000  0.5407810000000  0.5168220000000 1.0
C      1  0.4328320000000  0.4583130000000  0.5183690000000 1.0
C      1  0.4349320000000  0.5410470000000  0.4830250000000 1.0
C      1  0.4585080000000  0.5198270000000  0.4338260000000 1.0
C      1  0.5403740000000  0.4800080000000  0.4339500000000 1.0
C      1  0.5408810000000  0.5195880000000  0.5661160000000 1.0
C      1  0.4824840000000  0.4586700000000  0.5646810000000 1.0
C      1  0.5660770000000  0.4802570000000  0.4595860000000 1.0
C      1  0.4632090000000  0.5637370000000  0.4845300000000 1.0
C      1  0.4811080000000  0.5416330000000  0.4332350000000 1.0
C      1  0.5180990000000  0.5412220000000  0.5668370000000 1.0
C      1  0.5170850000000  0.4587170000000  0.4355210000000 1.0
C      1  0.5658970000000  0.5192880000000  0.5397970000000 1.0
C      1  0.4332740000000  0.5196350000000  0.4599170000000 1.0
C      1  0.4334370000000  0.4799810000000  0.5411100000000 1.0
C      1  0.4590990000000  0.4335430000000  0.5160370000000 1.0
C      1  0.5404060000000  0.4336790000000  0.4842130000000 1.0
C      1  0.5360080000000  0.5635190000000  0.5155690000000 1.0
C      1  0.5464390000000  0.4247540000000  0.5386240000000 1.0
C      1  0.4273820000000  0.5745960000000  0.5387020000000 1.0
C      1  0.5616230000000  0.5647870000000  0.4294610000000 1.0
C      1  0.5384900000000  0.4259900000000  0.5727340000000 1.0
C      1  0.4528160000000  0.4245930000000  0.4615740000000 1.0
C      1  0.5719430000000  0.5745760000000  0.4614890000000 1.0
C      1  0.5706210000000  0.4348420000000  0.5618970000000 1.0
C      1  0.4378080000000  0.5651300000000  0.5707930000000 1.0
C      1  0.4288250000000  0.4347170000000  0.4381200000000 1.0
C      1  0.5379210000000  0.5751550000000  0.4531010000000 1.0
C      1  0.4609120000000  0.4254690000000  0.4274890000000 1.0
C      1  0.4614370000000  0.5751980000000  0.5469510000000 1.0
C      1  0.5010320000000  0.4984570000000  0.5998570000000 1.0
C      1  0.4996920000000  0.6023620000000  0.5001990000000 1.0
C      1  0.4987120000000  0.4987940000000  0.4004870000000 1.0
C      1  0.4998180000000  0.3973620000000  0.5000990000000 1.0
C      1  0.5999570000000  0.5011320000000  0.4989940000000 1.0
C      1  0.3997700000000  0.5011000000000  0.5012950000000 1.0
C      1  0.4661340000000  0.4973140000000  0.4999170000000 1.0
C      1  0.4994530000000  0.5025310000000  0.4666020000000 1.0
C      1  0.4996730000000  0.5316570000000  0.5000150000000 1.0
C      1  0.4996150000000  0.4680600000000  0.4999350000000 1.0
C      1  0.5326790000000  0.4972430000000  0.4999910000000 1.0
C      1  0.4992930000000  0.5024020000000  0.5334120000000 1.0
C      1  0.4994810000000  0.4998640000000  0.5000070000000 1.0
END
