TITL C-862133-5440-1386 -214.478150933758 125000 -980.937667987725 0 0 173 (C1) n - 1
REM
REM in /home/nfs/bkarasulu/CARBON/AIRSS/Generating-Clusters/TERSOFF/Higher-Symm/FIRE-HFTN
REM
REM
REM
REM
REM
REM ./C.cell (b20cbc046b6831c77cfcea5457e17084)
REM AIRSS Version 0.9.1 bugfix July 2018 build 013d7b7c2542+ Fri, 06 Jul 2018 19:26:36 +0100
REM compiler GCC version 9.2.1 20190827 (Red Hat 9.2.1-1)
REM options -cpp -mtune=generic -march=x86-64 -g -O0 -fpre-include=/usr/include/finclude/math-vector-fortran.h
REM seed -1633560249 -1860090350 -711671307 1709350953 -673561304 1659449646 -2124355704 -1904922530 709057491 208779054 988690925 373394740 -778956911 -956855301 -941318810 413848659 513351513 1130197751 180980289 1862636628 737572890 -74841065 1075287526 1145514570 -545890051 1563627949 465287099 -1345462699 1080789289 703498746 962191877 408250786 -714778368
REM
CELL 1.54180   50.00000   50.00000   50.00000   90.00000   90.00000   90.00000
LATT -1
SFAC C  
C      1  0.4215680000000  0.5168960000000  0.5075480000000 1.0
C      1  0.4372530000000  0.5183040000000  0.4686650000000 1.0
C      1  0.4631630000000  0.5192210000000  0.4357930000000 1.0
C      1  0.5061220000000  0.5116280000000  0.4223790000000 1.0
C      1  0.5377290000000  0.5171100000000  0.4492810000000 1.0
C      1  0.5707190000000  0.5150900000000  0.4748830000000 1.0
C      1  0.5730230000000  0.5165580000000  0.5165820000000 1.0
C      1  0.5563410000000  0.5151850000000  0.5549220000000 1.0
C      1  0.5167140000000  0.5240020000000  0.5656200000000 1.0
C      1  0.4753020000000  0.5195990000000  0.5628510000000 1.0
C      1  0.4366470000000  0.5167750000000  0.5466930000000 1.0
C      1  0.5374720000000  0.4993470000000  0.5387210000000 1.0
C      1  0.5090190000000  0.5069730000000  0.5413110000000 1.0
C      1  0.4803630000000  0.4958170000000  0.5419590000000 1.0
C      1  0.4553660000000  0.5045050000000  0.5291410000000 1.0
C      1  0.4448820000000  0.4957920000000  0.5032820000000 1.0
C      1  0.4605930000000  0.5008530000000  0.4774720000000 1.0
C      1  0.4733440000000  0.4953540000000  0.4505220000000 1.0
C      1  0.5020370000000  0.4952810000000  0.4459800000000 1.0
C      1  0.5234530000000  0.4939700000000  0.4692670000000 1.0
C      1  0.5480480000000  0.5009970000000  0.4866510000000 1.0
C      1  0.5515470000000  0.4916110000000  0.5144140000000 1.0
C      1  0.5655910000000  0.4627910000000  0.5171630000000 1.0
C      1  0.5559740000000  0.4641560000000  0.5520180000000 1.0
C      1  0.5269710000000  0.4640470000000  0.5604890000000 1.0
C      1  0.4663130000000  0.4706880000000  0.5549970000000 1.0
C      1  0.4370680000000  0.4694420000000  0.5432180000000 1.0
C      1  0.4324870000000  0.4685760000000  0.5121640000000 1.0
C      1  0.4454910000000  0.4600980000000  0.4539070000000 1.0
C      1  0.4649060000000  0.4712950000000  0.4342070000000 1.0
C      1  0.4921680000000  0.4581730000000  0.4289750000000 1.0
C      1  0.5451140000000  0.4683550000000  0.4604160000000 1.0
C      1  0.5700220000000  0.4656560000000  0.4813370000000 1.0
C      1  0.5508020000000  0.4621880000000  0.5950060000000 1.0
C      1  0.4911720000000  0.4615640000000  0.5968870000000 1.0
C      1  0.4338900000000  0.4610730000000  0.5842490000000 1.0
C      1  0.3958240000000  0.4594410000000  0.5375070000000 1.0
C      1  0.3994800000000  0.4574130000000  0.4758490000000 1.0
C      1  0.4242650000000  0.4621500000000  0.4177700000000 1.0
C      1  0.4754410000000  0.4610540000000  0.3905670000000 1.0
C      1  0.5371220000000  0.4556630000000  0.4100600000000 1.0
C      1  0.5842510000000  0.4583680000000  0.4423950000000 1.0
C      1  0.6089240000000  0.4585920000000  0.4963580000000 1.0
C      1  0.5976440000000  0.4596130000000  0.5545130000000 1.0
C      1  0.5761010000000  0.5591320000000  0.4369860000000 1.0
C      1  0.5998640000000  0.5602990000000  0.4872310000000 1.0
C      1  0.5927630000000  0.5617540000000  0.5420360000000 1.0
C      1  0.5537660000000  0.5657190000000  0.5843610000000 1.0
C      1  0.4978340000000  0.5639670000000  0.5941290000000 1.0
C      1  0.4407100000000  0.5625820000000  0.5824760000000 1.0
C      1  0.4001540000000  0.5627980000000  0.5415420000000 1.0
C      1  0.3976200000000  0.5622260000000  0.4853080000000 1.0
C      1  0.4241390000000  0.5625290000000  0.4355810000000 1.0
C      1  0.4758530000000  0.5622080000000  0.4005070000000 1.0
C      1  0.5322950000000  0.5617410000000  0.4042780000000 1.0
C      1  0.5423630000000  0.4252140000000  0.4827100000000 1.0
C      1  0.5462760000000  0.4344700000000  0.5107550000000 1.0
C      1  0.5264100000000  0.4257400000000  0.5309240000000 1.0
C      1  0.5102840000000  0.4439630000000  0.5472320000000 1.0
C      1  0.4805240000000  0.4464770000000  0.5445440000000 1.0
C      1  0.4652580000000  0.4318080000000  0.5238260000000 1.0
C      1  0.4486820000000  0.4447890000000  0.5028840000000 1.0
C      1  0.4558600000000  0.4415950000000  0.4743410000000 1.0
C      1  0.4810160000000  0.4275630000000  0.4668240000000 1.0
C      1  0.5027680000000  0.4396340000000  0.4505050000000 1.0
C      1  0.5307690000000  0.4424770000000  0.4617400000000 1.0
C      1  0.4982490000000  0.5431840000000  0.6149370000000 1.0
C      1  0.4328650000000  0.5412920000000  0.6021780000000 1.0
C      1  0.3816170000000  0.5408260000000  0.5492010000000 1.0
C      1  0.3791850000000  0.5393400000000  0.4798350000000 1.0
C      1  0.4074990000000  0.5428430000000  0.4220960000000 1.0
C      1  0.4703870000000  0.5420970000000  0.3793300000000 1.0
C      1  0.5387840000000  0.5381600000000  0.3877410000000 1.0
C      1  0.5909840000000  0.5378510000000  0.4222960000000 1.0
C      1  0.6209290000000  0.5400390000000  0.4850130000000 1.0
C      1  0.6124790000000  0.5410370000000  0.5510070000000 1.0
C      1  0.5616780000000  0.5445620000000  0.6029650000000 1.0
C      1  0.4299060000000  0.5124350000000  0.5959560000000 1.0
C      1  0.3855070000000  0.5123830000000  0.5427410000000 1.0
C      1  0.3873280000000  0.5111380000000  0.4757400000000 1.0
C      1  0.4149310000000  0.5154000000000  0.4181020000000 1.0
C      1  0.4747800000000  0.5128700000000  0.3818590000000 1.0
C      1  0.5408800000000  0.5105770000000  0.3977420000000 1.0
C      1  0.5920950000000  0.5095520000000  0.4301690000000 1.0
C      1  0.6179370000000  0.5122050000000  0.4924170000000 1.0
C      1  0.6067190000000  0.5122100000000  0.5545440000000 1.0
C      1  0.5550930000000  0.5163610000000  0.5998340000000 1.0
C      1  0.4908530000000  0.5154100000000  0.6107590000000 1.0
C      1  0.4972140000000  0.5017150000000  0.3974010000000 1.0
C      1  0.5478640000000  0.5037450000000  0.4254920000000 1.0
C      1  0.5893880000000  0.5019100000000  0.4579050000000 1.0
C      1  0.5988030000000  0.5038540000000  0.5126140000000 1.0
C      1  0.5806420000000  0.5025720000000  0.5628370000000 1.0
C      1  0.5299830000000  0.5079220000000  0.5867760000000 1.0
C      1  0.4728390000000  0.5080800000000  0.5892050000000 1.0
C      1  0.4247010000000  0.5034780000000  0.5687690000000 1.0
C      1  0.3984520000000  0.5039590000000  0.5181890000000 1.0
C      1  0.4130820000000  0.5032390000000  0.4642560000000 1.0
C      1  0.4433660000000  0.5089230000000  0.4157830000000 1.0
C      1  0.5753790000000  0.4950780000000  0.6037350000000 1.0
C      1  0.5080520000000  0.4929020000000  0.6191730000000 1.0
C      1  0.4425530000000  0.4909160000000  0.6124790000000 1.0
C      1  0.3849310000000  0.4914070000000  0.5631060000000 1.0
C      1  0.3736240000000  0.4879960000000  0.4885020000000 1.0
C      1  0.3974120000000  0.4930400000000  0.4267770000000 1.0
C      1  0.4528850000000  0.4940770000000  0.3777520000000 1.0
C      1  0.5329320000000  0.4864640000000  0.3818180000000 1.0
C      1  0.5840650000000  0.4874420000000  0.4120960000000 1.0
C      1  0.6260020000000  0.4902350000000  0.4746610000000 1.0
C      1  0.6239210000000  0.4903550000000  0.5432490000000 1.0
C      1  0.4705400000000  0.5851330000000  0.5220150000000 1.0
C      1  0.4498560000000  0.5756190000000  0.5043520000000 1.0
C      1  0.4531150000000  0.5692740000000  0.4726050000000 1.0
C      1  0.4762480000000  0.5671800000000  0.4555610000000 1.0
C      1  0.4985690000000  0.5855980000000  0.4571750000000 1.0
C      1  0.5261490000000  0.5770820000000  0.4618500000000 1.0
C      1  0.5427430000000  0.5899730000000  0.4819080000000 1.0
C      1  0.5471830000000  0.5791190000000  0.5085450000000 1.0
C      1  0.5301750000000  0.5885050000000  0.5307200000000 1.0
C      1  0.5129930000000  0.5704990000000  0.5461810000000 1.0
C      1  0.4837260000000  0.5685740000000  0.5419010000000 1.0
C      1  0.5209150000000  0.4751540000000  0.5922680000000 1.0
C      1  0.4642770000000  0.4750670000000  0.5892780000000 1.0
C      1  0.4119750000000  0.4729230000000  0.5635070000000 1.0
C      1  0.3969720000000  0.4708730000000  0.5073040000000 1.0
C      1  0.4136310000000  0.4716460000000  0.4509780000000 1.0
C      1  0.4492740000000  0.4765750000000  0.4050440000000 1.0
C      1  0.5074210000000  0.4674560000000  0.3976370000000 1.0
C      1  0.5567440000000  0.4720220000000  0.4279260000000 1.0
C      1  0.5998460000000  0.4711150000000  0.4676620000000 1.0
C      1  0.6006540000000  0.4711330000000  0.5235160000000 1.0
C      1  0.5777170000000  0.4728150000000  0.5763270000000 1.0
C      1  0.4297570000000  0.5492170000000  0.5130480000000 1.0
C      1  0.4354370000000  0.5449750000000  0.4796130000000 1.0
C      1  0.4802770000000  0.5443260000000  0.4381540000000 1.0
C      1  0.5078790000000  0.5396540000000  0.4302190000000 1.0
C      1  0.5346610000000  0.5491200000000  0.4523460000000 1.0
C      1  0.5618820000000  0.5433730000000  0.4752150000000 1.0
C      1  0.5613660000000  0.5501160000000  0.5105810000000 1.0
C      1  0.5550730000000  0.5434270000000  0.5440910000000 1.0
C      1  0.5283470000000  0.5484680000000  0.5558140000000 1.0
C      1  0.4664420000000  0.5468920000000  0.5532730000000 1.0
C      1  0.4381890000000  0.5451960000000  0.5433710000000 1.0
C      1  0.5955100000000  0.5742820000000  0.5140970000000 1.0
C      1  0.5739010000000  0.5759140000000  0.5628960000000 1.0
C      1  0.5247930000000  0.5776230000000  0.5858330000000 1.0
C      1  0.4700590000000  0.5753120000000  0.5839530000000 1.0
C      1  0.4184750000000  0.5759810000000  0.5639660000000 1.0
C      1  0.3973940000000  0.5759420000000  0.5134150000000 1.0
C      1  0.4131460000000  0.5756720000000  0.4615990000000 1.0
C      1  0.4520580000000  0.5718820000000  0.4215660000000 1.0
C      1  0.5041090000000  0.5747900000000  0.4027370000000 1.0
C      1  0.5528880000000  0.5732880000000  0.4232410000000 1.0
C      1  0.5886240000000  0.5727520000000  0.4616410000000 1.0
C      1  0.4984780000000  0.3136510000000  0.5015550000000 1.0
C      1  0.5068820000000  0.5648330000000  0.5050180000000 1.0
C      1  0.4930200000000  0.5430060000000  0.4919800000000 1.0
C      1  0.4977610000000  0.2623610000000  0.5020920000000 1.0
C      1  0.5064150000000  0.4411820000000  0.4973750000000 1.0
C      1  0.5041250000000  0.5931300000000  0.4981030000000 1.0
C      1  0.5092630000000  0.6417910000000  0.5136690000000 1.0
C      1  0.4910790000000  0.4656300000000  0.4989520000000 1.0
C      1  0.4953630000000  0.7156850000000  0.5074280000000 1.0
C      1  0.4901470000000  0.5162600000000  0.5030290000000 1.0
C      1  0.4946510000000  0.3639530000000  0.4922440000000 1.0
C      1  0.5067090000000  0.3901540000000  0.4898210000000 1.0
C      1  0.5011650000000  0.4919940000000  0.4910750000000 1.0
C      1  0.5068620000000  0.2877770000000  0.4916550000000 1.0
C      1  0.5093180000000  0.3390050000000  0.4927550000000 1.0
C      1  0.4971770000000  0.4140170000000  0.5031430000000 1.0
C      1  0.5001230000000  0.6145590000000  0.5172280000000 1.0
C      1  0.5003700000000  0.6893280000000  0.4965630000000 1.0
C      1  0.4919890000000  0.6645180000000  0.5088900000000 1.0
END
