TITL C-862507-1800-1164 7.12465533003288e-06 125000 -280.805022158106 0 0 59 (C2h) n - 1
REM
REM in /home/nfs/bkarasulu/CARBON/AIRSS/Generating-Clusters/TERSOFF/Higher-Symm/FIRE-HFTN
REM
REM
REM
REM
REM
REM ./C.cell (b20cbc046b6831c77cfcea5457e17084)
REM AIRSS Version 0.9.1 bugfix July 2018 build 013d7b7c2542+ Fri, 06 Jul 2018 19:26:36 +0100
REM compiler GCC version 9.2.1 20190827 (Red Hat 9.2.1-1)
REM options -cpp -mtune=generic -march=x86-64 -g -O0 -fpre-include=/usr/include/finclude/math-vector-fortran.h
REM seed 1395050417 1221935025 -1126324556 -575887311 -877945800 -226336124 -168704567 -236653185 1023683469 634103454 2088779909 -217286852 1339772479 -1780306920 1918903285 125966943 -1670882849 423926210 -1935240289 -1979006703 855199776 -455462328 -2138423007 1036194222 -1943754360 1717602448 -689112065 -684365333 147615821 -567369759 -476821131 -196131713 570620961
REM
CELL 1.54180   50.00000   50.00000   50.00000   90.00000   90.00000   90.00000
LATT -1
SFAC C  
C      1  0.5134890000000  0.4922480000000  0.5531030000000 1.0
C      1  0.4865280000000  0.5065580000000  0.5531030000000 1.0
C      1  0.5134880000000  0.4922480000000  0.4461330000000 1.0
C      1  0.4865270000000  0.5065580000000  0.4461330000000 1.0
C      1  0.4856610000000  0.5363610000000  0.5630080000000 1.0
C      1  0.5143550000000  0.4624450000000  0.5630080000000 1.0
C      1  0.4856600000000  0.5363610000000  0.4362280000000 1.0
C      1  0.5143540000000  0.4624450000000  0.4362270000000 1.0
C      1  0.4311330000000  0.5247970000000  0.4823300000000 1.0
C      1  0.5688820000000  0.4740090000000  0.4823280000000 1.0
C      1  0.4311330000000  0.5247970000000  0.5169070000000 1.0
C      1  0.5688820000000  0.4740090000000  0.5169060000000 1.0
C      1  0.5194280000000  0.5329230000000  0.5153550000000 1.0
C      1  0.4805880000000  0.4658840000000  0.5153560000000 1.0
C      1  0.5194270000000  0.5329220000000  0.4838800000000 1.0
C      1  0.4805880000000  0.4658830000000  0.4838800000000 1.0
C      1  0.5137190000000  0.4453630000000  0.5309620000000 1.0
C      1  0.4862970000000  0.5534430000000  0.5309620000000 1.0
C      1  0.5137190000000  0.4453630000000  0.4682740000000 1.0
C      1  0.4862960000000  0.5534430000000  0.4682740000000 1.0
C      1  0.5112260000000  0.4788080000000  0.5245530000000 1.0
C      1  0.4887890000000  0.5199980000000  0.5245540000000 1.0
C      1  0.5112260000000  0.4788080000000  0.4746820000000 1.0
C      1  0.4887890000000  0.5199980000000  0.4746820000000 1.0
C      1  0.5776110000000  0.5065530000000  0.4837660000000 1.0
C      1  0.4224040000000  0.4922530000000  0.4837670000000 1.0
C      1  0.5776110000000  0.5065530000000  0.5154680000000 1.0
C      1  0.4224040000000  0.4922530000000  0.5154700000000 1.0
C      1  0.4990420000000  0.5368000000000  0.4097780000000 1.0
C      1  0.5009720000000  0.4620060000000  0.4097780000000 1.0
C      1  0.4990440000000  0.5368000000000  0.5894580000000 1.0
C      1  0.5009730000000  0.4620060000000  0.5894580000000 1.0
C      1  0.5497530000000  0.5205080000000  0.5276560000000 1.0
C      1  0.4502630000000  0.4782980000000  0.5276570000000 1.0
C      1  0.5497520000000  0.5205080000000  0.4715780000000 1.0
C      1  0.4502630000000  0.4782980000000  0.4715790000000 1.0
C      1  0.4626460000000  0.4891160000000  0.5540940000000 1.0
C      1  0.5373700000000  0.5096900000000  0.5540930000000 1.0
C      1  0.4626450000000  0.4891160000000  0.4451430000000 1.0
C      1  0.5373690000000  0.5096900000000  0.4451420000000 1.0
C      1  0.4926230000000  0.4864170000000  0.6042190000000 1.0
C      1  0.5073940000000  0.5123890000000  0.6042190000000 1.0
C      1  0.4926210000000  0.4864170000000  0.3950160000000 1.0
C      1  0.5073920000000  0.5123890000000  0.3950160000000 1.0
C      1  0.4743320000000  0.4342960000000  0.5217760000000 1.0
C      1  0.5256840000000  0.5645100000000  0.5217750000000 1.0
C      1  0.4743310000000  0.4342960000000  0.4774610000000 1.0
C      1  0.5256830000000  0.5645100000000  0.4774600000000 1.0
C      1  0.5560680000000  0.5532190000000  0.5150390000000 1.0
C      1  0.4439470000000  0.4455870000000  0.5150400000000 1.0
C      1  0.5560680000000  0.5532190000000  0.4841960000000 1.0
C      1  0.4439470000000  0.4455870000000  0.4841970000000 1.0
C      1  0.5391380000000  0.4898970000000  0.4845120000000 1.0
C      1  0.4608770000000  0.5089090000000  0.4845130000000 1.0
C      1  0.5391380000000  0.4898970000000  0.5147230000000 1.0
C      1  0.4608770000000  0.5089090000000  0.5147240000000 1.0
C      1  0.4980400000000  0.5673810000000  0.4996180000000 1.0
C      1  0.5019750000000  0.4314250000000  0.4996180000000 1.0
C      1  0.5000080000000  0.4994030000000  0.4996180000000 1.0
END
