TITL C-862131-2149-788 -4.02035688845043e-05 125000 -233.813287764312 0 0 44 (C3) n - 1
REM
REM in /home/nfs/bkarasulu/CARBON/AIRSS/Generating-Clusters/TERSOFF/Higher-Symm/FIRE-HFTN
REM
REM
REM
REM
REM
REM ./C.cell (b20cbc046b6831c77cfcea5457e17084)
REM AIRSS Version 0.9.1 bugfix July 2018 build 013d7b7c2542+ Fri, 06 Jul 2018 19:26:36 +0100
REM compiler GCC version 9.2.1 20190827 (Red Hat 9.2.1-1)
REM options -cpp -mtune=generic -march=x86-64 -g -O0 -fpre-include=/usr/include/finclude/math-vector-fortran.h
REM seed 658185040 -674306117 -1461879948 -1887418729 1838844759 1688287233 760607346 -1379378182 632673606 480449039 -216761746 455553876 2069064946 -1147423897 -489419501 446771608 897386275 -1456178196 1706575963 1755720856 1690021174 1544052432 1400006237 588734848 1040012056 738440189 -85719761 1254956173 1873807691 -2058238206 -1450737623 1823593757 -536222502
REM
CELL 1.54180   50.00000   50.00000   50.00000   90.00000   90.00000   90.00000
LATT -1
SFAC C  
C      1  0.4399410000000  0.4638290000000  0.5052050000000 1.0
C      1  0.5237370000000  0.4638290000000  0.4466950000000 1.0
C      1  0.5325100000000  0.4638280000000  0.5485200000000 1.0
C      1  0.4829200000000  0.4879170000000  0.4320080000000 1.0
C      1  0.5656380000000  0.4879160000000  0.5205140000000 1.0
C      1  0.4476310000000  0.4879160000000  0.5478980000000 1.0
C      1  0.4825400000000  0.4566960000000  0.5268830000000 1.0
C      1  0.4836640000000  0.4566960000000  0.4727480000000 1.0
C      1  0.5299840000000  0.4566960000000  0.5007890000000 1.0
C      1  0.4769990000000  0.4760860000000  0.5514970000000 1.0
C      1  0.4651180000000  0.4760860000000  0.4556420000000 1.0
C      1  0.5540720000000  0.4760860000000  0.4932810000000 1.0
C      1  0.5382170000000  0.4904480000000  0.5365730000000 1.0
C      1  0.4474340000000  0.4904490000000  0.5161210000000 1.0
C      1  0.5105370000000  0.4904490000000  0.4477270000000 1.0
C      1  0.5054680000000  0.5495640000000  0.5291330000000 1.0
C      1  0.4702520000000  0.5495640000000  0.4914800000000 1.0
C      1  0.5204690000000  0.5495640000000  0.4798090000000 1.0
C      1  0.4887440000000  0.5046920000000  0.5445390000000 1.0
C      1  0.4652720000000  0.5046930000000  0.4692930000000 1.0
C      1  0.5421730000000  0.5046920000000  0.4865890000000 1.0
C      1  0.5095090000000  0.5266060000000  0.5475040000000 1.0
C      1  0.4523220000000  0.5266070000000  0.4857940000000 1.0
C      1  0.5343580000000  0.5266070000000  0.4671230000000 1.0
C      1  0.5244440000000  0.5164890000000  0.4412250000000 1.0
C      1  0.5368950000000  0.5164890000000  0.5518670000000 1.0
C      1  0.4348500000000  0.5164890000000  0.5073290000000 1.0
C      1  0.4797080000000  0.4969610000000  0.5151680000000 1.0
C      1  0.4952260000000  0.4969620000000  0.4761530000000 1.0
C      1  0.5212550000000  0.4969610000000  0.5090990000000 1.0
C      1  0.4582330000000  0.4436470000000  0.5155220000000 1.0
C      1  0.5056560000000  0.4436470000000  0.4573780000000 1.0
C      1  0.5322990000000  0.4436470000000  0.5275200000000 1.0
C      1  0.5781870000000  0.5148760000000  0.5254740000000 1.0
C      1  0.4370610000000  0.5148770000000  0.5562860000000 1.0
C      1  0.4809400000000  0.5148770000000  0.4186610000000 1.0
C      1  0.5052100000000  0.5311290000000  0.4235440000000 1.0
C      1  0.5618240000000  0.5311280000000  0.5440510000000 1.0
C      1  0.4291550000000  0.5311280000000  0.5328260000000 1.0
C      1  0.5258280000000  0.5546960000000  0.5084020000000 1.0
C      1  0.4780260000000  0.5546960000000  0.5194780000000 1.0
C      1  0.4923350000000  0.5546970000000  0.4725420000000 1.0
C      1  0.4987290000000  0.4701080000000  0.5001400000000 1.0
C      1  0.4987300000000  0.5199330000000  0.5001400000000 1.0
END
