TITL C-862130-1496-734 0.782387261950818 125000 -1055.28775509125 0 0 180 (C1) n - 1
REM
REM in /home/nfs/bkarasulu/CARBON/AIRSS/Generating-Clusters/TERSOFF/Higher-Symm/FIRE-HFTN
REM
REM
REM
REM
REM
REM ./C.cell (b20cbc046b6831c77cfcea5457e17084)
REM AIRSS Version 0.9.1 bugfix July 2018 build 013d7b7c2542+ Fri, 06 Jul 2018 19:26:36 +0100
REM compiler GCC version 9.2.1 20190827 (Red Hat 9.2.1-1)
REM options -cpp -mtune=generic -march=x86-64 -g -O0 -fpre-include=/usr/include/finclude/math-vector-fortran.h
REM seed -1151630696 272079327 2105324080 1362197118 -1249632915 274904700 -1287280020 -861418954 -339773244 -1559670235 2014338097 51754690 460693432 1216047084 -1024721405 -1101559933 -994055517 1981613110 995094583 -1031103458 481562469 -266888567 -1469435323 -1673674718 898862949 263287767 99967489 -870920220 71796795 1751958694 -466206746 1218189159 750903284
REM
CELL 1.54180   50.00000   50.00000   50.00000   90.00000   90.00000   90.00000
LATT -1
SFAC C  
C      1  0.4291620000000  0.4274210000000  0.4887870000000 1.0
C      1  0.6206590000000  0.4577760000000  0.5449390000000 1.0
C      1  0.5666840000000  0.3981360000000  0.4741450000000 1.0
C      1  0.5248300000000  0.3885370000000  0.4919790000000 1.0
C      1  0.5998720000000  0.5695250000000  0.4912850000000 1.0
C      1  0.4733240000000  0.4245080000000  0.5085390000000 1.0
C      1  0.4545270000000  0.4900180000000  0.6021840000000 1.0
C      1  0.4863980000000  0.4195690000000  0.5791100000000 1.0
C      1  0.4854230000000  0.5352180000000  0.3672300000000 1.0
C      1  0.4482270000000  0.5065900000000  0.5775920000000 1.0
C      1  0.5605000000000  0.5544410000000  0.5048750000000 1.0
C      1  0.4293420000000  0.5445080000000  0.4468170000000 1.0
C      1  0.4604560000000  0.5740130000000  0.5334790000000 1.0
C      1  0.4732760000000  0.5286700000000  0.5651240000000 1.0
C      1  0.4779470000000  0.5384800000000  0.4558360000000 1.0
C      1  0.5258520000000  0.4457030000000  0.4152790000000 1.0
C      1  0.5306140000000  0.4988220000000  0.4247370000000 1.0
C      1  0.5524620000000  0.5024040000000  0.4534490000000 1.0
C      1  0.5196090000000  0.4742390000000  0.6205150000000 1.0
C      1  0.4902170000000  0.6047320000000  0.4403260000000 1.0
C      1  0.4710150000000  0.4818550000000  0.5525720000000 1.0
C      1  0.3846400000000  0.5271210000000  0.4969200000000 1.0
C      1  0.5925220000000  0.4398390000000  0.4609330000000 1.0
C      1  0.4331800000000  0.4163040000000  0.4399520000000 1.0
C      1  0.5064570000000  0.6050980000000  0.4875420000000 1.0
C      1  0.4249750000000  0.5206350000000  0.6311730000000 1.0
C      1  0.5842740000000  0.5856160000000  0.4709690000000 1.0
C      1  0.5623200000000  0.5761400000000  0.4262240000000 1.0
C      1  0.6022150000000  0.4840360000000  0.4439660000000 1.0
C      1  0.5508260000000  0.4327660000000  0.4237640000000 1.0
C      1  0.4102040000000  0.4757860000000  0.5537250000000 1.0
C      1  0.5633450000000  0.4403870000000  0.4630940000000 1.0
C      1  0.5373180000000  0.5422320000000  0.5469980000000 1.0
C      1  0.5592010000000  0.5548850000000  0.4053580000000 1.0
C      1  0.4346230000000  0.5227850000000  0.4025510000000 1.0
C      1  0.3793590000000  0.5231040000000  0.5277130000000 1.0
C      1  0.4944710000000  0.5361800000000  0.5865280000000 1.0
C      1  0.4726080000000  0.5685010000000  0.5002270000000 1.0
C      1  0.4248860000000  0.5692770000000  0.5116690000000 1.0
C      1  0.3951970000000  0.4634600000000  0.5071840000000 1.0
C      1  0.4408560000000  0.5479860000000  0.4193390000000 1.0
C      1  0.5110910000000  0.5880570000000  0.4018790000000 1.0
C      1  0.5547040000000  0.4857760000000  0.5449970000000 1.0
C      1  0.5721630000000  0.5737420000000  0.5249200000000 1.0
C      1  0.4705770000000  0.3829970000000  0.4965440000000 1.0
C      1  0.5303010000000  0.5926580000000  0.5011930000000 1.0
C      1  0.6199700000000  0.4769960000000  0.5220350000000 1.0
C      1  0.5417680000000  0.4556420000000  0.6102870000000 1.0
C      1  0.3748910000000  0.5529420000000  0.5431510000000 1.0
C      1  0.4952830000000  0.5661960000000  0.5893340000000 1.0
C      1  0.4648470000000  0.5776510000000  0.5875310000000 1.0
C      1  0.5478720000000  0.4673640000000  0.4615540000000 1.0
C      1  0.5041950000000  0.5008490000000  0.4754520000000 1.0
C      1  0.5782440000000  0.4766310000000  0.4901140000000 1.0
C      1  0.5107240000000  0.4178560000000  0.5948520000000 1.0
C      1  0.5203260000000  0.5037640000000  0.6182630000000 1.0
C      1  0.6102000000000  0.5592940000000  0.5414930000000 1.0
C      1  0.5434890000000  0.4135730000000  0.5457380000000 1.0
C      1  0.6087860000000  0.4441260000000  0.4841030000000 1.0
C      1  0.5322020000000  0.5621120000000  0.4611190000000 1.0
C      1  0.5708810000000  0.4619840000000  0.6009700000000 1.0
C      1  0.4254830000000  0.4721960000000  0.4268910000000 1.0
C      1  0.4830600000000  0.4207240000000  0.4290180000000 1.0
C      1  0.5155020000000  0.5325480000000  0.5274590000000 1.0
C      1  0.5999080000000  0.4374730000000  0.5508310000000 1.0
C      1  0.5234330000000  0.5357170000000  0.4987320000000 1.0
C      1  0.5742160000000  0.5247000000000  0.4995420000000 1.0
C      1  0.4497540000000  0.4671530000000  0.3820340000000 1.0
C      1  0.4476110000000  0.4897570000000  0.5355000000000 1.0
C      1  0.4687690000000  0.4916080000000  0.4358460000000 1.0
C      1  0.4001060000000  0.5225620000000  0.5573170000000 1.0
C      1  0.4628160000000  0.5608100000000  0.4718290000000 1.0
C      1  0.4619270000000  0.5250710000000  0.5178480000000 1.0
C      1  0.4181990000000  0.4282820000000  0.5367400000000 1.0
C      1  0.4095800000000  0.4375400000000  0.5096580000000 1.0
C      1  0.4790290000000  0.5997770000000  0.4951470000000 1.0
C      1  0.4423810000000  0.4559440000000  0.4087040000000 1.0
C      1  0.4447170000000  0.4765970000000  0.4703100000000 1.0
C      1  0.4362420000000  0.5877600000000  0.5762920000000 1.0
C      1  0.5050780000000  0.4450410000000  0.5515000000000 1.0
C      1  0.4997640000000  0.4716160000000  0.4789140000000 1.0
C      1  0.4878230000000  0.4741430000000  0.4217280000000 1.0
C      1  0.4759540000000  0.5281870000000  0.4075130000000 1.0
C      1  0.4397410000000  0.5032110000000  0.4776380000000 1.0
C      1  0.5189370000000  0.4310560000000  0.5059500000000 1.0
C      1  0.5381050000000  0.5536440000000  0.3843240000000 1.0
C      1  0.5161150000000  0.5984990000000  0.4282260000000 1.0
C      1  0.4191540000000  0.5819430000000  0.4628450000000 1.0
C      1  0.4671120000000  0.4625270000000  0.4809410000000 1.0
C      1  0.5018690000000  0.4294460000000  0.4066100000000 1.0
C      1  0.4428500000000  0.4981470000000  0.6276360000000 1.0
C      1  0.5389310000000  0.5859190000000  0.4434750000000 1.0
C      1  0.4126950000000  0.5705400000000  0.5793550000000 1.0
C      1  0.5723890000000  0.5106950000000  0.5286070000000 1.0
C      1  0.4079290000000  0.5708510000000  0.4876650000000 1.0
C      1  0.5143220000000  0.5089100000000  0.3979160000000 1.0
C      1  0.3971900000000  0.5069910000000  0.4783490000000 1.0
C      1  0.4238090000000  0.5025780000000  0.4265840000000 1.0
C      1  0.5109560000000  0.5393410000000  0.3873820000000 1.0
C      1  0.5686060000000  0.4454210000000  0.5239820000000 1.0
C      1  0.5349920000000  0.5618710000000  0.4906460000000 1.0
C      1  0.5768160000000  0.5696330000000  0.5760380000000 1.0
C      1  0.5892750000000  0.5482840000000  0.5594750000000 1.0
C      1  0.4736340000000  0.6027390000000  0.5245080000000 1.0
C      1  0.4646240000000  0.5589540000000  0.5615610000000 1.0
C      1  0.4581940000000  0.6069330000000  0.4763190000000 1.0
C      1  0.6084190000000  0.4716150000000  0.4950950000000 1.0
C      1  0.4968450000000  0.6120970000000  0.5378380000000 1.0
C      1  0.4670870000000  0.4421580000000  0.5840890000000 1.0
C      1  0.4400430000000  0.5927160000000  0.5476170000000 1.0
C      1  0.5606700000000  0.5781610000000  0.5522340000000 1.0
C      1  0.4366720000000  0.5211300000000  0.5314370000000 1.0
C      1  0.4222800000000  0.5487820000000  0.5331410000000 1.0
C      1  0.3912590000000  0.4774530000000  0.5319560000000 1.0
C      1  0.4619350000000  0.5159850000000  0.4913350000000 1.0
C      1  0.4653320000000  0.4133930000000  0.5341750000000 1.0
C      1  0.5158800000000  0.4721850000000  0.4290080000000 1.0
C      1  0.5805180000000  0.5031870000000  0.4387810000000 1.0
C      1  0.4483600000000  0.5848790000000  0.4589790000000 1.0
C      1  0.4225970000000  0.4333490000000  0.4605150000000 1.0
C      1  0.5204620000000  0.4272480000000  0.5342720000000 1.0
C      1  0.5007450000000  0.3822840000000  0.5103900000000 1.0
C      1  0.5220570000000  0.4023440000000  0.4647600000000 1.0
C      1  0.4837420000000  0.4529830000000  0.4021580000000 1.0
C      1  0.4040650000000  0.5538390000000  0.5570470000000 1.0
C      1  0.4981900000000  0.4876390000000  0.3833390000000 1.0
C      1  0.5321850000000  0.5087840000000  0.5718480000000 1.0
C      1  0.4688740000000  0.4895600000000  0.3782260000000 1.0
C      1  0.5525230000000  0.4321080000000  0.5689430000000 1.0
C      1  0.4963700000000  0.4201110000000  0.4928340000000 1.0
C      1  0.5973820000000  0.4551490000000  0.4364150000000 1.0
C      1  0.5622200000000  0.5023410000000  0.5733310000000 1.0
C      1  0.4839780000000  0.4045120000000  0.5534060000000 1.0
C      1  0.4419900000000  0.3970520000000  0.5033340000000 1.0
C      1  0.5769170000000  0.4462670000000  0.4165060000000 1.0
C      1  0.5870440000000  0.5793460000000  0.4419570000000 1.0
C      1  0.5032830000000  0.3869660000000  0.5400330000000 1.0
C      1  0.4257130000000  0.4621640000000  0.4542440000000 1.0
C      1  0.4649860000000  0.5895700000000  0.4347120000000 1.0
C      1  0.5194300000000  0.4640300000000  0.4562630000000 1.0
C      1  0.5339420000000  0.4348950000000  0.5913060000000 1.0
C      1  0.4219960000000  0.4492910000000  0.5574070000000 1.0
C      1  0.4858790000000  0.5247430000000  0.5360490000000 1.0
C      1  0.4605880000000  0.5178930000000  0.3817660000000 1.0
C      1  0.5754600000000  0.4895940000000  0.5950910000000 1.0
C      1  0.5210530000000  0.4935300000000  0.5462390000000 1.0
C      1  0.4836790000000  0.5196820000000  0.4762110000000 1.0
C      1  0.5194460000000  0.5829140000000  0.5821270000000 1.0
C      1  0.5276030000000  0.4568660000000  0.4967700000000 1.0
C      1  0.4559870000000  0.4401970000000  0.4954650000000 1.0
C      1  0.5985680000000  0.5403790000000  0.4895370000000 1.0
C      1  0.4367700000000  0.4052030000000  0.5343530000000 1.0
C      1  0.3924290000000  0.4779240000000  0.4818420000000 1.0
C      1  0.5218860000000  0.5991600000000  0.5328700000000 1.0
C      1  0.4532740000000  0.4274390000000  0.4222370000000 1.0
C      1  0.5873140000000  0.4219280000000  0.5256900000000 1.0
C      1  0.5590790000000  0.4580250000000  0.5009070000000 1.0
C      1  0.4949090000000  0.4151640000000  0.4592720000000 1.0
C      1  0.5293520000000  0.5120270000000  0.4794700000000 1.0
C      1  0.6013210000000  0.5784940000000  0.5199750000000 1.0
C      1  0.4932630000000  0.5652250000000  0.3982380000000 1.0
C      1  0.6169920000000  0.4872390000000  0.4697760000000 1.0
C      1  0.3845520000000  0.5543010000000  0.4871450000000 1.0
C      1  0.5700140000000  0.5017920000000  0.4806340000000 1.0
C      1  0.5596280000000  0.4562750000000  0.5475980000000 1.0
C      1  0.5490280000000  0.4143400000000  0.4527460000000 1.0
C      1  0.4988880000000  0.4733740000000  0.5464050000000 1.0
C      1  0.4648050000000  0.5680920000000  0.4142460000000 1.0
C      1  0.4723420000000  0.4653930000000  0.6017910000000 1.0
C      1  0.5666120000000  0.5336680000000  0.5458010000000 1.0
C      1  0.5533270000000  0.5959410000000  0.4743210000000 1.0
C      1  0.5827160000000  0.4385910000000  0.5778570000000 1.0
C      1  0.4929760000000  0.4627550000000  0.6223170000000 1.0
C      1  0.5635560000000  0.4025420000000  0.5266610000000 1.0
C      1  0.5334750000000  0.5850810000000  0.5551500000000 1.0
C      1  0.4198270000000  0.5017010000000  0.5646340000000 1.0
C      1  0.5543110000000  0.3900790000000  0.5008430000000 1.0
C      1  0.4696180000000  0.5207980000000  0.4333720000000 1.0
C      1  0.4206750000000  0.5169790000000  0.4569820000000 1.0
C      1  0.5168230000000  0.5182530000000  0.5931390000000 1.0
END
