TITL C-862505-1648-269 -0.0100960309613694 125000 -382.990175200823 0 0 74 (D2) n - 1
REM
REM in /home/nfs/bkarasulu/CARBON/AIRSS/Generating-Clusters/TERSOFF/Higher-Symm/FIRE-HFTN
REM
REM
REM
REM
REM
REM ./C.cell (b20cbc046b6831c77cfcea5457e17084)
REM AIRSS Version 0.9.1 bugfix July 2018 build 013d7b7c2542+ Fri, 06 Jul 2018 19:26:36 +0100
REM compiler GCC version 9.2.1 20190827 (Red Hat 9.2.1-1)
REM options -cpp -mtune=generic -march=x86-64 -g -O0 -fpre-include=/usr/include/finclude/math-vector-fortran.h
REM seed -108921199 1305782827 518038451 -378491642 1022566987 -1404277067 983765768 1064577281 -1710254488 -918782682 -1174827343 -675924387 291740398 281030210 2052585507 1365234956 1969907870 870777501 125186788 814854724 1156527539 -1921485865 -893303800 695368433 102820986 -143547646 1003069373 -2090722658 556207796 691088550 -1175841205 -1496976263 -1605680488
REM
CELL 1.54180   50.00000   50.00000   50.00000   90.00000   90.00000   90.00000
LATT -1
SFAC C  
C      1  0.4356160000000  0.5191700000000  0.4494470000000 1.0
C      1  0.5643840000000  0.5191700000000  0.5505530000000 1.0
C      1  0.5643820000000  0.4810820000000  0.4494440000000 1.0
C      1  0.4356180000000  0.4810820000000  0.5505560000000 1.0
C      1  0.4290630000000  0.5373160000000  0.5002700000000 1.0
C      1  0.5709370000000  0.5373160000000  0.4997300000000 1.0
C      1  0.5709370000000  0.4629360000000  0.5002660000000 1.0
C      1  0.4290630000000  0.4629360000000  0.4997340000000 1.0
C      1  0.4662290000000  0.5190400000000  0.5574930000000 1.0
C      1  0.5337710000000  0.5190400000000  0.4425070000000 1.0
C      1  0.5337740000000  0.4812120000000  0.5574910000000 1.0
C      1  0.4662260000000  0.4812120000000  0.4425090000000 1.0
C      1  0.4583090000000  0.4799730000000  0.5309730000000 1.0
C      1  0.5416910000000  0.4799730000000  0.4690270000000 1.0
C      1  0.5416920000000  0.5202790000000  0.5309710000000 1.0
C      1  0.4583080000000  0.5202790000000  0.4690290000000 1.0
C      1  0.5818210000000  0.4804190000000  0.5230890000000 1.0
C      1  0.4181790000000  0.4804190000000  0.4769110000000 1.0
C      1  0.4181800000000  0.5198330000000  0.5230920000000 1.0
C      1  0.5818200000000  0.5198330000000  0.4769080000000 1.0
C      1  0.5163550000000  0.5052810000000  0.5383000000000 1.0
C      1  0.4836450000000  0.5052810000000  0.4617000000000 1.0
C      1  0.4836470000000  0.4949710000000  0.5383000000000 1.0
C      1  0.5163530000000  0.4949710000000  0.4617000000000 1.0
C      1  0.4575310000000  0.4634860000000  0.5077810000000 1.0
C      1  0.5424690000000  0.4634860000000  0.4922190000000 1.0
C      1  0.5424700000000  0.5367660000000  0.5077790000000 1.0
C      1  0.4575300000000  0.5367660000000  0.4922210000000 1.0
C      1  0.5176130000000  0.5397160000000  0.4278240000000 1.0
C      1  0.4823870000000  0.5397160000000  0.5721760000000 1.0
C      1  0.4823840000000  0.4605360000000  0.4278250000000 1.0
C      1  0.5176160000000  0.4605360000000  0.5721750000000 1.0
C      1  0.5447430000000  0.5109820000000  0.5718120000000 1.0
C      1  0.4552570000000  0.5109820000000  0.4281880000000 1.0
C      1  0.4552600000000  0.4892690000000  0.5718140000000 1.0
C      1  0.5447400000000  0.4892690000000  0.4281860000000 1.0
C      1  0.4889580000000  0.5403230000000  0.5097920000000 1.0
C      1  0.5110420000000  0.5403230000000  0.4902080000000 1.0
C      1  0.5110430000000  0.4599290000000  0.5097910000000 1.0
C      1  0.4889570000000  0.4599290000000  0.4902090000000 1.0
C      1  0.5526350000000  0.4652400000000  0.5379600000000 1.0
C      1  0.4473650000000  0.4652400000000  0.4620400000000 1.0
C      1  0.4473670000000  0.5350120000000  0.5379620000000 1.0
C      1  0.5526330000000  0.5350120000000  0.4620380000000 1.0
C      1  0.5355610000000  0.5680170000000  0.5099580000000 1.0
C      1  0.4644390000000  0.5680170000000  0.4900420000000 1.0
C      1  0.4644390000000  0.4322350000000  0.5099590000000 1.0
C      1  0.5355610000000  0.4322350000000  0.4900410000000 1.0
C      1  0.5429670000000  0.5629510000000  0.4749580000000 1.0
C      1  0.4570330000000  0.5629510000000  0.5250420000000 1.0
C      1  0.4570320000000  0.4373010000000  0.4749600000000 1.0
C      1  0.5429680000000  0.4373010000000  0.5250400000000 1.0
C      1  0.4142150000000  0.5017730000000  0.4558440000000 1.0
C      1  0.5857850000000  0.5017730000000  0.5441560000000 1.0
C      1  0.5857830000000  0.4984790000000  0.4558400000000 1.0
C      1  0.4142170000000  0.4984790000000  0.5441600000000 1.0
C      1  0.5091800000000  0.5509960000000  0.5587970000000 1.0
C      1  0.4908200000000  0.5509960000000  0.4412030000000 1.0
C      1  0.4908230000000  0.4492560000000  0.5587980000000 1.0
C      1  0.5091770000000  0.4492560000000  0.4412020000000 1.0
C      1  0.4724940000000  0.5347470000000  0.4208420000000 1.0
C      1  0.5275060000000  0.5347470000000  0.5791580000000 1.0
C      1  0.5275020000000  0.4655050000000  0.4208410000000 1.0
C      1  0.4724980000000  0.4655050000000  0.5791590000000 1.0
C      1  0.5207260000000  0.5738980000000  0.5384320000000 1.0
C      1  0.4792740000000  0.5738980000000  0.4615680000000 1.0
C      1  0.4792760000000  0.4263540000000  0.5384320000000 1.0
C      1  0.5207240000000  0.4263540000000  0.4615680000000 1.0
C      1  0.4981720000000  0.5325740000000  0.4643270000000 1.0
C      1  0.5018280000000  0.5325740000000  0.5356730000000 1.0
C      1  0.5018270000000  0.4676780000000  0.4643270000000 1.0
C      1  0.4981730000000  0.4676780000000  0.5356730000000 1.0
C      1  0.4043220000000  0.5001260000000  0.5000020000000 1.0
C      1  0.5956780000000  0.5001260000000  0.4999980000000 1.0
END
