TITL C-862130-1496-345 3.61581654844015e-05 125000 -828.053565848903 0 0 140 (C1) n - 1
REM
REM in /home/nfs/bkarasulu/CARBON/AIRSS/Generating-Clusters/TERSOFF/Higher-Symm/FIRE-HFTN
REM
REM
REM
REM
REM
REM ./C.cell (b20cbc046b6831c77cfcea5457e17084)
REM AIRSS Version 0.9.1 bugfix July 2018 build 013d7b7c2542+ Fri, 06 Jul 2018 19:26:36 +0100
REM compiler GCC version 9.2.1 20190827 (Red Hat 9.2.1-1)
REM options -cpp -mtune=generic -march=x86-64 -g -O0 -fpre-include=/usr/include/finclude/math-vector-fortran.h
REM seed 1136281631 -623062012 1141913494 -1809976481 1486372503 -2097807845 796438741 -1181758579 919961925 925705103 -1427262282 -2041187419 1711509661 44987919 -1167634606 -58437151 632911058 -1268531387 -1537236266 -1100364342 3153436 1789414860 798066380 -685953499 2109260278 -608975098 701116786 -185773419 454937696 -1862109779 -292379601 186451848 -1156916960
REM
CELL 1.54180   50.00000   50.00000   50.00000   90.00000   90.00000   90.00000
LATT -1
SFAC C  
C      1  0.4555460000000  0.4144640000000  0.4953540000000 1.0
C      1  0.4777520000000  0.4153930000000  0.5413890000000 1.0
C      1  0.5467750000000  0.4111560000000  0.5269990000000 1.0
C      1  0.5449640000000  0.4101560000000  0.4664050000000 1.0
C      1  0.4827820000000  0.4119660000000  0.4562740000000 1.0
C      1  0.4299230000000  0.4553200000000  0.5013940000000 1.0
C      1  0.4734040000000  0.4567320000000  0.5658740000000 1.0
C      1  0.5598530000000  0.4558420000000  0.5448150000000 1.0
C      1  0.5632630000000  0.4562750000000  0.4570880000000 1.0
C      1  0.4754230000000  0.4538420000000  0.4321650000000 1.0
C      1  0.5411760000000  0.4285970000000  0.5744680000000 1.0
C      1  0.5876860000000  0.4307550000000  0.4837310000000 1.0
C      1  0.5102360000000  0.4280180000000  0.4174010000000 1.0
C      1  0.4148530000000  0.4306050000000  0.4600380000000 1.0
C      1  0.4308890000000  0.4317040000000  0.5676400000000 1.0
C      1  0.5369870000000  0.4590270000000  0.4735050000000 1.0
C      1  0.4848990000000  0.4577140000000  0.4615210000000 1.0
C      1  0.4611980000000  0.4588560000000  0.5048850000000 1.0
C      1  0.4899080000000  0.4599290000000  0.5392720000000 1.0
C      1  0.5370360000000  0.4591730000000  0.5236500000000 1.0
C      1  0.5127360000000  0.4935300000000  0.5730780000000 1.0
C      1  0.5746780000000  0.4950020000000  0.5113790000000 1.0
C      1  0.5341450000000  0.4937570000000  0.4336060000000 1.0
C      1  0.4465730000000  0.4935550000000  0.4479170000000 1.0
C      1  0.4337190000000  0.4944050000000  0.5351490000000 1.0
C      1  0.4318170000000  0.5139860000000  0.4882790000000 1.0
C      1  0.4675420000000  0.5146970000000  0.5614710000000 1.0
C      1  0.5493250000000  0.5142620000000  0.5506520000000 1.0
C      1  0.5636890000000  0.5145210000000  0.4692200000000 1.0
C      1  0.4902390000000  0.5128150000000  0.4309430000000 1.0
C      1  0.5190310000000  0.5663510000000  0.5782220000000 1.0
C      1  0.5793910000000  0.5672230000000  0.5061650000000 1.0
C      1  0.5295410000000  0.5661330000000  0.4261160000000 1.0
C      1  0.4387110000000  0.5660500000000  0.4485190000000 1.0
C      1  0.4320300000000  0.5670360000000  0.5422440000000 1.0
C      1  0.4609040000000  0.4298790000000  0.5612720000000 1.0
C      1  0.5579870000000  0.4244080000000  0.5505210000000 1.0
C      1  0.5697680000000  0.4247910000000  0.4610430000000 1.0
C      1  0.4832820000000  0.4233210000000  0.4293080000000 1.0
C      1  0.4298900000000  0.4279230000000  0.4875160000000 1.0
C      1  0.4944760000000  0.5040410000000  0.5522160000000 1.0
C      1  0.5487530000000  0.5042030000000  0.5222860000000 1.0
C      1  0.5367770000000  0.5036030000000  0.4613670000000 1.0
C      1  0.4742900000000  0.5025270000000  0.4538800000000 1.0
C      1  0.4485010000000  0.5034660000000  0.5108290000000 1.0
C      1  0.5869280000000  0.5462850000000  0.5525030000000 1.0
C      1  0.5759080000000  0.5460240000000  0.4332250000000 1.0
C      1  0.4599600000000  0.5438780000000  0.4072660000000 1.0
C      1  0.3993680000000  0.5448950000000  0.5094350000000 1.0
C      1  0.4773420000000  0.5451110000000  0.5990040000000 1.0
C      1  0.4316910000000  0.4548170000000  0.5865280000000 1.0
C      1  0.5550880000000  0.4506630000000  0.5890390000000 1.0
C      1  0.6049100000000  0.4530670000000  0.4740930000000 1.0
C      1  0.5057520000000  0.4488970000000  0.3968470000000 1.0
C      1  0.3972610000000  0.4534090000000  0.4658970000000 1.0
C      1  0.4383570000000  0.4873690000000  0.4171730000000 1.0
C      1  0.4022460000000  0.4890330000000  0.5329380000000 1.0
C      1  0.5004230000000  0.4867550000000  0.6010900000000 1.0
C      1  0.5979160000000  0.4894290000000  0.5323300000000 1.0
C      1  0.5611080000000  0.4886480000000  0.4174640000000 1.0
C      1  0.4214470000000  0.5182110000000  0.4250290000000 1.0
C      1  0.4043980000000  0.5196740000000  0.5514490000000 1.0
C      1  0.5180790000000  0.5177740000000  0.6069340000000 1.0
C      1  0.6079100000000  0.5201790000000  0.5163180000000 1.0
C      1  0.5478520000000  0.5187440000000  0.4027750000000 1.0
C      1  0.4748890000000  0.5532150000000  0.4981960000000 1.0
C      1  0.4898890000000  0.5534740000000  0.5233210000000 1.0
C      1  0.5183590000000  0.5533950000000  0.5167320000000 1.0
C      1  0.5211420000000  0.5530040000000  0.4875950000000 1.0
C      1  0.4941530000000  0.5528900000000  0.4762310000000 1.0
C      1  0.4507320000000  0.5683330000000  0.4961030000000 1.0
C      1  0.4808070000000  0.5687410000000  0.5457470000000 1.0
C      1  0.5368420000000  0.5684730000000  0.5323790000000 1.0
C      1  0.5416840000000  0.5681480000000  0.4746110000000 1.0
C      1  0.4883350000000  0.5675860000000  0.4524660000000 1.0
C      1  0.5060370000000  0.5448210000000  0.5986030000000 1.0
C      1  0.5954000000000  0.5465790000000  0.5250140000000 1.0
C      1  0.5521650000000  0.5456020000000  0.4168670000000 1.0
C      1  0.4369770000000  0.5445900000000  0.4246600000000 1.0
C      1  0.4087030000000  0.5458760000000  0.5366310000000 1.0
C      1  0.5146320000000  0.6001560000000  0.4771900000000 1.0
C      1  0.4827410000000  0.5999860000000  0.4785910000000 1.0
C      1  0.4742290000000  0.6004220000000  0.5095680000000 1.0
C      1  0.5010470000000  0.6005360000000  0.5272420000000 1.0
C      1  0.5260010000000  0.6003550000000  0.5072890000000 1.0
C      1  0.4220540000000  0.5130920000000  0.5736550000000 1.0
C      1  0.5449350000000  0.5113350000000  0.5975680000000 1.0
C      1  0.6071390000000  0.5132660000000  0.4880100000000 1.0
C      1  0.5207350000000  0.5103480000000  0.3954410000000 1.0
C      1  0.4062510000000  0.5110200000000  0.4489840000000 1.0
C      1  0.5076690000000  0.4948890000000  0.4176140000000 1.0
C      1  0.4237510000000  0.4959570000000  0.4679960000000 1.0
C      1  0.4450770000000  0.4973790000000  0.5631040000000 1.0
C      1  0.5430080000000  0.4964730000000  0.5717860000000 1.0
C      1  0.5825390000000  0.4975080000000  0.4817700000000 1.0
C      1  0.4962790000000  0.4871980000000  0.5266570000000 1.0
C      1  0.5254640000000  0.4862730000000  0.5134620000000 1.0
C      1  0.5217450000000  0.4856570000000  0.4811710000000 1.0
C      1  0.4886970000000  0.4853840000000  0.4751200000000 1.0
C      1  0.4738840000000  0.4866780000000  0.5042140000000 1.0
C      1  0.5874910000000  0.4751100000000  0.4627300000000 1.0
C      1  0.4903010000000  0.4716760000000  0.4091080000000 1.0
C      1  0.4101280000000  0.4738780000000  0.4828990000000 1.0
C      1  0.4530990000000  0.4748690000000  0.5804050000000 1.0
C      1  0.5617500000000  0.4736060000000  0.5702370000000 1.0
C      1  0.4928210000000  0.4323110000000  0.4757520000000 1.0
C      1  0.4799390000000  0.4328760000000  0.5032770000000 1.0
C      1  0.5049680000000  0.4321000000000  0.5294810000000 1.0
C      1  0.5343090000000  0.4322870000000  0.5071270000000 1.0
C      1  0.5229970000000  0.4314540000000  0.4738830000000 1.0
C      1  0.4979500000000  0.4555200000000  0.5830060000000 1.0
C      1  0.5842610000000  0.4575810000000  0.5277540000000 1.0
C      1  0.5530930000000  0.4566580000000  0.4285630000000 1.0
C      1  0.4464790000000  0.4566890000000  0.4278730000000 1.0
C      1  0.4142860000000  0.4580490000000  0.5272040000000 1.0
C      1  0.5874060000000  0.4869450000000  0.4341560000000 1.0
C      1  0.4635930000000  0.4836960000000  0.3985640000000 1.0
C      1  0.3928290000000  0.4870770000000  0.5038990000000 1.0
C      1  0.4697830000000  0.4857190000000  0.6030970000000 1.0
C      1  0.5894210000000  0.4853570000000  0.5624770000000 1.0
C      1  0.5689320000000  0.5617070000000  0.4787600000000 1.0
C      1  0.5005220000000  0.5602210000000  0.4280950000000 1.0
C      1  0.4312470000000  0.5611700000000  0.4768680000000 1.0
C      1  0.4564380000000  0.5620030000000  0.5584690000000 1.0
C      1  0.5414730000000  0.5612890000000  0.5593250000000 1.0
C      1  0.5146040000000  0.4369820000000  0.5643210000000 1.0
C      1  0.5703960000000  0.4391090000000  0.5064050000000 1.0
C      1  0.5295070000000  0.4371530000000  0.4382120000000 1.0
C      1  0.4283790000000  0.4343650000000  0.4342060000000 1.0
C      1  0.4122530000000  0.4360020000000  0.5459230000000 1.0
C      1  0.4646720000000  0.5857220000000  0.4528700000000 1.0
C      1  0.4439790000000  0.5864890000000  0.5188190000000 1.0
C      1  0.5007060000000  0.5865080000000  0.5592300000000 1.0
C      1  0.5556640000000  0.5865000000000  0.5178130000000 1.0
C      1  0.5334520000000  0.5859570000000  0.4520710000000 1.0
C      1  0.4171320000000  0.5390850000000  0.4878490000000 1.0
C      1  0.4625600000000  0.5397890000000  0.5752560000000 1.0
C      1  0.5600280000000  0.5397900000000  0.5594960000000 1.0
C      1  0.5747670000000  0.5400450000000  0.4611710000000 1.0
C      1  0.4861020000000  0.5381470000000  0.4173570000000 1.0
END
