TITL C-862502-1143-965 1.09625487733239 125000 -570.427362658223 0 0 98 (C1) n - 1
REM
REM in /home/nfs/bkarasulu/CARBON/AIRSS/Generating-Clusters/TERSOFF/Higher-Symm/FIRE-HFTN
REM
REM
REM
REM
REM
REM ./C.cell (b20cbc046b6831c77cfcea5457e17084)
REM AIRSS Version 0.9.1 bugfix July 2018 build 013d7b7c2542+ Fri, 06 Jul 2018 19:26:36 +0100
REM compiler GCC version 9.2.1 20190827 (Red Hat 9.2.1-1)
REM options -cpp -mtune=generic -march=x86-64 -g -O0 -fpre-include=/usr/include/finclude/math-vector-fortran.h
REM seed -104056593 1434101967 -2037484405 -2024365944 907667758 -2034273197 -1095338536 1198467881 -1130545582 1545235236 -1130180885 -826584061 386917193 1657637575 -288906094 -2025725175 -527226901 -1273381746 -1294216304 1345531629 -1920136576 218623878 -296783682 2092391176 286536854 1080757302 1723153324 1361718288 -1289395228 855191155 -563266068 1687862080 -100495677
REM
CELL 1.54180   50.00000   50.00000   50.00000   90.00000   90.00000   90.00000
LATT -1
SFAC C  
C      1  0.5082190000000  0.3983140000000  0.5137010000000 1.0
C      1  0.4510220000000  0.4292930000000  0.5680810000000 1.0
C      1  0.4690340000000  0.4523960000000  0.4196710000000 1.0
C      1  0.5252700000000  0.5722400000000  0.5425710000000 1.0
C      1  0.5486090000000  0.4612300000000  0.4411010000000 1.0
C      1  0.5905430000000  0.4993710000000  0.5431970000000 1.0
C      1  0.5024780000000  0.4474130000000  0.4788300000000 1.0
C      1  0.4369680000000  0.4768020000000  0.5527930000000 1.0
C      1  0.5723210000000  0.5284500000000  0.4765040000000 1.0
C      1  0.4572610000000  0.5837490000000  0.4829460000000 1.0
C      1  0.4424420000000  0.4478510000000  0.4353100000000 1.0
C      1  0.5954650000000  0.4765980000000  0.5260680000000 1.0
C      1  0.5428400000000  0.4993050000000  0.4697710000000 1.0
C      1  0.5347870000000  0.5612420000000  0.4494180000000 1.0
C      1  0.4940330000000  0.5461360000000  0.4718360000000 1.0
C      1  0.4908550000000  0.5467830000000  0.5689560000000 1.0
C      1  0.5323960000000  0.5257050000000  0.5708380000000 1.0
C      1  0.4726540000000  0.4766160000000  0.5837460000000 1.0
C      1  0.5643850000000  0.4560180000000  0.4647370000000 1.0
C      1  0.5536070000000  0.4467110000000  0.4899660000000 1.0
C      1  0.4702830000000  0.4448660000000  0.5341660000000 1.0
C      1  0.5950430000000  0.5172690000000  0.4933010000000 1.0
C      1  0.4446800000000  0.5191140000000  0.4102320000000 1.0
C      1  0.5344340000000  0.4981350000000  0.5853910000000 1.0
C      1  0.5456770000000  0.4713570000000  0.5740280000000 1.0
C      1  0.4954110000000  0.4998300000000  0.5437880000000 1.0
C      1  0.4633530000000  0.5571990000000  0.5252140000000 1.0
C      1  0.4484690000000  0.4425370000000  0.4868300000000 1.0
C      1  0.5244770000000  0.4416870000000  0.4369010000000 1.0
C      1  0.4489330000000  0.4593310000000  0.5746050000000 1.0
C      1  0.5553350000000  0.5322920000000  0.5543700000000 1.0
C      1  0.4957280000000  0.5844390000000  0.5510270000000 1.0
C      1  0.4875670000000  0.5905600000000  0.4792910000000 1.0
C      1  0.5131400000000  0.5790100000000  0.4924690000000 1.0
C      1  0.4684100000000  0.5349530000000  0.4663060000000 1.0
C      1  0.5137840000000  0.5092120000000  0.4984100000000 1.0
C      1  0.4182990000000  0.4934170000000  0.4681370000000 1.0
C      1  0.5545700000000  0.5577970000000  0.5405450000000 1.0
C      1  0.4689950000000  0.5083450000000  0.5335050000000 1.0
C      1  0.4452420000000  0.5715400000000  0.5078640000000 1.0
C      1  0.4957520000000  0.4532940000000  0.5447070000000 1.0
C      1  0.4658550000000  0.4835560000000  0.4616980000000 1.0
C      1  0.4328700000000  0.4578550000000  0.5068550000000 1.0
C      1  0.4331560000000  0.5336860000000  0.4320110000000 1.0
C      1  0.4604470000000  0.5087330000000  0.4767690000000 1.0
C      1  0.4158120000000  0.5539900000000  0.4702640000000 1.0
C      1  0.4956660000000  0.5183260000000  0.4120590000000 1.0
C      1  0.5175310000000  0.4871390000000  0.4628780000000 1.0
C      1  0.5075300000000  0.5544180000000  0.4467570000000 1.0
C      1  0.5279480000000  0.4155290000000  0.5269230000000 1.0
C      1  0.5751510000000  0.4548060000000  0.5310000000000 1.0
C      1  0.4512460000000  0.5496200000000  0.4478630000000 1.0
C      1  0.4973460000000  0.5459950000000  0.4208780000000 1.0
C      1  0.5492580000000  0.4910370000000  0.4291020000000 1.0
C      1  0.4376120000000  0.4638080000000  0.4608330000000 1.0
C      1  0.4344720000000  0.5054700000000  0.4916460000000 1.0
C      1  0.5216240000000  0.4461170000000  0.5309620000000 1.0
C      1  0.5171260000000  0.4963340000000  0.5231740000000 1.0
C      1  0.4472390000000  0.5208490000000  0.5760990000000 1.0
C      1  0.4670580000000  0.4815620000000  0.4307870000000 1.0
C      1  0.4625210000000  0.4176080000000  0.5032010000000 1.0
C      1  0.4493610000000  0.5505750000000  0.5740860000000 1.0
C      1  0.4940980000000  0.4767500000000  0.5624430000000 1.0
C      1  0.4130290000000  0.5225200000000  0.4529200000000 1.0
C      1  0.5538400000000  0.5425680000000  0.4374260000000 1.0
C      1  0.5094660000000  0.5374030000000  0.4967810000000 1.0
C      1  0.5063910000000  0.5261790000000  0.5514570000000 1.0
C      1  0.4957980000000  0.4081330000000  0.4648850000000 1.0
C      1  0.5707080000000  0.4340820000000  0.5106540000000 1.0
C      1  0.4887790000000  0.4074350000000  0.4935940000000 1.0
C      1  0.5594480000000  0.5526460000000  0.4899360000000 1.0
C      1  0.5992110000000  0.4883830000000  0.4989770000000 1.0
C      1  0.5609750000000  0.5153640000000  0.4494940000000 1.0
C      1  0.4750960000000  0.4590560000000  0.4791680000000 1.0
C      1  0.4237450000000  0.5259440000000  0.5089380000000 1.0
C      1  0.4458170000000  0.5047810000000  0.5512710000000 1.0
C      1  0.5715300000000  0.5583800000000  0.5165860000000 1.0
C      1  0.5638900000000  0.5094650000000  0.5402790000000 1.0
C      1  0.4698640000000  0.5653510000000  0.5537800000000 1.0
C      1  0.5248310000000  0.4514210000000  0.4986120000000 1.0
C      1  0.4695340000000  0.5308120000000  0.5164620000000 1.0
C      1  0.5202570000000  0.5578060000000  0.5752810000000 1.0
C      1  0.5213990000000  0.4177910000000  0.4539190000000 1.0
C      1  0.5096850000000  0.5474200000000  0.5271290000000 1.0
C      1  0.5209990000000  0.5001230000000  0.4143000000000 1.0
C      1  0.5086940000000  0.4825690000000  0.4357130000000 1.0
C      1  0.4640580000000  0.5036520000000  0.5939620000000 1.0
C      1  0.4692740000000  0.5046050000000  0.4137760000000 1.0
C      1  0.5001100000000  0.4558760000000  0.4275710000000 1.0
C      1  0.4217250000000  0.5534460000000  0.4999910000000 1.0
C      1  0.5473140000000  0.4630130000000  0.5438020000000 1.0
C      1  0.4395860000000  0.5738050000000  0.4600340000000 1.0
C      1  0.5954300000000  0.5389970000000  0.5150450000000 1.0
C      1  0.4477950000000  0.4628340000000  0.5300510000000 1.0
C      1  0.5436580000000  0.4896290000000  0.5323790000000 1.0
C      1  0.5563260000000  0.4110920000000  0.5216150000000 1.0
C      1  0.4598180000000  0.4164970000000  0.5374840000000 1.0
C      1  0.5382220000000  0.5687510000000  0.4773120000000 1.0
END
