TITL C-862134-6730-955 6.28959826873422e-06 125000 -580.247134455301 0 0 110 (C2v) n - 1
REM
REM in /home/nfs/bkarasulu/CARBON/AIRSS/Generating-Clusters/TERSOFF/Higher-Symm/FIRE-HFTN
REM
REM
REM
REM
REM
REM ./C.cell (b20cbc046b6831c77cfcea5457e17084)
REM AIRSS Version 0.9.1 bugfix July 2018 build 013d7b7c2542+ Fri, 06 Jul 2018 19:26:36 +0100
REM compiler GCC version 9.2.1 20190827 (Red Hat 9.2.1-1)
REM options -cpp -mtune=generic -march=x86-64 -g -O0 -fpre-include=/usr/include/finclude/math-vector-fortran.h
REM seed -2144810819 -814500817 507048239 10509877 2001025237 1526939419 -289816472 1992704136 724469608 350796661 1559796483 1854797134 579697521 1730969518 -1072202813 -868165272 1676271384 1951159781 -712634432 -1699132817 1741877901 -1314506800 141733866 -613465435 -140458232 -174607927 -1134424107 -186366978 -1257881400 -1413742541 -361657718 558601247 446207726
REM
CELL 1.54180   50.00000   50.00000   50.00000   90.00000   90.00000   90.00000
LATT -1
SFAC C  
C      1  0.4821450000000  0.4191510000000  0.4819160000000 1.0
C      1  0.5178550000000  0.4191510000000  0.5180840000000 1.0
C      1  0.5178550000000  0.4191510000000  0.4819160000000 1.0
C      1  0.4821450000000  0.4191510000000  0.5180840000000 1.0
C      1  0.4538120000000  0.4673580000000  0.5760770000000 1.0
C      1  0.5461880000000  0.4673580000000  0.4239230000000 1.0
C      1  0.5461880000000  0.4673580000000  0.5760770000000 1.0
C      1  0.4538120000000  0.4673580000000  0.4239230000000 1.0
C      1  0.4323220000000  0.5445670000000  0.4696770000000 1.0
C      1  0.5676780000000  0.5445670000000  0.5303230000000 1.0
C      1  0.5676780000000  0.5445670000000  0.4696770000000 1.0
C      1  0.4323220000000  0.5445670000000  0.5303230000000 1.0
C      1  0.5298630000000  0.5201050000000  0.4818520000000 1.0
C      1  0.4701370000000  0.5201050000000  0.5181480000000 1.0
C      1  0.4701370000000  0.5201050000000  0.4818520000000 1.0
C      1  0.5298630000000  0.5201050000000  0.5181480000000 1.0
C      1  0.5154450000000  0.4958090000000  0.5751890000000 1.0
C      1  0.4845550000000  0.4958090000000  0.4248110000000 1.0
C      1  0.4845550000000  0.4958090000000  0.5751890000000 1.0
C      1  0.5154450000000  0.4958090000000  0.4248110000000 1.0
C      1  0.5840050000000  0.5260900000000  0.4854620000000 1.0
C      1  0.4159950000000  0.5260900000000  0.5145380000000 1.0
C      1  0.4159950000000  0.5260900000000  0.4854620000000 1.0
C      1  0.5840050000000  0.5260900000000  0.5145380000000 1.0
C      1  0.5291300000000  0.5715370000000  0.5209990000000 1.0
C      1  0.4708700000000  0.5715370000000  0.4790010000000 1.0
C      1  0.4708700000000  0.5715370000000  0.5209990000000 1.0
C      1  0.5291300000000  0.5715370000000  0.4790010000000 1.0
C      1  0.5890380000000  0.4764840000000  0.5263990000000 1.0
C      1  0.4109620000000  0.4764840000000  0.4736010000000 1.0
C      1  0.4109620000000  0.4764840000000  0.5263990000000 1.0
C      1  0.5890380000000  0.4764840000000  0.4736010000000 1.0
C      1  0.4837010000000  0.4730070000000  0.5161870000000 1.0
C      1  0.5162990000000  0.4730070000000  0.4838130000000 1.0
C      1  0.5162990000000  0.4730070000000  0.5161870000000 1.0
C      1  0.4837010000000  0.4730070000000  0.4838130000000 1.0
C      1  0.5327410000000  0.5126090000000  0.4079010000000 1.0
C      1  0.4672590000000  0.5126090000000  0.5920990000000 1.0
C      1  0.4672590000000  0.5126090000000  0.4079010000000 1.0
C      1  0.5327410000000  0.5126090000000  0.5920990000000 1.0
C      1  0.4695910000000  0.5526760000000  0.4296670000000 1.0
C      1  0.5304090000000  0.5526760000000  0.5703330000000 1.0
C      1  0.5304090000000  0.5526760000000  0.4296670000000 1.0
C      1  0.4695910000000  0.5526760000000  0.5703330000000 1.0
C      1  0.4499350000000  0.4472540000000  0.5536940000000 1.0
C      1  0.5500650000000  0.4472540000000  0.4463060000000 1.0
C      1  0.5500650000000  0.4472540000000  0.5536940000000 1.0
C      1  0.4499350000000  0.4472540000000  0.4463060000000 1.0
C      1  0.4423620000000  0.5686910000000  0.4846780000000 1.0
C      1  0.5576380000000  0.5686910000000  0.5153220000000 1.0
C      1  0.5576380000000  0.5686910000000  0.4846780000000 1.0
C      1  0.4423620000000  0.5686910000000  0.5153220000000 1.0
C      1  0.5304790000000  0.4490580000000  0.4752070000000 1.0
C      1  0.4695210000000  0.4490580000000  0.5247930000000 1.0
C      1  0.4695210000000  0.4490580000000  0.4752070000000 1.0
C      1  0.5304790000000  0.4490580000000  0.5247930000000 1.0
C      1  0.4297990000000  0.4117770000000  0.4819540000000 1.0
C      1  0.5702010000000  0.4117770000000  0.5180460000000 1.0
C      1  0.5702010000000  0.4117770000000  0.4819540000000 1.0
C      1  0.4297990000000  0.4117770000000  0.5180460000000 1.0
C      1  0.4853970000000  0.5752910000000  0.5601700000000 1.0
C      1  0.5146030000000  0.5752910000000  0.4398300000000 1.0
C      1  0.5146030000000  0.5752910000000  0.5601700000000 1.0
C      1  0.4853970000000  0.5752910000000  0.4398300000000 1.0
C      1  0.4854880000000  0.5966810000000  0.5209980000000 1.0
C      1  0.5145120000000  0.5966810000000  0.4790020000000 1.0
C      1  0.5145120000000  0.5966810000000  0.5209980000000 1.0
C      1  0.4854880000000  0.5966810000000  0.4790020000000 1.0
C      1  0.4476810000000  0.5346700000000  0.5550060000000 1.0
C      1  0.5523190000000  0.5346700000000  0.4449940000000 1.0
C      1  0.5523190000000  0.5346700000000  0.5550060000000 1.0
C      1  0.4476810000000  0.5346700000000  0.4449940000000 1.0
C      1  0.4854920000000  0.5466970000000  0.5224760000000 1.0
C      1  0.5145080000000  0.5466970000000  0.4775240000000 1.0
C      1  0.5145080000000  0.5466970000000  0.5224760000000 1.0
C      1  0.4854920000000  0.5466970000000  0.4775240000000 1.0
C      1  0.4382810000000  0.4787470000000  0.4612300000000 1.0
C      1  0.5617190000000  0.4787470000000  0.5387700000000 1.0
C      1  0.5617190000000  0.4787470000000  0.4612300000000 1.0
C      1  0.4382810000000  0.4787470000000  0.5387700000000 1.0
C      1  0.4569510000000  0.4901520000000  0.4835880000000 1.0
C      1  0.5430490000000  0.4901520000000  0.5164120000000 1.0
C      1  0.5430490000000  0.4901520000000  0.4835880000000 1.0
C      1  0.4569510000000  0.4901520000000  0.5164120000000 1.0
C      1  0.4436960000000  0.5008990000000  0.5669720000000 1.0
C      1  0.5563040000000  0.5008990000000  0.4330280000000 1.0
C      1  0.5563040000000  0.5008990000000  0.5669720000000 1.0
C      1  0.4436960000000  0.5008990000000  0.4330280000000 1.0
C      1  0.5462940000000  0.4135500000000  0.5400170000000 1.0
C      1  0.4537060000000  0.4135500000000  0.4599830000000 1.0
C      1  0.4537060000000  0.4135500000000  0.5400170000000 1.0
C      1  0.5462940000000  0.4135500000000  0.4599830000000 1.0
C      1  0.5148440000000  0.5046840000000  0.4562790000000 1.0
C      1  0.4851560000000  0.5046840000000  0.5437210000000 1.0
C      1  0.4851560000000  0.5046840000000  0.4562790000000 1.0
C      1  0.5148440000000  0.5046840000000  0.5437210000000 1.0
C      1  0.5159430000000  0.5378690000000  0.4085100000000 1.0
C      1  0.4840570000000  0.5378690000000  0.5914900000000 1.0
C      1  0.4840570000000  0.5378690000000  0.4085100000000 1.0
C      1  0.5159430000000  0.5378690000000  0.5914900000000 1.0
C      1  0.4386750000000  0.4428050000000  0.5139130000000 1.0
C      1  0.5613250000000  0.4428050000000  0.4860870000000 1.0
C      1  0.5613250000000  0.4428050000000  0.5139130000000 1.0
C      1  0.4386750000000  0.4428050000000  0.4860870000000 1.0
C      1  0.5168460000000  0.4659280000000  0.4132180000000 1.0
C      1  0.4831540000000  0.4659280000000  0.5867820000000 1.0
C      1  0.4831540000000  0.4659280000000  0.4132180000000 1.0
C      1  0.5168460000000  0.4659280000000  0.5867820000000 1.0
C      1  0.4052930000000  0.4641610000000  0.5000000000000 1.0
C      1  0.5947070000000  0.4641610000000  0.5000000000000 1.0
END
