TITL C-862130-1496-222 0.0277332525762389 125000 -400.525279750853 0 0 72 (Ci) n - 1
REM
REM in /home/nfs/bkarasulu/CARBON/AIRSS/Generating-Clusters/TERSOFF/Higher-Symm/FIRE-HFTN
REM
REM
REM
REM
REM
REM ./C.cell (b20cbc046b6831c77cfcea5457e17084)
REM AIRSS Version 0.9.1 bugfix July 2018 build 013d7b7c2542+ Fri, 06 Jul 2018 19:26:36 +0100
REM compiler GCC version 9.2.1 20190827 (Red Hat 9.2.1-1)
REM options -cpp -mtune=generic -march=x86-64 -g -O0 -fpre-include=/usr/include/finclude/math-vector-fortran.h
REM seed -1717571732 233130989 1904192359 -99522819 -2005725514 -121783911 -914642385 -2016543671 -1850582700 411129291 -1553081262 627953114 -1788110611 -1895612566 1801476915 470495536 -933411669 25662201 -1550837414 -121888376 -293268550 2119037299 597004264 797058028 1486856464 1219343356 -692508324 699759611 -196424498 1910047806 -378548536 1793963383 -1679600907
REM
CELL 1.54180   50.00000   50.00000   50.00000   90.00000   90.00000   90.00000
LATT -1
SFAC C  
C      1  0.5141610000000  0.4756490000000  0.5852760000000 1.0
C      1  0.4858390000000  0.5243510000000  0.4147240000000 1.0
C      1  0.4684080000000  0.4977680000000  0.5790740000000 1.0
C      1  0.5315920000000  0.5022320000000  0.4209260000000 1.0
C      1  0.5840190000000  0.5310060000000  0.5094630000000 1.0
C      1  0.4159810000000  0.4689940000000  0.4905370000000 1.0
C      1  0.5304840000000  0.5313700000000  0.4424490000000 1.0
C      1  0.4695160000000  0.4686300000000  0.5575510000000 1.0
C      1  0.5422720000000  0.5150220000000  0.5755670000000 1.0
C      1  0.4577280000000  0.4849780000000  0.4244330000000 1.0
C      1  0.4596690000000  0.5487390000000  0.4697150000000 1.0
C      1  0.5403310000000  0.4512610000000  0.5302850000000 1.0
C      1  0.4937800000000  0.5449570000000  0.5788360000000 1.0
C      1  0.5062200000000  0.4550430000000  0.4211640000000 1.0
C      1  0.4728240000000  0.5100260000000  0.5517230000000 1.0
C      1  0.5271760000000  0.4899740000000  0.4482770000000 1.0
C      1  0.4509290000000  0.4460860000000  0.5006400000000 1.0
C      1  0.5490710000000  0.5539140000000  0.4993600000000 1.0
C      1  0.4806110000000  0.4963800000000  0.4074460000000 1.0
C      1  0.5193890000000  0.5036200000000  0.5925540000000 1.0
C      1  0.4572690000000  0.4590280000000  0.4408540000000 1.0
C      1  0.5427310000000  0.5409720000000  0.5591460000000 1.0
C      1  0.4550780000000  0.5288020000000  0.4465990000000 1.0
C      1  0.5449220000000  0.4711980000000  0.5534010000000 1.0
C      1  0.4933380000000  0.5171900000000  0.5894200000000 1.0
C      1  0.5066620000000  0.4828100000000  0.4105800000000 1.0
C      1  0.5016060000000  0.4707390000000  0.5587700000000 1.0
C      1  0.4983940000000  0.5292610000000  0.4412300000000 1.0
C      1  0.4632510000000  0.5010210000000  0.4493990000000 1.0
C      1  0.5367490000000  0.4989790000000  0.5506010000000 1.0
C      1  0.4692940000000  0.4588230000000  0.5226930000000 1.0
C      1  0.5307060000000  0.5411770000000  0.4773070000000 1.0
C      1  0.5117020000000  0.4475890000000  0.5433730000000 1.0
C      1  0.4882980000000  0.5524110000000  0.4566270000000 1.0
C      1  0.4916440000000  0.4375980000000  0.5258340000000 1.0
C      1  0.5083560000000  0.5624020000000  0.4741660000000 1.0
C      1  0.5540710000000  0.5090180000000  0.5290470000000 1.0
C      1  0.4459290000000  0.4909820000000  0.4709530000000 1.0
C      1  0.5486310000000  0.4913210000000  0.4686550000000 1.0
C      1  0.4513690000000  0.5086790000000  0.5313450000000 1.0
C      1  0.5578880000000  0.5393420000000  0.5263470000000 1.0
C      1  0.4421120000000  0.4606580000000  0.4736530000000 1.0
C      1  0.4252930000000  0.4957530000000  0.5354940000000 1.0
C      1  0.5747070000000  0.5042470000000  0.4645060000000 1.0
C      1  0.4872320000000  0.5531000000000  0.5189840000000 1.0
C      1  0.5127680000000  0.4469000000000  0.4810160000000 1.0
C      1  0.5173170000000  0.5555220000000  0.5620920000000 1.0
C      1  0.4826830000000  0.4444780000000  0.4379080000000 1.0
C      1  0.5368910000000  0.4916570000000  0.4946380000000 1.0
C      1  0.4631090000000  0.5083430000000  0.5053620000000 1.0
C      1  0.5078930000000  0.5675290000000  0.5381610000000 1.0
C      1  0.4921070000000  0.4324710000000  0.4618390000000 1.0
C      1  0.5277780000000  0.4649740000000  0.5040220000000 1.0
C      1  0.4722220000000  0.5350260000000  0.4959780000000 1.0
C      1  0.4685900000000  0.5550960000000  0.5679000000000 1.0
C      1  0.5314100000000  0.4449040000000  0.4321000000000 1.0
C      1  0.5724950000000  0.4899740000000  0.5168330000000 1.0
C      1  0.4275050000000  0.5100260000000  0.4831670000000 1.0
C      1  0.5677790000000  0.4615150000000  0.5187440000000 1.0
C      1  0.4322210000000  0.5384850000000  0.4812560000000 1.0
C      1  0.5051680000000  0.5235200000000  0.5193230000000 1.0
C      1  0.4948320000000  0.4764800000000  0.4806770000000 1.0
C      1  0.4152450000000  0.4722430000000  0.5201100000000 1.0
C      1  0.5847550000000  0.5277570000000  0.4798900000000 1.0
C      1  0.5027610000000  0.4269760000000  0.5020760000000 1.0
C      1  0.4972390000000  0.5730240000000  0.4979240000000 1.0
C      1  0.5353460000000  0.4421210000000  0.4605960000000 1.0
C      1  0.4646540000000  0.5578790000000  0.5394040000000 1.0
C      1  0.5225870000000  0.5177370000000  0.4969940000000 1.0
C      1  0.4774130000000  0.4822630000000  0.5030060000000 1.0
C      1  0.5034480000000  0.5031270000000  0.5427590000000 1.0
C      1  0.4965520000000  0.4968730000000  0.4572410000000 1.0
END
