TITL C-862506-1665-56 1.62290486623094 125000 -856.716597973365 0 0 153 (C3) n - 1
REM
REM in /home/nfs/bkarasulu/CARBON/AIRSS/Generating-Clusters/TERSOFF/Higher-Symm/FIRE-HFTN
REM
REM
REM
REM
REM
REM ./C.cell (b20cbc046b6831c77cfcea5457e17084)
REM AIRSS Version 0.9.1 bugfix July 2018 build 013d7b7c2542+ Fri, 06 Jul 2018 19:26:36 +0100
REM compiler GCC version 9.2.1 20190827 (Red Hat 9.2.1-1)
REM options -cpp -mtune=generic -march=x86-64 -g -O0 -fpre-include=/usr/include/finclude/math-vector-fortran.h
REM seed -246098008 -1117189515 -767341872 -385888716 -1318094676 -1654083168 893391467 -1178156973 -1225216649 -62264709 -689880495 -1857412133 -879089037 -1937799324 -406728015 284438778 529428526 472483952 -237047441 1054075565 -782813737 -1025315872 1836676684 774757634 -347687490 1519402219 -259362826 902281059 1973819363 800779250 -507494897 -11671611 -2063143356
REM
CELL 1.54180   50.00000   50.00000   50.00000   90.00000   90.00000   90.00000
LATT -1
SFAC C  
C      1  0.5261460000000  0.5342470000000  0.5542990000000 1.0
C      1  0.5261460000000  0.5299010000000  0.4431920000000 1.0
C      1  0.5261460000000  0.4358520000000  0.5025100000000 1.0
C      1  0.5234990000000  0.3939840000000  0.5404570000000 1.0
C      1  0.5234990000000  0.5880450000000  0.5715840000000 1.0
C      1  0.5235000000000  0.5179720000000  0.3879590000000 1.0
C      1  0.5426110000000  0.4880410000000  0.4664480000000 1.0
C      1  0.5426100000000  0.4769220000000  0.5271330000000 1.0
C      1  0.5426100000000  0.5350370000000  0.5064190000000 1.0
C      1  0.4632590000000  0.5547330000000  0.4009430000000 1.0
C      1  0.4632590000000  0.3868470000000  0.5021280000000 1.0
C      1  0.4632580000000  0.5584200000000  0.5969290000000 1.0
C      1  0.5127950000000  0.4766420000000  0.5950930000000 1.0
C      1  0.5127950000000  0.5940320000000  0.4726820000000 1.0
C      1  0.5127960000000  0.4293260000000  0.4322250000000 1.0
C      1  0.5477630000000  0.5427850000000  0.5346240000000 1.0
C      1  0.5477640000000  0.5085920000000  0.4456360000000 1.0
C      1  0.5477640000000  0.4486230000000  0.5197410000000 1.0
C      1  0.4540090000000  0.5172780000000  0.4547420000000 1.0
C      1  0.4540090000000  0.4521660000000  0.5076650000000 1.0
C      1  0.4540090000000  0.5305550000000  0.5375920000000 1.0
C      1  0.4967720000000  0.4558790000000  0.4665120000000 1.0
C      1  0.4967710000000  0.4930590000000  0.5549540000000 1.0
C      1  0.4967720000000  0.5510620000000  0.4785340000000 1.0
C      1  0.5283430000000  0.5506010000000  0.4184990000000 1.0
C      1  0.5283430000000  0.4041170000000  0.4969280000000 1.0
C      1  0.5283430000000  0.5452810000000  0.5845730000000 1.0
C      1  0.4475270000000  0.5687380000000  0.4481000000000 1.0
C      1  0.4475270000000  0.4206840000000  0.4664210000000 1.0
C      1  0.4475260000000  0.5105780000000  0.5854780000000 1.0
C      1  0.4755240000000  0.4085670000000  0.5427250000000 1.0
C      1  0.4755240000000  0.5827180000000  0.5578210000000 1.0
C      1  0.4755250000000  0.5087160000000  0.3994540000000 1.0
C      1  0.5923590000000  0.4591440000000  0.5473300000000 1.0
C      1  0.5923590000000  0.5614160000000  0.5117180000000 1.0
C      1  0.5923590000000  0.4794390000000  0.4409540000000 1.0
C      1  0.4088530000000  0.4933480000000  0.5531440000000 1.0
C      1  0.4088530000000  0.5493500000000  0.4791890000000 1.0
C      1  0.4088530000000  0.4573020000000  0.4676660000000 1.0
C      1  0.4945900000000  0.5190940000000  0.6067600000000 1.0
C      1  0.4945910000000  0.5829100000000  0.4300840000000 1.0
C      1  0.4945910000000  0.3979960000000  0.4631560000000 1.0
C      1  0.4287790000000  0.5708770000000  0.4699770000000 1.0
C      1  0.4287790000000  0.4385610000000  0.4536300000000 1.0
C      1  0.4287790000000  0.4905620000000  0.5763920000000 1.0
C      1  0.4502240000000  0.5766080000000  0.5721370000000 1.0
C      1  0.4502240000000  0.5241680000000  0.3975870000000 1.0
C      1  0.4502240000000  0.3992230000000  0.5302760000000 1.0
C      1  0.4776120000000  0.4534700000000  0.5245040000000 1.0
C      1  0.4776120000000  0.5444860000000  0.5280440000000 1.0
C      1  0.4776130000000  0.5020440000000  0.4474520000000 1.0
C      1  0.4413720000000  0.5563150000000  0.4231070000000 1.0
C      1  0.4413720000000  0.4052510000000  0.4896760000000 1.0
C      1  0.4413720000000  0.5384340000000  0.5872170000000 1.0
C      1  0.5701980000000  0.5269260000000  0.4550570000000 1.0
C      1  0.5701980000000  0.4476150000000  0.4991540000000 1.0
C      1  0.5701980000000  0.5254590000000  0.5457900000000 1.0
C      1  0.5709060000000  0.4206560000000  0.4853490000000 1.0
C      1  0.5709050000000  0.5269840000000  0.5760400000000 1.0
C      1  0.5709060000000  0.5523600000000  0.4386120000000 1.0
C      1  0.4266980000000  0.4587330000000  0.5162550000000 1.0
C      1  0.4266980000000  0.5347110000000  0.5276110000000 1.0
C      1  0.4266980000000  0.5065560000000  0.4561330000000 1.0
C      1  0.5940890000000  0.5385670000000  0.5315410000000 1.0
C      1  0.5940900000000  0.5080310000000  0.4508300000000 1.0
C      1  0.5940890000000  0.4534010000000  0.5176300000000 1.0
C      1  0.4053660000000  0.5228340000000  0.4677130000000 1.0
C      1  0.4053660000000  0.4606220000000  0.4963680000000 1.0
C      1  0.4053650000000  0.5165440000000  0.5359170000000 1.0
C      1  0.4635530000000  0.6367330000000  0.4434410000000 1.0
C      1  0.4635530000000  0.3826520000000  0.4098650000000 1.0
C      1  0.4635520000000  0.4806150000000  0.6466940000000 1.0
C      1  0.4692230000000  0.4555930000000  0.5704640000000 1.0
C      1  0.4692240000000  0.5832280000000  0.5032260000000 1.0
C      1  0.4692240000000  0.4611800000000  0.4263100000000 1.0
C      1  0.3995480000000  0.4156450000000  0.5212140000000 1.0
C      1  0.3995480000000  0.5605500000000  0.5624460000000 1.0
C      1  0.3995480000000  0.5238050000000  0.4163390000000 1.0
C      1  0.4393090000000  0.4616700000000  0.6054190000000 1.0
C      1  0.4393100000000  0.6104610000000  0.4804850000000 1.0
C      1  0.4393100000000  0.4278690000000  0.4140950000000 1.0
C      1  0.5187750000000  0.4887940000000  0.5159480000000 1.0
C      1  0.5187750000000  0.5194140000000  0.5017310000000 1.0
C      1  0.5187750000000  0.4917920000000  0.4823210000000 1.0
C      1  0.4815690000000  0.5740870000000  0.5292470000000 1.0
C      1  0.4815700000000  0.4882850000000  0.4212160000000 1.0
C      1  0.4815690000000  0.4376280000000  0.5495380000000 1.0
C      1  0.5227980000000  0.5447320000000  0.4684800000000 1.0
C      1  0.5227980000000  0.4503370000000  0.4770210000000 1.0
C      1  0.5227970000000  0.5049310000000  0.5544990000000 1.0
C      1  0.4949340000000  0.5500820000000  0.5971500000000 1.0
C      1  0.4949350000000  0.5590940000000  0.4080520000000 1.0
C      1  0.4949350000000  0.3908240000000  0.4947970000000 1.0
C      1  0.5306330000000  0.5879010000000  0.5425260000000 1.0
C      1  0.5306330000000  0.4928780000000  0.4026130000000 1.0
C      1  0.5306330000000  0.4192210000000  0.5548610000000 1.0
C      1  0.5682560000000  0.5218090000000  0.4033190000000 1.0
C      1  0.5682560000000  0.4053670000000  0.5294530000000 1.0
C      1  0.5682560000000  0.5728230000000  0.5672280000000 1.0
C      1  0.5304000000000  0.4413520000000  0.4124400000000 1.0
C      1  0.5304000000000  0.4534950000000  0.5945700000000 1.0
C      1  0.5304000000000  0.6051530000000  0.4929890000000 1.0
C      1  0.5541090000000  0.5918740000000  0.5035990000000 1.0
C      1  0.5541090000000  0.4571800000000  0.4186350000000 1.0
C      1  0.5541090000000  0.4509460000000  0.5777660000000 1.0
C      1  0.5552670000000  0.4295920000000  0.5416230000000 1.0
C      1  0.5552670000000  0.5712510000000  0.5401640000000 1.0
C      1  0.5552680000000  0.4991570000000  0.4182130000000 1.0
C      1  0.4582590000000  0.4074190000000  0.4239360000000 1.0
C      1  0.4582580000000  0.4804180000000  0.6182100000000 1.0
C      1  0.4582590000000  0.6121640000000  0.4578540000000 1.0
C      1  0.4861300000000  0.4789270000000  0.5787910000000 1.0
C      1  0.4861300000000  0.5787720000000  0.4788540000000 1.0
C      1  0.4861300000000  0.4423010000000  0.4423540000000 1.0
C      1  0.5096040000000  0.5843790000000  0.5229890000000 1.0
C      1  0.5096040000000  0.4777200000000  0.4154310000000 1.0
C      1  0.5096040000000  0.4379010000000  0.5615800000000 1.0
C      1  0.5447100000000  0.5718840000000  0.5858250000000 1.0
C      1  0.5447100000000  0.5383850000000  0.3948340000000 1.0
C      1  0.5447100000000  0.3897320000000  0.5193410000000 1.0
C      1  0.4200180000000  0.4791160000000  0.4474380000000 1.0
C      1  0.4200180000000  0.4649220000000  0.5443670000000 1.0
C      1  0.4200180000000  0.5559620000000  0.5081950000000 1.0
C      1  0.4278970000000  0.5550310000000  0.5643450000000 1.0
C      1  0.4278980000000  0.5282090000000  0.4201690000000 1.0
C      1  0.4278980000000  0.4167590000000  0.5154850000000 1.0
C      1  0.4718020000000  0.4996510000000  0.5985240000000 1.0
C      1  0.4718030000000  0.5854980000000  0.4510400000000 1.0
C      1  0.4718030000000  0.4148500000000  0.4504360000000 1.0
C      1  0.5907170000000  0.4857720000000  0.4862790000000 1.0
C      1  0.5907170000000  0.4952300000000  0.5191830000000 1.0
C      1  0.5907170000000  0.5189970000000  0.4945400000000 1.0
C      1  0.5465410000000  0.4085220000000  0.4683890000000 1.0
C      1  0.5465400000000  0.5183630000000  0.5950280000000 1.0
C      1  0.5465410000000  0.5731150000000  0.4365830000000 1.0
C      1  0.5440360000000  0.5655040000000  0.4680930000000 1.0
C      1  0.5440360000000  0.4396150000000  0.4592260000000 1.0
C      1  0.5440360000000  0.4948810000000  0.5726820000000 1.0
C      1  0.4394700000000  0.4567240000000  0.4269730000000 1.0
C      1  0.4394690000000  0.4583950000000  0.5739910000000 1.0
C      1  0.4394690000000  0.5848810000000  0.4990350000000 1.0
C      1  0.4972410000000  0.5776000000000  0.5772070000000 1.0
C      1  0.4972420000000  0.5280630000000  0.3941930000000 1.0
C      1  0.4972410000000  0.3943370000000  0.5286000000000 1.0
C      1  0.5683480000000  0.5677960000000  0.4903380000000 1.0
C      1  0.5683480000000  0.4577340000000  0.4461190000000 1.0
C      1  0.5683480000000  0.4744700000000  0.5635440000000 1.0
C      1  0.5205270000000  0.4060890000000  0.4498840000000 1.0
C      1  0.5205260000000  0.5035540000000  0.6063880000000 1.0
C      1  0.5205270000000  0.5903570000000  0.4437290000000 1.0
C      1  0.5670300000000  0.4944780000000  0.5375410000000 1.0
C      1  0.5670300000000  0.5352720000000  0.4860120000000 1.0
C      1  0.5670300000000  0.4702500000000  0.4764480000000 1.0
END
