TITL C-862128-1543-670 -0.00139823300831683 125000 -593.749116327387 0 0 104 (C1) n - 1
REM
REM in /home/nfs/bkarasulu/CARBON/AIRSS/Generating-Clusters/TERSOFF/Higher-Symm/FIRE-HFTN
REM
REM
REM
REM
REM
REM ./C.cell (b20cbc046b6831c77cfcea5457e17084)
REM AIRSS Version 0.9.1 bugfix July 2018 build 013d7b7c2542+ Fri, 06 Jul 2018 19:26:36 +0100
REM compiler GCC version 9.2.1 20190827 (Red Hat 9.2.1-1)
REM options -cpp -mtune=generic -march=x86-64 -g -O0 -fpre-include=/usr/include/finclude/math-vector-fortran.h
REM seed 1423916401 812078421 1431634061 620688994 -330969306 828716263 558202796 940871863 1669538884 2056298199 -1475062569 586319274 -796488504 -213878468 2100500361 664195407 1912175337 1944615200 -437879498 821420979 -221256769 520909421 1572874104 -517458558 -1416201284 -1591357588 197392037 -359466466 -809511287 -1701718064 1976764865 1633296285 -110273526
REM
CELL 1.54180   50.00000   50.00000   50.00000   90.00000   90.00000   90.00000
LATT -1
SFAC C  
C      1  0.5158310000000  0.4295200000000  0.5237290000000 1.0
C      1  0.4227720000000  0.5087950000000  0.5142760000000 1.0
C      1  0.5066840000000  0.5070650000000  0.4392420000000 1.0
C      1  0.4833030000000  0.4257800000000  0.4915040000000 1.0
C      1  0.4850610000000  0.5583850000000  0.5133030000000 1.0
C      1  0.5149320000000  0.5346550000000  0.4868350000000 1.0
C      1  0.5668220000000  0.5144130000000  0.4856560000000 1.0
C      1  0.5656080000000  0.4878590000000  0.5270330000000 1.0
C      1  0.4460340000000  0.4817010000000  0.4922700000000 1.0
C      1  0.4775340000000  0.5177450000000  0.5697400000000 1.0
C      1  0.4762300000000  0.4790150000000  0.4324940000000 1.0
C      1  0.5121750000000  0.4865910000000  0.5750800000000 1.0
C      1  0.5150430000000  0.5521920000000  0.5117000000000 1.0
C      1  0.4300400000000  0.4795290000000  0.5246190000000 1.0
C      1  0.5100730000000  0.4776670000000  0.4449440000000 1.0
C      1  0.4842160000000  0.5389410000000  0.4864960000000 1.0
C      1  0.4858310000000  0.4298660000000  0.5223690000000 1.0
C      1  0.5153630000000  0.4252020000000  0.4929100000000 1.0
C      1  0.5511000000000  0.4878840000000  0.4949950000000 1.0
C      1  0.5716410000000  0.5183120000000  0.5153470000000 1.0
C      1  0.4288160000000  0.5067050000000  0.4847940000000 1.0
C      1  0.4808460000000  0.4874150000000  0.5726850000000 1.0
C      1  0.4782300000000  0.5109010000000  0.4301080000000 1.0
C      1  0.5092630000000  0.5183120000000  0.5723660000000 1.0
C      1  0.4356050000000  0.5318990000000  0.5260050000000 1.0
C      1  0.5283780000000  0.5253680000000  0.4398960000000 1.0
C      1  0.5298320000000  0.4508780000000  0.5396670000000 1.0
C      1  0.5585530000000  0.5398850000000  0.4737280000000 1.0
C      1  0.5557320000000  0.4581040000000  0.5242470000000 1.0
C      1  0.4490580000000  0.4602800000000  0.4726280000000 1.0
C      1  0.4596800000000  0.5293430000000  0.5470430000000 1.0
C      1  0.4503260000000  0.4743920000000  0.4457560000000 1.0
C      1  0.5333590000000  0.4757200000000  0.5581460000000 1.0
C      1  0.4741960000000  0.4437400000000  0.4703210000000 1.0
C      1  0.4769920000000  0.5532540000000  0.5405400000000 1.0
C      1  0.5306930000000  0.5428420000000  0.4634120000000 1.0
C      1  0.4441450000000  0.4518870000000  0.5224270000000 1.0
C      1  0.5399510000000  0.4761250000000  0.4511740000000 1.0
C      1  0.5326250000000  0.5489510000000  0.5350560000000 1.0
C      1  0.5484320000000  0.4635340000000  0.4772310000000 1.0
C      1  0.5614620000000  0.5453600000000  0.5244530000000 1.0
C      1  0.4383730000000  0.5296840000000  0.4707790000000 1.0
C      1  0.4622810000000  0.4727060000000  0.5569580000000 1.0
C      1  0.4574460000000  0.5272230000000  0.4451840000000 1.0
C      1  0.5326270000000  0.5285590000000  0.5580400000000 1.0
C      1  0.4752710000000  0.5467750000000  0.4603380000000 1.0
C      1  0.4695380000000  0.4481040000000  0.5395970000000 1.0
C      1  0.5274720000000  0.4409680000000  0.4721610000000 1.0
C      1  0.4304200000000  0.4287010000000  0.5081030000000 1.0
C      1  0.4326440000000  0.5226750000000  0.4265570000000 1.0
C      1  0.5171920000000  0.4363320000000  0.4450220000000 1.0
C      1  0.5720070000000  0.4451710000000  0.4803780000000 1.0
C      1  0.5757040000000  0.5695710000000  0.5122020000000 1.0
C      1  0.4337520000000  0.5564280000000  0.4827090000000 1.0
C      1  0.5582790000000  0.5180610000000  0.5661450000000 1.0
C      1  0.5596990000000  0.4893310000000  0.4334720000000 1.0
C      1  0.4341240000000  0.4837000000000  0.5555310000000 1.0
C      1  0.4831880000000  0.4319230000000  0.5643350000000 1.0
C      1  0.4889720000000  0.5679320000000  0.4460510000000 1.0
C      1  0.5233920000000  0.5702360000000  0.5556500000000 1.0
C      1  0.4318090000000  0.5575390000000  0.5130970000000 1.0
C      1  0.4260290000000  0.4894250000000  0.4323110000000 1.0
C      1  0.5196160000000  0.5681080000000  0.4492190000000 1.0
C      1  0.5740800000000  0.5634240000000  0.4809360000000 1.0
C      1  0.5736600000000  0.4367380000000  0.5116200000000 1.0
C      1  0.4287540000000  0.4385530000000  0.4771600000000 1.0
C      1  0.5611100000000  0.4888910000000  0.5577700000000 1.0
C      1  0.5534260000000  0.5183970000000  0.4263950000000 1.0
C      1  0.4348890000000  0.5170070000000  0.5652530000000 1.0
C      1  0.4919430000000  0.5681120000000  0.5624600000000 1.0
C      1  0.4864130000000  0.4398590000000  0.4437320000000 1.0
C      1  0.5172310000000  0.4348600000000  0.5653540000000 1.0
C      1  0.5725860000000  0.5413280000000  0.4221870000000 1.0
C      1  0.5445580000000  0.4265240000000  0.5768330000000 1.0
C      1  0.4339930000000  0.5793100000000  0.5328300000000 1.0
C      1  0.4262230000000  0.5471880000000  0.5727200000000 1.0
C      1  0.4231930000000  0.4627570000000  0.4158950000000 1.0
C      1  0.5766310000000  0.4663020000000  0.5710870000000 1.0
C      1  0.4668740000000  0.4350040000000  0.4216890000000 1.0
C      1  0.4662460000000  0.5808580000000  0.5729990000000 1.0
C      1  0.5392080000000  0.5792540000000  0.4303870000000 1.0
C      1  0.5813390000000  0.5786300000000  0.4569500000000 1.0
C      1  0.5812430000000  0.4256820000000  0.5400020000000 1.0
C      1  0.4252290000000  0.4250830000000  0.4506340000000 1.0
C      1  0.5739180000000  0.4681640000000  0.4188070000000 1.0
C      1  0.5467840000000  0.5780280000000  0.5721790000000 1.0
C      1  0.4205820000000  0.4187220000000  0.5363840000000 1.0
C      1  0.4207330000000  0.4592620000000  0.5684950000000 1.0
C      1  0.4265920000000  0.5529270000000  0.4206750000000 1.0
C      1  0.5792530000000  0.5386770000000  0.5699690000000 1.0
C      1  0.4688900000000  0.5826250000000  0.4298650000000 1.0
C      1  0.4557470000000  0.4219960000000  0.5747520000000 1.0
C      1  0.5375780000000  0.4332060000000  0.4237460000000 1.0
C      1  0.5789670000000  0.4317830000000  0.4544090000000 1.0
C      1  0.5856990000000  0.5794160000000  0.5395650000000 1.0
C      1  0.4319380000000  0.5789620000000  0.4641450000000 1.0
C      1  0.5675240000000  0.5700350000000  0.4317150000000 1.0
C      1  0.5705010000000  0.4373810000000  0.5657030000000 1.0
C      1  0.4396950000000  0.5725030000000  0.5616700000000 1.0
C      1  0.4295910000000  0.4311140000000  0.5625840000000 1.0
C      1  0.5667020000000  0.4404540000000  0.4278970000000 1.0
C      1  0.4398290000000  0.5761420000000  0.4354750000000 1.0
C      1  0.4367210000000  0.4374590000000  0.4254740000000 1.0
C      1  0.5742210000000  0.5680290000000  0.5647420000000 1.0
END
