TITL C-862133-5440-1049 0.00132483636077711 125000 -649.485313998798 0 0 123 (C5) n - 1
REM
REM in /home/nfs/bkarasulu/CARBON/AIRSS/Generating-Clusters/TERSOFF/Higher-Symm/FIRE-HFTN
REM
REM
REM
REM
REM
REM ./C.cell (b20cbc046b6831c77cfcea5457e17084)
REM AIRSS Version 0.9.1 bugfix July 2018 build 013d7b7c2542+ Fri, 06 Jul 2018 19:26:36 +0100
REM compiler GCC version 9.2.1 20190827 (Red Hat 9.2.1-1)
REM options -cpp -mtune=generic -march=x86-64 -g -O0 -fpre-include=/usr/include/finclude/math-vector-fortran.h
REM seed 1643965971 1278868724 1901187675 -979225876 -348553865 -2116612787 -1794792015 415775144 -1567020503 -609354836 333927613 -1427814447 506794673 1047665547 1702598856 -2029917849 1757940544 -503673662 -1757368055 -1560265075 -2145828731 -954014973 321111321 -189812485 1614638151 1148879906 -2062214855 1849547239 -312851240 560182439 46247368 508924284 1046584124
REM
CELL 1.54180   50.00000   50.00000   50.00000   90.00000   90.00000   90.00000
LATT -1
SFAC C  
C      1  0.4083650000000  0.5314090000000  0.4832770000000 1.0
C      1  0.4083650000000  0.4938050000000  0.4648970000000 1.0
C      1  0.4083650000000  0.4647040000000  0.4949820000000 1.0
C      1  0.4083650000000  0.4843230000000  0.5319550000000 1.0
C      1  0.4083650000000  0.5255490000000  0.5247210000000 1.0
C      1  0.4552820000000  0.5451000000000  0.5368600000000 1.0
C      1  0.4552810000000  0.5489950000000  0.4684340000000 1.0
C      1  0.4552810000000  0.4851220000000  0.4435850000000 1.0
C      1  0.4552810000000  0.4417510000000  0.4966530000000 1.0
C      1  0.4552820000000  0.4788200000000  0.5543000000000 1.0
C      1  0.4368220000000  0.4272810000000  0.5377890000000 1.0
C      1  0.4368220000000  0.5134710000000  0.5807740000000 1.0
C      1  0.4368220000000  0.5809870000000  0.5120860000000 1.0
C      1  0.4368220000000  0.5365230000000  0.4266490000000 1.0
C      1  0.4368220000000  0.4415280000000  0.4425340000000 1.0
C      1  0.5074860000000  0.4431650000000  0.4891160000000 1.0
C      1  0.5074860000000  0.4720890000000  0.5506260000000 1.0
C      1  0.5074860000000  0.5395260000000  0.5421260000000 1.0
C      1  0.5074860000000  0.5522810000000  0.4753630000000 1.0
C      1  0.5074860000000  0.4927270000000  0.4426010000000 1.0
C      1  0.4321590000000  0.5248180000000  0.5525150000000 1.0
C      1  0.4321590000000  0.5576160000000  0.4925610000000 1.0
C      1  0.4321580000000  0.5107330000000  0.4428420000000 1.0
C      1  0.4321580000000  0.4489580000000  0.4720660000000 1.0
C      1  0.4321590000000  0.4576640000000  0.5398480000000 1.0
C      1  0.5124490000000  0.5642840000000  0.5209040000000 1.0
C      1  0.5124490000000  0.5397480000000  0.4452590000000 1.0
C      1  0.5124490000000  0.4602240000000  0.4452180000000 1.0
C      1  0.5124490000000  0.4356100000000  0.5208380000000 1.0
C      1  0.5124490000000  0.4999230000000  0.5676140000000 1.0
C      1  0.4774580000000  0.5770750000000  0.4467050000000 1.0
C      1  0.4774580000000  0.4731330000000  0.4101650000000 1.0
C      1  0.4774580000000  0.4062620000000  0.4977280000000 1.0
C      1  0.4774580000000  0.4688750000000  0.5883850000000 1.0
C      1  0.4774580000000  0.5744430000000  0.5568510000000 1.0
C      1  0.4980910000000  0.4044520000000  0.5450640000000 1.0
C      1  0.4980920000000  0.5133350000000  0.6047340000000 1.0
C      1  0.4980910000000  0.6037320000000  0.5196190000000 1.0
C      1  0.4980910000000  0.5507160000000  0.4073450000000 1.0
C      1  0.4980910000000  0.4275540000000  0.4230710000000 1.0
C      1  0.4489290000000  0.4613330000000  0.4221460000000 1.0
C      1  0.4489300000000  0.4140110000000  0.5126530000000 1.0
C      1  0.4489300000000  0.4854640000000  0.5856270000000 1.0
C      1  0.4489300000000  0.5769470000000  0.5402220000000 1.0
C      1  0.4489300000000  0.5620340000000  0.4391850000000 1.0
C      1  0.5476830000000  0.5232040000000  0.4732650000000 1.0
C      1  0.5476830000000  0.4817470000000  0.4696060000000 1.0
C      1  0.5476830000000  0.4654560000000  0.5079050000000 1.0
C      1  0.5476830000000  0.4968460000000  0.5352330000000 1.0
C      1  0.5476830000000  0.5325360000000  0.5138240000000 1.0
C      1  0.5439830000000  0.4385820000000  0.5402980000000 1.0
C      1  0.5439830000000  0.5193490000000  0.5708010000000 1.0
C      1  0.5439830000000  0.5733180000000  0.5034130000000 1.0
C      1  0.5439830000000  0.5259050000000  0.4312620000000 1.0
C      1  0.5439830000000  0.4426340000000  0.4540580000000 1.0
C      1  0.5025320000000  0.4834800000000  0.5949100000000 1.0
C      1  0.5025320000000  0.5851630000000  0.5449780000000 1.0
C      1  0.5025320000000  0.5690960000000  0.4328410000000 1.0
C      1  0.5025320000000  0.4574820000000  0.4134700000000 1.0
C      1  0.5025320000000  0.4045690000000  0.5136340000000 1.0
C      1  0.4795670000000  0.4647460000000  0.4601560000000 1.0
C      1  0.4795670000000  0.4512150000000  0.5211530000000 1.0
C      1  0.4795670000000  0.5050450000000  0.5528710000000 1.0
C      1  0.4795670000000  0.5518450000000  0.5114760000000 1.0
C      1  0.4795670000000  0.5269380000000  0.4541760000000 1.0
C      1  0.5291910000000  0.4765540000000  0.4103660000000 1.0
C      1  0.5291910000000  0.4075110000000  0.4945370000000 1.0
C      1  0.5291910000000  0.4662260000000  0.5862110000000 1.0
C      1  0.5291910000000  0.5715570000000  0.5586980000000 1.0
C      1  0.5291910000000  0.5779410000000  0.4500200000000 1.0
C      1  0.5596540000000  0.4959200000000  0.4436680000000 1.0
C      1  0.5596540000000  0.4451670000000  0.4864090000000 1.0
C      1  0.5596540000000  0.4701330000000  0.5478860000000 1.0
C      1  0.5596540000000  0.5363160000000  0.5431400000000 1.0
C      1  0.5596540000000  0.5522530000000  0.4787290000000 1.0
C      1  0.5505980000000  0.5569410000000  0.4484890000000 1.0
C      1  0.5505980000000  0.4686080000000  0.4298650000000 1.0
C      1  0.5505980000000  0.4235990000000  0.5081190000000 1.0
C      1  0.5505980000000  0.4841150000000  0.5751070000000 1.0
C      1  0.5505980000000  0.5665250000000  0.5382530000000 1.0
C      1  0.4996410000000  0.4287770000000  0.5623870000000 1.0
C      1  0.4996410000000  0.5373270000000  0.5869520000000 1.0
C      1  0.4996410000000  0.5942340000000  0.4913060000000 1.0
C      1  0.4996410000000  0.5208540000000  0.4076290000000 1.0
C      1  0.4996410000000  0.4185970000000  0.4515590000000 1.0
C      1  0.4386140000000  0.4657230000000  0.5098460000000 1.0
C      1  0.4386140000000  0.4987740000000  0.5355790000000 1.0
C      1  0.4386140000000  0.5334610000000  0.5120970000000 1.0
C      1  0.4386140000000  0.5218480000000  0.4718510000000 1.0
C      1  0.4386140000000  0.4799830000000  0.4704600000000 1.0
C      1  0.5267280000000  0.5893000000000  0.4799120000000 1.0
C      1  0.5267280000000  0.5084930000000  0.4088000000000 1.0
C      1  0.5267280000000  0.4158910000000  0.4636770000000 1.0
C      1  0.5267280000000  0.4394670000000  0.5687050000000 1.0
C      1  0.5267280000000  0.5466390000000  0.5787380000000 1.0
C      1  0.4925880000000  0.5243190000000  0.5047360000000 1.0
C      1  0.4925880000000  0.5120220000000  0.4782710000000 1.0
C      1  0.4925880000000  0.4830530000000  0.4817880000000 1.0
C      1  0.4925880000000  0.4774450000000  0.5104270000000 1.0
C      1  0.4925880000000  0.5029490000000  0.5246100000000 1.0
C      1  0.5888490000000  0.4505060000000  0.4845430000000 1.0
C      1  0.5888490000000  0.4700080000000  0.5422320000000 1.0
C      1  0.5888490000000  0.5309000000000  0.5415110000000 1.0
C      1  0.5888490000000  0.5490310000000  0.4833770000000 1.0
C      1  0.5888490000000  0.4993450000000  0.4481680000000 1.0
C      1  0.4803550000000  0.5037500000000  0.4266820000000 1.0
C      1  0.4803550000000  0.4314320000000  0.4737140000000 1.0
C      1  0.4803550000000  0.4538140000000  0.5570250000000 1.0
C      1  0.4803550000000  0.5399650000000  0.5614840000000 1.0
C      1  0.4803550000000  0.5708270000000  0.4809270000000 1.0
C      1  0.6015030000000  0.4755180000000  0.4923250000000 1.0
C      1  0.6015030000000  0.4851380000000  0.5208490000000 1.0
C      1  0.6015030000000  0.5152390000000  0.5205140000000 1.0
C      1  0.6015030000000  0.5242220000000  0.4917830000000 1.0
C      1  0.6015030000000  0.4996730000000  0.4743610000000 1.0
C      1  0.5194020000000  0.5140150000000  0.4628340000000 1.0
C      1  0.5194020000000  0.4689870000000  0.4751230000000 1.0
C      1  0.5194020000000  0.4667600000000  0.5217440000000 1.0
C      1  0.5194020000000  0.5104110000000  0.5382690000000 1.0
C      1  0.5194020000000  0.5396160000000  0.5018610000000 1.0
C      1  0.4463440000000  0.4999580000000  0.4999670000000 1.0
C      1  0.4008400000000  0.4999580000000  0.4999670000000 1.0
C      1  0.5557180000000  0.4999580000000  0.4999660000000 1.0
END
