TITL C-862133-5440-1280 3.24312224611156e-05 125000 -754.788841466412 0 0 142 (C2h) n - 1
REM
REM in /home/nfs/bkarasulu/CARBON/AIRSS/Generating-Clusters/TERSOFF/Higher-Symm/FIRE-HFTN
REM
REM
REM
REM
REM
REM ./C.cell (b20cbc046b6831c77cfcea5457e17084)
REM AIRSS Version 0.9.1 bugfix July 2018 build 013d7b7c2542+ Fri, 06 Jul 2018 19:26:36 +0100
REM compiler GCC version 9.2.1 20190827 (Red Hat 9.2.1-1)
REM options -cpp -mtune=generic -march=x86-64 -g -O0 -fpre-include=/usr/include/finclude/math-vector-fortran.h
REM seed 1997739562 -422253193 841957817 382784425 -1054386369 426954299 -19770515 2086699235 -236176973 1161516673 1403427481 35113843 1406116898 -1410383877 1978397685 -1416236425 -888824017 187928238 1909780745 -1558851753 1091421615 2099941293 1592612365 -1591417499 -492662861 -458435548 753834738 -538767961 -1775521431 137591714 1891142690 1204365262 1309953061
REM
CELL 1.54180   50.00000   50.00000   50.00000   90.00000   90.00000   90.00000
LATT -1
SFAC C  
C      1  0.4623420000000  0.4854570000000  0.4844900000000 1.0
C      1  0.5376580000000  0.5145430000000  0.4844900000000 1.0
C      1  0.4623420000000  0.4854570000000  0.5147360000000 1.0
C      1  0.5376580000000  0.5145430000000  0.5147360000000 1.0
C      1  0.5194350000000  0.5973240000000  0.5326110000000 1.0
C      1  0.4805650000000  0.4026760000000  0.5326110000000 1.0
C      1  0.5194350000000  0.5973240000000  0.4666160000000 1.0
C      1  0.4805650000000  0.4026760000000  0.4666160000000 1.0
C      1  0.4210890000000  0.5439710000000  0.4749020000000 1.0
C      1  0.5789110000000  0.4560290000000  0.4749020000000 1.0
C      1  0.4210890000000  0.5439710000000  0.5243250000000 1.0
C      1  0.5789110000000  0.4560290000000  0.5243250000000 1.0
C      1  0.5997450000000  0.5055490000000  0.4781680000000 1.0
C      1  0.4002550000000  0.4944510000000  0.4781680000000 1.0
C      1  0.5997450000000  0.5055490000000  0.5210580000000 1.0
C      1  0.4002550000000  0.4944510000000  0.5210580000000 1.0
C      1  0.4591330000000  0.5612590000000  0.4448840000000 1.0
C      1  0.5408670000000  0.4387410000000  0.4448840000000 1.0
C      1  0.4591330000000  0.5612590000000  0.5543420000000 1.0
C      1  0.5408670000000  0.4387410000000  0.5543420000000 1.0
C      1  0.5026920000000  0.5635150000000  0.5829910000000 1.0
C      1  0.4973080000000  0.4364850000000  0.5829910000000 1.0
C      1  0.5026920000000  0.5635150000000  0.4162360000000 1.0
C      1  0.4973080000000  0.4364850000000  0.4162360000000 1.0
C      1  0.5232950000000  0.5769210000000  0.5622500000000 1.0
C      1  0.4767050000000  0.4230790000000  0.5622500000000 1.0
C      1  0.5232950000000  0.5769210000000  0.4369760000000 1.0
C      1  0.4767050000000  0.4230790000000  0.4369760000000 1.0
C      1  0.5653790000000  0.4613070000000  0.5512630000000 1.0
C      1  0.4346210000000  0.5386930000000  0.5512630000000 1.0
C      1  0.5653790000000  0.4613070000000  0.4479630000000 1.0
C      1  0.4346210000000  0.5386930000000  0.4479630000000 1.0
C      1  0.5317890000000  0.4770330000000  0.5924070000000 1.0
C      1  0.4682110000000  0.5229670000000  0.5924070000000 1.0
C      1  0.5317890000000  0.4770330000000  0.4068190000000 1.0
C      1  0.4682110000000  0.5229670000000  0.4068190000000 1.0
C      1  0.5691880000000  0.4295580000000  0.4850360000000 1.0
C      1  0.4308120000000  0.5704420000000  0.4850360000000 1.0
C      1  0.5691880000000  0.4295580000000  0.5141900000000 1.0
C      1  0.4308120000000  0.5704420000000  0.5141900000000 1.0
C      1  0.5236780000000  0.4546200000000  0.5348020000000 1.0
C      1  0.4763220000000  0.5453800000000  0.5348020000000 1.0
C      1  0.5236780000000  0.4546200000000  0.4644240000000 1.0
C      1  0.4763220000000  0.5453800000000  0.4644240000000 1.0
C      1  0.4911920000000  0.5144830000000  0.5729210000000 1.0
C      1  0.5088080000000  0.4855170000000  0.5729210000000 1.0
C      1  0.4911920000000  0.5144830000000  0.4263060000000 1.0
C      1  0.5088080000000  0.4855170000000  0.4263060000000 1.0
C      1  0.5565310000000  0.4935670000000  0.4055070000000 1.0
C      1  0.4434690000000  0.5064330000000  0.4055070000000 1.0
C      1  0.5565310000000  0.4935670000000  0.5937200000000 1.0
C      1  0.4434690000000  0.5064330000000  0.5937200000000 1.0
C      1  0.5627590000000  0.5400300000000  0.5798230000000 1.0
C      1  0.4372410000000  0.4599700000000  0.5798230000000 1.0
C      1  0.5627590000000  0.5400300000000  0.4194030000000 1.0
C      1  0.4372410000000  0.4599700000000  0.4194030000000 1.0
C      1  0.5579420000000  0.5364270000000  0.5263700000000 1.0
C      1  0.4420580000000  0.4635730000000  0.5263700000000 1.0
C      1  0.5579420000000  0.5364270000000  0.4728560000000 1.0
C      1  0.4420580000000  0.4635730000000  0.4728560000000 1.0
C      1  0.4543070000000  0.5808040000000  0.5301820000000 1.0
C      1  0.5456930000000  0.4191960000000  0.5301820000000 1.0
C      1  0.4543070000000  0.5808040000000  0.4690440000000 1.0
C      1  0.5456930000000  0.4191960000000  0.4690440000000 1.0
C      1  0.4677530000000  0.4882840000000  0.4342780000000 1.0
C      1  0.5322470000000  0.5117160000000  0.4342780000000 1.0
C      1  0.4677530000000  0.4882840000000  0.5649490000000 1.0
C      1  0.5322470000000  0.5117160000000  0.5649490000000 1.0
C      1  0.5514760000000  0.5749180000000  0.4508360000000 1.0
C      1  0.4485240000000  0.4250820000000  0.4508360000000 1.0
C      1  0.5514760000000  0.5749180000000  0.5483900000000 1.0
C      1  0.4485240000000  0.4250820000000  0.5483900000000 1.0
C      1  0.4296590000000  0.4737250000000  0.5550930000000 1.0
C      1  0.5703410000000  0.5262750000000  0.5550930000000 1.0
C      1  0.4296590000000  0.4737250000000  0.4441340000000 1.0
C      1  0.5703410000000  0.5262750000000  0.4441340000000 1.0
C      1  0.5851560000000  0.5314570000000  0.5135670000000 1.0
C      1  0.4148440000000  0.4685430000000  0.5135670000000 1.0
C      1  0.5851560000000  0.5314570000000  0.4856600000000 1.0
C      1  0.4148440000000  0.4685430000000  0.4856600000000 1.0
C      1  0.5261670000000  0.4307990000000  0.4204930000000 1.0
C      1  0.4738330000000  0.5692010000000  0.4204930000000 1.0
C      1  0.5261670000000  0.4307990000000  0.5787330000000 1.0
C      1  0.4738330000000  0.5692010000000  0.5787330000000 1.0
C      1  0.5604180000000  0.4931230000000  0.5576780000000 1.0
C      1  0.4395820000000  0.5068770000000  0.5576780000000 1.0
C      1  0.5604180000000  0.4931230000000  0.4415480000000 1.0
C      1  0.4395820000000  0.5068770000000  0.4415480000000 1.0
C      1  0.5018090000000  0.4696020000000  0.4539400000000 1.0
C      1  0.4981910000000  0.5303980000000  0.4539400000000 1.0
C      1  0.5018090000000  0.4696020000000  0.5452870000000 1.0
C      1  0.4981910000000  0.5303980000000  0.5452870000000 1.0
C      1  0.5408040000000  0.5256850000000  0.4035350000000 1.0
C      1  0.4591960000000  0.4743150000000  0.4035350000000 1.0
C      1  0.5408040000000  0.5256850000000  0.5956920000000 1.0
C      1  0.4591960000000  0.4743150000000  0.5956920000000 1.0
C      1  0.4922070000000  0.4875930000000  0.4746600000000 1.0
C      1  0.5077930000000  0.5124070000000  0.4746600000000 1.0
C      1  0.4922070000000  0.4875930000000  0.5245670000000 1.0
C      1  0.5077930000000  0.5124070000000  0.5245670000000 1.0
C      1  0.4605140000000  0.5326310000000  0.5144230000000 1.0
C      1  0.5394860000000  0.4673690000000  0.5144230000000 1.0
C      1  0.4605140000000  0.5326310000000  0.4848040000000 1.0
C      1  0.5394860000000  0.4673690000000  0.4848040000000 1.0
C      1  0.4960870000000  0.6143460000000  0.4820000000000 1.0
C      1  0.5039130000000  0.3856540000000  0.4820000000000 1.0
C      1  0.4960870000000  0.6143460000000  0.5172260000000 1.0
C      1  0.5039130000000  0.3856540000000  0.5172260000000 1.0
C      1  0.5464910000000  0.5997760000000  0.4842420000000 1.0
C      1  0.4535090000000  0.4002240000000  0.4842420000000 1.0
C      1  0.5464910000000  0.5997760000000  0.5149840000000 1.0
C      1  0.4535090000000  0.4002240000000  0.5149840000000 1.0
C      1  0.5207300000000  0.4132520000000  0.4839990000000 1.0
C      1  0.4792700000000  0.5867480000000  0.4839990000000 1.0
C      1  0.5207300000000  0.4132520000000  0.5152280000000 1.0
C      1  0.4792700000000  0.5867480000000  0.5152280000000 1.0
C      1  0.5972110000000  0.5118610000000  0.5501140000000 1.0
C      1  0.4027890000000  0.4881390000000  0.5501140000000 1.0
C      1  0.5972110000000  0.5118610000000  0.4491130000000 1.0
C      1  0.4027890000000  0.4881390000000  0.4491130000000 1.0
C      1  0.4905920000000  0.4648100000000  0.4080630000000 1.0
C      1  0.5094080000000  0.5351900000000  0.4080630000000 1.0
C      1  0.4905920000000  0.4648100000000  0.5911640000000 1.0
C      1  0.5094080000000  0.5351900000000  0.5911640000000 1.0
C      1  0.4895470000000  0.4319100000000  0.5165830000000 1.0
C      1  0.5104530000000  0.5680900000000  0.5165830000000 1.0
C      1  0.4895470000000  0.4319100000000  0.4826430000000 1.0
C      1  0.5104530000000  0.5680900000000  0.4826430000000 1.0
C      1  0.5469410000000  0.5653300000000  0.4812410000000 1.0
C      1  0.4530590000000  0.4346700000000  0.4812410000000 1.0
C      1  0.5469410000000  0.5653300000000  0.5179850000000 1.0
C      1  0.4530590000000  0.4346700000000  0.5179850000000 1.0
C      1  0.5239940000000  0.5435100000000  0.4465440000000 1.0
C      1  0.4760060000000  0.4564900000000  0.4465440000000 1.0
C      1  0.5239940000000  0.5435100000000  0.5526830000000 1.0
C      1  0.4760060000000  0.4564900000000  0.5526830000000 1.0
C      1  0.5556220000000  0.4909450000000  0.4760330000000 1.0
C      1  0.4443780000000  0.5090550000000  0.4760330000000 1.0
C      1  0.5556220000000  0.4909450000000  0.5231930000000 1.0
C      1  0.4443780000000  0.5090550000000  0.5231930000000 1.0
C      1  0.5823300000000  0.4822430000000  0.4996130000000 1.0
C      1  0.4176700000000  0.5177570000000  0.4996130000000 1.0
END
