TITL C-862130-1496-1125 -7.17798736393973e-06 125000 -589.736419655452 0 0 108 (C3i) n - 1
REM
REM in /home/nfs/bkarasulu/CARBON/AIRSS/Generating-Clusters/TERSOFF/Higher-Symm/FIRE-HFTN
REM
REM
REM
REM
REM
REM ./C.cell (b20cbc046b6831c77cfcea5457e17084)
REM AIRSS Version 0.9.1 bugfix July 2018 build 013d7b7c2542+ Fri, 06 Jul 2018 19:26:36 +0100
REM compiler GCC version 9.2.1 20190827 (Red Hat 9.2.1-1)
REM options -cpp -mtune=generic -march=x86-64 -g -O0 -fpre-include=/usr/include/finclude/math-vector-fortran.h
REM seed 1184995042 -1158544286 -743384640 600291172 1553447166 823104081 -1889708179 -703820522 318462040 -1697774483 -1521960093 -1177572054 2090434552 -249355462 -7410342 -1666258312 -1908862772 383819237 524415142 -574865392 -1335335248 -1976417012 -1655146925 -715516876 -1162889084 1880051103 -1437169939 -1576133464 -763615535 -1773934046 -618004781 -581317173 1545338773
REM
CELL 1.54180   50.00000   50.00000   50.00000   90.00000   90.00000   90.00000
LATT -1
SFAC C  
C      1  0.5090050000000  0.5735320000000  0.5582040000000 1.0
C      1  0.4408210000000  0.5445650000000  0.4417960000000 1.0
C      1  0.4318170000000  0.4710320000000  0.5582040000000 1.0
C      1  0.4909950000000  0.4264680000000  0.4417960000000 1.0
C      1  0.5591790000000  0.4554350000000  0.5582040000000 1.0
C      1  0.5681830000000  0.5289680000000  0.4417960000000 1.0
C      1  0.4842030000000  0.4895680000000  0.5401830000000 1.0
C      1  0.5011360000000  0.4811030000000  0.4598170000000 1.0
C      1  0.5169330000000  0.4915350000000  0.5401830000000 1.0
C      1  0.5157970000000  0.5104320000000  0.4598170000000 1.0
C      1  0.4988640000000  0.5188970000000  0.5401830000000 1.0
C      1  0.4830670000000  0.5084650000000  0.4598170000000 1.0
C      1  0.5079780000000  0.4495660000000  0.5692510000000 1.0
C      1  0.5476660000000  0.4816920000000  0.4307490000000 1.0
C      1  0.5396880000000  0.5321260000000  0.5692510000000 1.0
C      1  0.4920220000000  0.5504340000000  0.4307490000000 1.0
C      1  0.4523340000000  0.5183080000000  0.5692510000000 1.0
C      1  0.4603120000000  0.4678740000000  0.4307490000000 1.0
C      1  0.5742470000000  0.5468540000000  0.4669050000000 1.0
C      1  0.4965460000000  0.5877260000000  0.5330950000000 1.0
C      1  0.4223000000000  0.5408720000000  0.4669050000000 1.0
C      1  0.4257530000000  0.4531460000000  0.5330950000000 1.0
C      1  0.5034540000000  0.4122740000000  0.4669050000000 1.0
C      1  0.5777000000000  0.4591280000000  0.5330950000000 1.0
C      1  0.4406650000000  0.4915390000000  0.4337990000000 1.0
C      1  0.4776600000000  0.4443840000000  0.5662010000000 1.0
C      1  0.5369950000000  0.4528450000000  0.4337990000000 1.0
C      1  0.5593350000000  0.5084610000000  0.5662010000000 1.0
C      1  0.5223400000000  0.5556160000000  0.4337990000000 1.0
C      1  0.4630050000000  0.5471550000000  0.5662010000000 1.0
C      1  0.4546370000000  0.5021890000000  0.4719410000000 1.0
C      1  0.4754230000000  0.4618090000000  0.5280590000000 1.0
C      1  0.5207850000000  0.4596200000000  0.4719410000000 1.0
C      1  0.5453630000000  0.4978110000000  0.5280590000000 1.0
C      1  0.5245770000000  0.5381910000000  0.4719410000000 1.0
C      1  0.4792150000000  0.5403800000000  0.5280590000000 1.0
C      1  0.5890660000000  0.4968110000000  0.4981280000000 1.0
C      1  0.5472950000000  0.5755390000000  0.5018720000000 1.0
C      1  0.4582290000000  0.5787280000000  0.4981280000000 1.0
C      1  0.4109340000000  0.5031890000000  0.5018720000000 1.0
C      1  0.4527050000000  0.4244610000000  0.4981280000000 1.0
C      1  0.5417710000000  0.4212720000000  0.5018720000000 1.0
C      1  0.4504420000000  0.5339920000000  0.5165840000000 1.0
C      1  0.4457830000000  0.4740770000000  0.4834160000000 1.0
C      1  0.4953410000000  0.4400850000000  0.5165840000000 1.0
C      1  0.5495580000000  0.4660080000000  0.4834160000000 1.0
C      1  0.5542170000000  0.5259230000000  0.5165840000000 1.0
C      1  0.5046590000000  0.5599150000000  0.4834160000000 1.0
C      1  0.4108200000000  0.5108770000000  0.4717970000000 1.0
C      1  0.4459900000000  0.4282070000000  0.5282030000000 1.0
C      1  0.5351700000000  0.4173290000000  0.4717970000000 1.0
C      1  0.5891800000000  0.4891230000000  0.5282030000000 1.0
C      1  0.5540100000000  0.5717930000000  0.4717970000000 1.0
C      1  0.4648300000000  0.5826710000000  0.5282030000000 1.0
C      1  0.5132920000000  0.5221580000000  0.5090570000000 1.0
C      1  0.4874570000000  0.5225900000000  0.4909430000000 1.0
C      1  0.4741650000000  0.5004320000000  0.5090570000000 1.0
C      1  0.4867080000000  0.4778420000000  0.4909430000000 1.0
C      1  0.5125430000000  0.4774100000000  0.5090570000000 1.0
C      1  0.5258350000000  0.4995680000000  0.4909430000000 1.0
C      1  0.4656950000000  0.4427440000000  0.4496280000000 1.0
C      1  0.5324330000000  0.4416630000000  0.5503720000000 1.0
C      1  0.5667380000000  0.4989190000000  0.4496280000000 1.0
C      1  0.5343050000000  0.5572560000000  0.5503720000000 1.0
C      1  0.4675670000000  0.5583370000000  0.4496280000000 1.0
C      1  0.4332620000000  0.5010810000000  0.5503720000000 1.0
C      1  0.5082910000000  0.4476240000000  0.4267170000000 1.0
C      1  0.5495040000000  0.4809920000000  0.5732830000000 1.0
C      1  0.5412130000000  0.5333680000000  0.4267170000000 1.0
C      1  0.4917090000000  0.5523760000000  0.5732830000000 1.0
C      1  0.4504960000000  0.5190080000000  0.4267170000000 1.0
C      1  0.4587870000000  0.4666320000000  0.5732830000000 1.0
C      1  0.5531640000000  0.4709880000000  0.5165780000000 1.0
C      1  0.5517070000000  0.5315350000000  0.4834220000000 1.0
C      1  0.4985430000000  0.5605470000000  0.5165780000000 1.0
C      1  0.4468360000000  0.5290120000000  0.4834220000000 1.0
C      1  0.4482930000000  0.4684650000000  0.5165780000000 1.0
C      1  0.5014570000000  0.4394530000000  0.4834220000000 1.0
C      1  0.4398800000000  0.5021230000000  0.5200640000000 1.0
C      1  0.4681010000000  0.4489960000000  0.4799360000000 1.0
C      1  0.5282210000000  0.4468730000000  0.5200640000000 1.0
C      1  0.5601200000000  0.4978770000000  0.4799360000000 1.0
C      1  0.5318990000000  0.5510040000000  0.5200640000000 1.0
C      1  0.4717790000000  0.5531270000000  0.4799360000000 1.0
C      1  0.5497510000000  0.4333320000000  0.4516680000000 1.0
C      1  0.5826120000000  0.5097520000000  0.5483320000000 1.0
C      1  0.5328610000000  0.5764200000000  0.4516680000000 1.0
C      1  0.4502490000000  0.5666680000000  0.5483320000000 1.0
C      1  0.4173880000000  0.4902480000000  0.4516680000000 1.0
C      1  0.4671390000000  0.4235800000000  0.5483320000000 1.0
C      1  0.5925000000000  0.5323220000000  0.4929590000000 1.0
C      1  0.5182580000000  0.5962680000000  0.5070410000000 1.0
C      1  0.4257580000000  0.5639460000000  0.4929590000000 1.0
C      1  0.4075000000000  0.4676780000000  0.5070410000000 1.0
C      1  0.4817420000000  0.4037320000000  0.4929590000000 1.0
C      1  0.5742420000000  0.4360540000000  0.5070410000000 1.0
C      1  0.5823950000000  0.4629330000000  0.4867540000000 1.0
C      1  0.5732980000000  0.5528230000000  0.5132460000000 1.0
C      1  0.4909030000000  0.5898890000000  0.4867540000000 1.0
C      1  0.4176050000000  0.5370670000000  0.5132460000000 1.0
C      1  0.4267020000000  0.4471770000000  0.4867540000000 1.0
C      1  0.5090970000000  0.4101110000000  0.5132460000000 1.0
C      1  0.4708390000000  0.4934260000000  0.5674800000000 1.0
C      1  0.4911120000000  0.4714590000000  0.4325200000000 1.0
C      1  0.5202740000000  0.4780320000000  0.5674800000000 1.0
C      1  0.5291610000000  0.5065740000000  0.4325200000000 1.0
C      1  0.5088880000000  0.5285410000000  0.5674800000000 1.0
C      1  0.4797260000000  0.5219680000000  0.4325200000000 1.0
END
