TITL C-862130-1496-142 1.06251396936596e-06 125000 -118.931814219102 0 0 20 (D2h) n - 1
REM
REM in /home/nfs/bkarasulu/CARBON/AIRSS/Generating-Clusters/TERSOFF/Higher-Symm/FIRE-HFTN
REM
REM
REM
REM
REM
REM ./C.cell (b20cbc046b6831c77cfcea5457e17084)
REM AIRSS Version 0.9.1 bugfix July 2018 build 013d7b7c2542+ Fri, 06 Jul 2018 19:26:36 +0100
REM compiler GCC version 9.2.1 20190827 (Red Hat 9.2.1-1)
REM options -cpp -mtune=generic -march=x86-64 -g -O0 -fpre-include=/usr/include/finclude/math-vector-fortran.h
REM seed -1718878524 1590741652 2041391394 1316263881 1669347938 512166691 -977007829 582780814 2096059275 1685893433 -1742599641 563968245 13141664 1084299690 -212645228 -356898497 533206971 667307286 1304469509 -1923624310 322833063 439387895 -1177006071 958886723 -1865752175 -788211133 -1255501635 959927417 163843171 -1823478520 928765334 602078228 1557176209
REM
CELL 1.54180   50.00000   50.00000   50.00000   90.00000   90.00000   90.00000
LATT -1
SFAC C  
C      1  0.4549150000000  0.5314470000000  0.5025700000000 1.0
C      1  0.5450480000000  0.4750320000000  0.5156420000000 1.0
C      1  0.4549520000000  0.5249680000000  0.4743530000000 1.0
C      1  0.5450850000000  0.4685530000000  0.4874260000000 1.0
C      1  0.5450330000000  0.5314950000000  0.5026770000000 1.0
C      1  0.4549300000000  0.4749840000000  0.5155350000000 1.0
C      1  0.5450700000000  0.5250160000000  0.4744610000000 1.0
C      1  0.4549670000000  0.4685050000000  0.4873180000000 1.0
C      1  0.5256990000000  0.4787400000000  0.4682590000000 1.0
C      1  0.4743800000000  0.5074510000000  0.4615980000000 1.0
C      1  0.5256200000000  0.4925490000000  0.5283970000000 1.0
C      1  0.4743010000000  0.5212600000000  0.5217370000000 1.0
C      1  0.4743880000000  0.4787120000000  0.4681970000000 1.0
C      1  0.5256910000000  0.5074780000000  0.4616600000000 1.0
C      1  0.4743090000000  0.4925220000000  0.5283360000000 1.0
C      1  0.5256120000000  0.5212880000000  0.5217980000000 1.0
C      1  0.5000410000000  0.5182890000000  0.4527440000000 1.0
C      1  0.4999590000000  0.4817110000000  0.5372510000000 1.0
C      1  0.5000540000000  0.4651100000000  0.4649560000000 1.0
C      1  0.4999460000000  0.5348900000000  0.5250400000000 1.0
END
