TITL C-862127-1500-230 -0.00319115429152438 125000 -426.445762189828 0 0 73 (C3) n - 1
REM
REM in /home/nfs/bkarasulu/CARBON/AIRSS/Generating-Clusters/TERSOFF/Higher-Symm/FIRE-HFTN
REM
REM
REM
REM
REM
REM ./C.cell (b20cbc046b6831c77cfcea5457e17084)
REM AIRSS Version 0.9.1 bugfix July 2018 build 013d7b7c2542+ Fri, 06 Jul 2018 19:26:36 +0100
REM compiler GCC version 9.2.1 20190827 (Red Hat 9.2.1-1)
REM options -cpp -mtune=generic -march=x86-64 -g -O0 -fpre-include=/usr/include/finclude/math-vector-fortran.h
REM seed 1981878397 1959012858 636268847 -1505502830 -742256203 -1052527699 -1398005127 -1785866558 1636184685 1873981494 -769553465 -1327479748 -1510439402 -394142754 632232751 751572524 -1194695134 1064765783 415965656 1964282536 448984618 895683426 -990656631 -828010229 271121132 1825045347 -598592474 1193634507 1200207086 -2139229271 904438120 679071420 -129191310
REM
CELL 1.54180   50.00000   50.00000   50.00000   90.00000   90.00000   90.00000
LATT -1
SFAC C  
C      1  0.5787480000000  0.4851740000000  0.5315430000000 1.0
C      1  0.4336940000000  0.4851740000000  0.5528210000000 1.0
C      1  0.4877940000000  0.4851740000000  0.4165610000000 1.0
C      1  0.5198190000000  0.4331130000000  0.4729340000000 1.0
C      1  0.5139150000000  0.4331130000000  0.5310900000000 1.0
C      1  0.4665030000000  0.4331130000000  0.4969000000000 1.0
C      1  0.5279520000000  0.5661730000000  0.5116990000000 1.0
C      1  0.4762770000000  0.5661730000000  0.5187520000000 1.0
C      1  0.4960070000000  0.5661730000000  0.4704730000000 1.0
C      1  0.5946620000000  0.5149210000000  0.4632670000000 1.0
C      1  0.4848650000000  0.5149210000000  0.6007400000000 1.0
C      1  0.4207090000000  0.5149210000000  0.4369170000000 1.0
C      1  0.4498090000000  0.4861910000000  0.5768600000000 1.0
C      1  0.4589180000000  0.4861910000000  0.4184970000000 1.0
C      1  0.5915100000000  0.4861910000000  0.5055670000000 1.0
C      1  0.4916560000000  0.5546590000000  0.5419960000000 1.0
C      1  0.4681880000000  0.5546590000000  0.4721690000000 1.0
C      1  0.5403930000000  0.5546590000000  0.4867590000000 1.0
C      1  0.4562830000000  0.5151430000000  0.4799650000000 1.0
C      1  0.5395940000000  0.5151430000000  0.4725510000000 1.0
C      1  0.5043590000000  0.5151430000000  0.5484080000000 1.0
C      1  0.4396630000000  0.4622930000000  0.5295630000000 1.0
C      1  0.5049510000000  0.4622930000000  0.4333590000000 1.0
C      1  0.5556220000000  0.4622930000000  0.5380020000000 1.0
C      1  0.4700330000000  0.4457580000000  0.4702320000000 1.0
C      1  0.5411490000000  0.4457580000000  0.4893260000000 1.0
C      1  0.4890550000000  0.4457580000000  0.5413670000000 1.0
C      1  0.5113300000000  0.5142350000000  0.4744580000000 1.0
C      1  0.5168400000000  0.5142350000000  0.5229770000000 1.0
C      1  0.4720670000000  0.5142350000000  0.5034890000000 1.0
C      1  0.4095500000000  0.5352800000000  0.4841160000000 1.0
C      1  0.5593660000000  0.5352800000000  0.4300040000000 1.0
C      1  0.5313200000000  0.5352810000000  0.5868040000000 1.0
C      1  0.5262260000000  0.4846180000000  0.4333230000000 1.0
C      1  0.5450160000000  0.4846180000000  0.5564450000000 1.0
C      1  0.4289940000000  0.4846180000000  0.5111570000000 1.0
C      1  0.5668780000000  0.4531420000000  0.4759770000000 1.0
C      1  0.4877510000000  0.4531420000000  0.5703240000000 1.0
C      1  0.4456080000000  0.4531420000000  0.4546240000000 1.0
C      1  0.4767240000000  0.5169000000000  0.5525500000000 1.0
C      1  0.4665130000000  0.5169000000000  0.4539610000000 1.0
C      1  0.5569990000000  0.5169000000000  0.4944130000000 1.0
C      1  0.5100630000000  0.5124990000000  0.4253480000000 1.0
C      1  0.5600040000000  0.5124990000000  0.5464350000000 1.0
C      1  0.4301690000000  0.5124990000000  0.5291410000000 1.0
C      1  0.5900150000000  0.4611130000000  0.4913940000000 1.0
C      1  0.4628300000000  0.4611130000000  0.5826520000000 1.0
C      1  0.4473910000000  0.4611130000000  0.4268780000000 1.0
C      1  0.4651210000000  0.4475760000000  0.5228080000000 1.0
C      1  0.4980730000000  0.4475760000000  0.4587840000000 1.0
C      1  0.5370430000000  0.4475760000000  0.5193320000000 1.0
C      1  0.4152580000000  0.4800210000000  0.4862850000000 1.0
C      1  0.5546340000000  0.4800210000000  0.4338630000000 1.0
C      1  0.5303450000000  0.4800210000000  0.5807770000000 1.0
C      1  0.4303260000000  0.5362000000000  0.5053920000000 1.0
C      1  0.5305520000000  0.5362000000000  0.4373580000000 1.0
C      1  0.5393580000000  0.5362000000000  0.5581730000000 1.0
C      1  0.5842460000000  0.5097710000000  0.4901640000000 1.0
C      1  0.4667810000000  0.5097710000000  0.5782710000000 1.0
C      1  0.4492100000000  0.5097710000000  0.4324890000000 1.0
C      1  0.5143840000000  0.5142990000000  0.5990450000000 1.0
C      1  0.4074170000000  0.5142990000000  0.4633280000000 1.0
C      1  0.5784350000000  0.5142990000000  0.4385510000000 1.0
C      1  0.5124340000000  0.4577060000000  0.5851000000000 1.0
C      1  0.4204700000000  0.4577060000000  0.4686120000000 1.0
C      1  0.5673330000000  0.4577060000000  0.4472130000000 1.0
C      1  0.5214890000000  0.5527020000000  0.5391570000000 1.0
C      1  0.4557290000000  0.5527020000000  0.4994250000000 1.0
C      1  0.5230180000000  0.5527020000000  0.4623420000000 1.0
C      1  0.5448650000000  0.5166820000000  0.5202130000000 1.0
C      1  0.4604480000000  0.5166820000000  0.5291420000000 1.0
C      1  0.4949240000000  0.5166820000000  0.4515700000000 1.0
C      1  0.5000790000000  0.5748250000000  0.5003080000000 1.0
END
