TITL C-862133-5440-1419 0.0839590548548805 125000 -101.592848168736 0 0 19 (C1) n - 1
REM
REM in /home/nfs/bkarasulu/CARBON/AIRSS/Generating-Clusters/TERSOFF/Higher-Symm/FIRE-HFTN
REM
REM
REM
REM
REM
REM ./C.cell (b20cbc046b6831c77cfcea5457e17084)
REM AIRSS Version 0.9.1 bugfix July 2018 build 013d7b7c2542+ Fri, 06 Jul 2018 19:26:36 +0100
REM compiler GCC version 9.2.1 20190827 (Red Hat 9.2.1-1)
REM options -cpp -mtune=generic -march=x86-64 -g -O0 -fpre-include=/usr/include/finclude/math-vector-fortran.h
REM seed -1429382933 -206420090 1556647238 672765055 408316833 -607940175 -316382891 -310233690 1665487393 -224539233 1225775221 -344234537 -1434919161 -2098762891 766513371 2015130186 -1408816117 -1853753337 1806954481 -1960114863 -314109751 -887532797 584927388 -338895644 1446005696 839033344 758468684 522268031 1869380030 209435038 -464320413 -975265240 -1129749574
REM
CELL 1.54180   50.00000   50.00000   50.00000   90.00000   90.00000   90.00000
LATT -1
SFAC C  
C      1  0.4248710000000  0.5089700000000  0.4570330000000 1.0
C      1  0.4917770000000  0.5206530000000  0.4736000000000 1.0
C      1  0.4776600000000  0.5075350000000  0.4951620000000 1.0
C      1  0.4997030000000  0.4640900000000  0.5079800000000 1.0
C      1  0.4437560000000  0.5029090000000  0.5289130000000 1.0
C      1  0.5400490000000  0.5295350000000  0.4891630000000 1.0
C      1  0.4923910000000  0.4913110000000  0.5172820000000 1.0
C      1  0.4429190000000  0.4900430000000  0.4446310000000 1.0
C      1  0.4291770000000  0.5214550000000  0.4827890000000 1.0
C      1  0.4691280000000  0.4905020000000  0.5375800000000 1.0
C      1  0.5647700000000  0.4976740000000  0.5195800000000 1.0
C      1  0.5652070000000  0.5394900000000  0.4784840000000 1.0
C      1  0.5212810000000  0.4481570000000  0.5188650000000 1.0
C      1  0.5158070000000  0.5065400000000  0.5272420000000 1.0
C      1  0.4493660000000  0.5133730000000  0.5018910000000 1.0
C      1  0.5489090000000  0.4497630000000  0.5103750000000 1.0
C      1  0.5401880000000  0.5112840000000  0.5120830000000 1.0
C      1  0.5681640000000  0.4689400000000  0.5203460000000 1.0
C      1  0.5148780000000  0.5377760000000  0.4770000000000 1.0
END
