TITL C-862501-1041-713 0.000634736616655111 125000 -154.571917510186 0 0 31 (C3) n - 1
REM
REM in /home/nfs/bkarasulu/CARBON/AIRSS/Generating-Clusters/TERSOFF/Higher-Symm/FIRE-HFTN
REM
REM
REM
REM
REM
REM ./C.cell (b20cbc046b6831c77cfcea5457e17084)
REM AIRSS Version 0.9.1 bugfix July 2018 build 013d7b7c2542+ Fri, 06 Jul 2018 19:26:36 +0100
REM compiler GCC version 9.2.1 20190827 (Red Hat 9.2.1-1)
REM options -cpp -mtune=generic -march=x86-64 -g -O0 -fpre-include=/usr/include/finclude/math-vector-fortran.h
REM seed -950091772 -114626717 551022570 1245177631 1345065654 -2056620526 440931025 1563420143 -443483519 1529210480 -898521011 1949377116 1177656511 477020837 1091621806 1920524449 1946003575 -14980886 -1781117381 1323269112 -1271124380 2008769483 248224240 -1298416111 1255994857 1103009456 -2027177961 -1576788408 1160792981 -958761678 1348277118 -1322098188 -2064133440
REM
CELL 1.54180   50.00000   50.00000   50.00000   90.00000   90.00000   90.00000
LATT -1
SFAC C  
C      1  0.5459350000000  0.4840770000000  0.5159300000000 1.0
C      1  0.4609570000000  0.4840770000000  0.5322060000000 1.0
C      1  0.4893510000000  0.4840770000000  0.4504750000000 1.0
C      1  0.5631640000000  0.5486280000000  0.5164830000000 1.0
C      1  0.4518640000000  0.5486280000000  0.5468510000000 1.0
C      1  0.4812150000000  0.5486280000000  0.4352780000000 1.0
C      1  0.4808230000000  0.5315310000000  0.4659800000000 1.0
C      1  0.5367710000000  0.5315310000000  0.5007920000000 1.0
C      1  0.4786490000000  0.5315310000000  0.5318390000000 1.0
C      1  0.4766870000000  0.4357260000000  0.4819210000000 1.0
C      1  0.5250330000000  0.4357260000000  0.4892400000000 1.0
C      1  0.4945220000000  0.4357260000000  0.5274500000000 1.0
C      1  0.5381500000000  0.4603240000000  0.5308280000000 1.0
C      1  0.4519480000000  0.4603240000000  0.5180160000000 1.0
C      1  0.5061440000000  0.4603240000000  0.4497680000000 1.0
C      1  0.5023650000000  0.5584400000000  0.4619420000000 1.0
C      1  0.5294970000000  0.5584400000000  0.5214680000000 1.0
C      1  0.4643800000000  0.5584400000000  0.5152020000000 1.0
C      1  0.5274000000000  0.5042970000000  0.5056290000000 1.0
C      1  0.4791460000000  0.5042970000000  0.5213050000000 1.0
C      1  0.4896970000000  0.5042970000000  0.4716770000000 1.0
C      1  0.5031500000000  0.4403330000000  0.4705810000000 1.0
C      1  0.5216230000000  0.4403330000000  0.5178280000000 1.0
C      1  0.4714690000000  0.4403330000000  0.5102030000000 1.0
C      1  0.4238050000000  0.4566830000000  0.5117630000000 1.0
C      1  0.5256310000000  0.4566830000000  0.4285220000000 1.0
C      1  0.5468070000000  0.4566830000000  0.5583270000000 1.0
C      1  0.5005950000000  0.5815540000000  0.4794820000000 1.0
C      1  0.5151920000000  0.5815540000000  0.5111650000000 1.0
C      1  0.4804550000000  0.5815540000000  0.5079650000000 1.0
C      1  0.4987480000000  0.4983200000000  0.4995370000000 1.0
END
