TITL C-862129-6180-1421 33.6348687664943 125000 -780.587776534092 0 0 144 (C1) n - 1
REM
REM in /home/nfs/bkarasulu/CARBON/AIRSS/Generating-Clusters/TERSOFF/Higher-Symm/FIRE-HFTN
REM
REM
REM
REM
REM
REM ./C.cell (b20cbc046b6831c77cfcea5457e17084)
REM AIRSS Version 0.9.1 bugfix July 2018 build 013d7b7c2542+ Fri, 06 Jul 2018 19:26:36 +0100
REM compiler GCC version 9.2.1 20190827 (Red Hat 9.2.1-1)
REM options -cpp -mtune=generic -march=x86-64 -g -O0 -fpre-include=/usr/include/finclude/math-vector-fortran.h
REM seed -40737887 1403779724 -55179806 1556567912 1787508899 -51917186 922337444 694736519 -1604636463 1947896305 567562783 -428597114 1880121042 453802938 -177787077 -347708137 1134198882 921423206 -511004818 272994740 -1717051763 -148087344 1697591913 -762784164 1487471399 1273643767 -415517232 1850698888 401396486 -1710536533 1422054827 1513831106 1015188925
REM
CELL 1.54180   50.00000   50.00000   50.00000   90.00000   90.00000   90.00000
LATT -1
SFAC C  
C      1  0.4757000000000  0.4458710000000  0.5964400000000 1.0
C      1  0.5447220000000  0.4508860000000  0.5901550000000 1.0
C      1  0.5907770000000  0.4465560000000  0.5406160000000 1.0
C      1  0.5961830000000  0.4503170000000  0.4717390000000 1.0
C      1  0.5557020000000  0.4454780000000  0.4166140000000 1.0
C      1  0.4914240000000  0.4451070000000  0.4054310000000 1.0
C      1  0.4265770000000  0.4508110000000  0.4296210000000 1.0
C      1  0.3988160000000  0.4482770000000  0.4922280000000 1.0
C      1  0.4206900000000  0.4459770000000  0.5541620000000 1.0
C      1  0.4971500000000  0.4699760000000  0.5880380000000 1.0
C      1  0.5538980000000  0.4699290000000  0.5660120000000 1.0
C      1  0.5864920000000  0.4703730000000  0.5178380000000 1.0
C      1  0.5757720000000  0.4704930000000  0.4576940000000 1.0
C      1  0.5306980000000  0.4670650000000  0.4223700000000 1.0
C      1  0.4729430000000  0.4708400000000  0.4165820000000 1.0
C      1  0.4249890000000  0.4714720000000  0.4544090000000 1.0
C      1  0.4165480000000  0.4694150000000  0.5116700000000 1.0
C      1  0.4422090000000  0.4685960000000  0.5650020000000 1.0
C      1  0.5788250000000  0.5137750000000  0.5498820000000 1.0
C      1  0.5911070000000  0.5174310000000  0.4868800000000 1.0
C      1  0.5604160000000  0.5119170000000  0.4289270000000 1.0
C      1  0.5068600000000  0.5135780000000  0.4061220000000 1.0
C      1  0.4427330000000  0.5170240000000  0.4265840000000 1.0
C      1  0.4091500000000  0.5143710000000  0.4820100000000 1.0
C      1  0.4176780000000  0.5149910000000  0.5437120000000 1.0
C      1  0.4636400000000  0.5128080000000  0.5868820000000 1.0
C      1  0.5290020000000  0.5176390000000  0.5869250000000 1.0
C      1  0.4601280000000  0.4201780000000  0.5532930000000 1.0
C      1  0.5068920000000  0.4196050000000  0.5713640000000 1.0
C      1  0.5476330000000  0.4171250000000  0.5481940000000 1.0
C      1  0.5689350000000  0.4213160000000  0.5058670000000 1.0
C      1  0.5519320000000  0.4252590000000  0.4635190000000 1.0
C      1  0.5134260000000  0.4228070000000  0.4469770000000 1.0
C      1  0.4723210000000  0.4280930000000  0.4402480000000 1.0
C      1  0.4410590000000  0.4274780000000  0.4725050000000 1.0
C      1  0.4458460000000  0.4254870000000  0.5141630000000 1.0
C      1  0.4578590000000  0.6064640000000  0.4920500000000 1.0
C      1  0.4625450000000  0.6110460000000  0.5227100000000 1.0
C      1  0.4858070000000  0.6236790000000  0.5343270000000 1.0
C      1  0.5118140000000  0.6107320000000  0.5360150000000 1.0
C      1  0.5331310000000  0.6211670000000  0.5194120000000 1.0
C      1  0.5388080000000  0.6096010000000  0.4934990000000 1.0
C      1  0.5254750000000  0.6209440000000  0.4703580000000 1.0
C      1  0.5028390000000  0.6080640000000  0.4577810000000 1.0
C      1  0.4734290000000  0.6151690000000  0.4659180000000 1.0
C      1  0.5415110000000  0.5261940000000  0.4942040000000 1.0
C      1  0.5285490000000  0.5182410000000  0.4686040000000 1.0
C      1  0.5014930000000  0.5222280000000  0.4560320000000 1.0
C      1  0.4738170000000  0.5264620000000  0.4658140000000 1.0
C      1  0.4593020000000  0.5200900000000  0.4914000000000 1.0
C      1  0.4619820000000  0.5253570000000  0.5208170000000 1.0
C      1  0.4839540000000  0.5186200000000  0.5397390000000 1.0
C      1  0.5125990000000  0.5266620000000  0.5398180000000 1.0
C      1  0.5351680000000  0.5183830000000  0.5222020000000 1.0
C      1  0.5123320000000  0.5232160000000  0.3792620000000 1.0
C      1  0.4261860000000  0.5265790000000  0.4046730000000 1.0
C      1  0.3824010000000  0.5250460000000  0.4783600000000 1.0
C      1  0.3930670000000  0.5240800000000  0.5562500000000 1.0
C      1  0.4513000000000  0.5238960000000  0.6107070000000 1.0
C      1  0.5382010000000  0.5273150000000  0.6127590000000 1.0
C      1  0.6009390000000  0.5254610000000  0.5646260000000 1.0
C      1  0.6180760000000  0.5274420000000  0.4826070000000 1.0
C      1  0.5748660000000  0.5223900000000  0.4060450000000 1.0
C      1  0.5589520000000  0.5303150000000  0.5373280000000 1.0
C      1  0.5686780000000  0.5364830000000  0.4906470000000 1.0
C      1  0.5477270000000  0.5292360000000  0.4478300000000 1.0
C      1  0.5036950000000  0.5324470000000  0.4283860000000 1.0
C      1  0.4562780000000  0.5361550000000  0.4442690000000 1.0
C      1  0.4317130000000  0.5317280000000  0.4857850000000 1.0
C      1  0.4373800000000  0.5347200000000  0.5337050000000 1.0
C      1  0.4740100000000  0.5298100000000  0.5662450000000 1.0
C      1  0.5214870000000  0.5369710000000  0.5656390000000 1.0
C      1  0.5043920000000  0.4845900000000  0.4114520000000 1.0
C      1  0.4459840000000  0.4880180000000  0.4311420000000 1.0
C      1  0.4140160000000  0.4860260000000  0.4819770000000 1.0
C      1  0.4230810000000  0.4857580000000  0.5409280000000 1.0
C      1  0.4658950000000  0.4844630000000  0.5831460000000 1.0
C      1  0.5271140000000  0.4880780000000  0.5818040000000 1.0
C      1  0.5760720000000  0.4852950000000  0.5473500000000 1.0
C      1  0.5860910000000  0.4879300000000  0.4874590000000 1.0
C      1  0.5581910000000  0.4837500000000  0.4336410000000 1.0
C      1  0.4750770000000  0.5726870000000  0.4181640000000 1.0
C      1  0.4277050000000  0.5720610000000  0.4563400000000 1.0
C      1  0.4160830000000  0.5716140000000  0.5111430000000 1.0
C      1  0.4449020000000  0.5702280000000  0.5652240000000 1.0
C      1  0.4958920000000  0.5712580000000  0.5850640000000 1.0
C      1  0.5529570000000  0.5717990000000  0.5650150000000 1.0
C      1  0.5814970000000  0.5714170000000  0.5193980000000 1.0
C      1  0.5747460000000  0.5706240000000  0.4591750000000 1.0
C      1  0.5342740000000  0.5696480000000  0.4221150000000 1.0
C      1  0.5330140000000  0.4700620000000  0.5405190000000 1.0
C      1  0.5532830000000  0.4730870000000  0.5108220000000 1.0
C      1  0.5467740000000  0.4753290000000  0.4753980000000 1.0
C      1  0.5177320000000  0.4724930000000  0.4542180000000 1.0
C      1  0.4822950000000  0.4778010000000  0.4496090000000 1.0
C      1  0.4542660000000  0.4774780000000  0.4724330000000 1.0
C      1  0.4514870000000  0.4758450000000  0.5085100000000 1.0
C      1  0.4660150000000  0.4721090000000  0.5412850000000 1.0
C      1  0.4996960000000  0.4723640000000  0.5541510000000 1.0
C      1  0.5378580000000  0.4452730000000  0.4800790000000 1.0
C      1  0.5101310000000  0.4425560000000  0.4692080000000 1.0
C      1  0.4823880000000  0.4480200000000  0.4597810000000 1.0
C      1  0.4612790000000  0.4471090000000  0.4795370000000 1.0
C      1  0.4678850000000  0.4456870000000  0.5087030000000 1.0
C      1  0.4763400000000  0.4412770000000  0.5382880000000 1.0
C      1  0.5041260000000  0.4404920000000  0.5480700000000 1.0
C      1  0.5297710000000  0.4378740000000  0.5328570000000 1.0
C      1  0.5459760000000  0.4418130000000  0.5081460000000 1.0
C      1  0.4548950000000  0.4397060000000  0.5775700000000 1.0
C      1  0.5170780000000  0.4431720000000  0.5902150000000 1.0
C      1  0.5675720000000  0.4402950000000  0.5566110000000 1.0
C      1  0.5908380000000  0.4428710000000  0.4988550000000 1.0
C      1  0.5683830000000  0.4394430000000  0.4422800000000 1.0
C      1  0.5149690000000  0.4366500000000  0.4204150000000 1.0
C      1  0.4525730000000  0.4422480000000  0.4208480000000 1.0
C      1  0.4141290000000  0.4408290000000  0.4683970000000 1.0
C      1  0.4216640000000  0.4387190000000  0.5259740000000 1.0
C      1  0.4742980000000  0.3997370000000  0.4526910000000 1.0
C      1  0.4518240000000  0.3983090000000  0.4759800000000 1.0
C      1  0.4541930000000  0.3956520000000  0.5091380000000 1.0
C      1  0.4731070000000  0.3950190000000  0.5373180000000 1.0
C      1  0.5037840000000  0.3980150000000  0.5461880000000 1.0
C      1  0.5315220000000  0.3939860000000  0.5289440000000 1.0
C      1  0.5479510000000  0.3969780000000  0.5005700000000 1.0
C      1  0.5386330000000  0.3971730000000  0.4694440000000 1.0
C      1  0.5074550000000  0.3926900000000  0.4546120000000 1.0
C      1  0.5122200000000  0.5806670000000  0.5400520000000 1.0
C      1  0.5350990000000  0.5689840000000  0.5220330000000 1.0
C      1  0.5418220000000  0.5796650000000  0.4934900000000 1.0
C      1  0.5295180000000  0.5675950000000  0.4677750000000 1.0
C      1  0.5039880000000  0.5771080000000  0.4543020000000 1.0
C      1  0.4722010000000  0.5798060000000  0.4629480000000 1.0
C      1  0.4567840000000  0.5739770000000  0.4912370000000 1.0
C      1  0.4606380000000  0.5792270000000  0.5239000000000 1.0
C      1  0.4834570000000  0.5690300000000  0.5408140000000 1.0
C      1  0.4733080000000  0.5594520000000  0.5685160000000 1.0
C      1  0.5226280000000  0.5680070000000  0.5697070000000 1.0
C      1  0.5604230000000  0.5601310000000  0.5380650000000 1.0
C      1  0.5727870000000  0.5673230000000  0.4899830000000 1.0
C      1  0.5499760000000  0.5588560000000  0.4461010000000 1.0
C      1  0.5037940000000  0.5629970000000  0.4245100000000 1.0
C      1  0.4539490000000  0.5662820000000  0.4401910000000 1.0
C      1  0.4288100000000  0.5614710000000  0.4852140000000 1.0
C      1  0.4332050000000  0.5652990000000  0.5364680000000 1.0
END
