TITL C-862502-1143-759 0.657077662669915 125000 -762.433311972133 0 0 133 (C1) n - 1
REM
REM in /home/nfs/bkarasulu/CARBON/AIRSS/Generating-Clusters/TERSOFF/Higher-Symm/FIRE-HFTN
REM
REM
REM
REM
REM
REM ./C.cell (b20cbc046b6831c77cfcea5457e17084)
REM AIRSS Version 0.9.1 bugfix July 2018 build 013d7b7c2542+ Fri, 06 Jul 2018 19:26:36 +0100
REM compiler GCC version 9.2.1 20190827 (Red Hat 9.2.1-1)
REM options -cpp -mtune=generic -march=x86-64 -g -O0 -fpre-include=/usr/include/finclude/math-vector-fortran.h
REM seed 592893966 -1893865422 582455934 1256993815 1583447455 1229131302 -1775250029 968500557 -1353182726 768171287 97185607 1416065872 1508955916 553011498 1435782604 1293748912 -477801162 -1216927984 1358597182 -1542908538 248351347 -216306261 244396879 -1333802338 -1695870435 -541029612 594157015 663165655 -879360154 1427609979 385632845 720006347 -2116019038
REM
CELL 1.54180   50.00000   50.00000   50.00000   90.00000   90.00000   90.00000
LATT -1
SFAC C  
C      1  0.5174140000000  0.4310500000000  0.4621160000000 1.0
C      1  0.4810480000000  0.5662160000000  0.5349110000000 1.0
C      1  0.5401640000000  0.5525590000000  0.4336680000000 1.0
C      1  0.4594780000000  0.4483350000000  0.5659870000000 1.0
C      1  0.5841920000000  0.4711590000000  0.4430610000000 1.0
C      1  0.4158550000000  0.5298260000000  0.5575660000000 1.0
C      1  0.4417620000000  0.5672810000000  0.4496400000000 1.0
C      1  0.5578240000000  0.4315590000000  0.5492720000000 1.0
C      1  0.4474280000000  0.4340650000000  0.4690790000000 1.0
C      1  0.5512620000000  0.5657330000000  0.5315930000000 1.0
C      1  0.4562240000000  0.5233710000000  0.5902630000000 1.0
C      1  0.5438870000000  0.4767830000000  0.4101700000000 1.0
C      1  0.5546810000000  0.5195820000000  0.5977010000000 1.0
C      1  0.4453430000000  0.4789390000000  0.4033960000000 1.0
C      1  0.4158660000000  0.4499450000000  0.4764050000000 1.0
C      1  0.5820930000000  0.5488980000000  0.5251400000000 1.0
C      1  0.4094300000000  0.5528670000000  0.5126690000000 1.0
C      1  0.5910210000000  0.4475960000000  0.4875240000000 1.0
C      1  0.5043850000000  0.5842020000000  0.5200090000000 1.0
C      1  0.4947430000000  0.4152370000000  0.4801470000000 1.0
C      1  0.4866610000000  0.4924600000000  0.5567640000000 1.0
C      1  0.5127210000000  0.5083150000000  0.4427470000000 1.0
C      1  0.4094550000000  0.4700230000000  0.5243020000000 1.0
C      1  0.5896870000000  0.5303620000000  0.4767710000000 1.0
C      1  0.6128060000000  0.4928450000000  0.5131420000000 1.0
C      1  0.3872440000000  0.5075850000000  0.4874840000000 1.0
C      1  0.4810310000000  0.5050030000000  0.5836920000000 1.0
C      1  0.5188480000000  0.4950190000000  0.4163000000000 1.0
C      1  0.4714320000000  0.5214460000000  0.4036660000000 1.0
C      1  0.5280140000000  0.4778220000000  0.5973560000000 1.0
C      1  0.4955300000000  0.4751090000000  0.4068120000000 1.0
C      1  0.5045030000000  0.5244440000000  0.5940500000000 1.0
C      1  0.5693240000000  0.4196950000000  0.5252010000000 1.0
C      1  0.4300660000000  0.5791880000000  0.4733330000000 1.0
C      1  0.5211790000000  0.4571840000000  0.3965070000000 1.0
C      1  0.4788840000000  0.5423890000000  0.6046850000000 1.0
C      1  0.5523580000000  0.4973380000000  0.4511220000000 1.0
C      1  0.4469340000000  0.5030880000000  0.5484660000000 1.0
C      1  0.4714530000000  0.4688520000000  0.5474860000000 1.0
C      1  0.5283790000000  0.5318040000000  0.4520480000000 1.0
C      1  0.4539580000000  0.4778920000000  0.5041990000000 1.0
C      1  0.5455850000000  0.5224040000000  0.4953450000000 1.0
C      1  0.5284850000000  0.4709950000000  0.5450960000000 1.0
C      1  0.4713310000000  0.5310460000000  0.4563360000000 1.0
C      1  0.4042020000000  0.4611530000000  0.4517280000000 1.0
C      1  0.5941990000000  0.5379550000000  0.5495370000000 1.0
C      1  0.5512320000000  0.5239940000000  0.4049690000000 1.0
C      1  0.4480700000000  0.4765220000000  0.5949310000000 1.0
C      1  0.5645230000000  0.5155700000000  0.4305740000000 1.0
C      1  0.4349150000000  0.4846230000000  0.5690210000000 1.0
C      1  0.4458270000000  0.5225580000000  0.4240640000000 1.0
C      1  0.5546470000000  0.4754870000000  0.5776260000000 1.0
C      1  0.5049280000000  0.5553510000000  0.4264000000000 1.0
C      1  0.4945550000000  0.4454910000000  0.5736280000000 1.0
C      1  0.5169140000000  0.5864270000000  0.4676580000000 1.0
C      1  0.4833700000000  0.4146740000000  0.5324540000000 1.0
C      1  0.4565280000000  0.5753120000000  0.5150060000000 1.0
C      1  0.5418680000000  0.4302190000000  0.4846980000000 1.0
C      1  0.4040050000000  0.5011390000000  0.5139030000000 1.0
C      1  0.5963370000000  0.4992510000000  0.4866340000000 1.0
C      1  0.4289280000000  0.4496680000000  0.5466040000000 1.0
C      1  0.5704770000000  0.5501750000000  0.4535690000000 1.0
C      1  0.4716580000000  0.5403930000000  0.4972690000000 1.0
C      1  0.5266430000000  0.4643400000000  0.5037580000000 1.0
C      1  0.4770600000000  0.4816250000000  0.6014670000000 1.0
C      1  0.5223440000000  0.5185430000000  0.3985050000000 1.0
C      1  0.4815050000000  0.4613670000000  0.4287790000000 1.0
C      1  0.5185400000000  0.5386280000000  0.5725600000000 1.0
C      1  0.4320000000000  0.5680070000000  0.5003300000000 1.0
C      1  0.5682980000000  0.4317870000000  0.4984490000000 1.0
C      1  0.4693480000000  0.4600320000000  0.5200330000000 1.0
C      1  0.5309190000000  0.5404790000000  0.4793100000000 1.0
C      1  0.4639810000000  0.4297910000000  0.5166030000000 1.0
C      1  0.5357260000000  0.5706480000000  0.4835490000000 1.0
C      1  0.5139730000000  0.5400260000000  0.5234870000000 1.0
C      1  0.4845330000000  0.4647520000000  0.4785790000000 1.0
C      1  0.5549080000000  0.5308910000000  0.5215330000000 1.0
C      1  0.4427590000000  0.4686530000000  0.4788140000000 1.0
C      1  0.5524760000000  0.4734220000000  0.4960100000000 1.0
C      1  0.4471750000000  0.5271800000000  0.5035560000000 1.0
C      1  0.3823270000000  0.5550810000000  0.5019520000000 1.0
C      1  0.6178900000000  0.4453350000000  0.4987650000000 1.0
C      1  0.5698980000000  0.4540520000000  0.5626650000000 1.0
C      1  0.4300090000000  0.5445230000000  0.4367620000000 1.0
C      1  0.5129650000000  0.4962930000000  0.5466540000000 1.0
C      1  0.4856720000000  0.5054380000000  0.4517470000000 1.0
C      1  0.6304810000000  0.4695410000000  0.5082240000000 1.0
C      1  0.3697120000000  0.5309290000000  0.4924640000000 1.0
C      1  0.4018000000000  0.4511420000000  0.5021420000000 1.0
C      1  0.5964550000000  0.5488480000000  0.4995260000000 1.0
C      1  0.5033510000000  0.4784680000000  0.4950320000000 1.0
C      1  0.4977190000000  0.5294680000000  0.5025200000000 1.0
C      1  0.5604120000000  0.4610800000000  0.4292550000000 1.0
C      1  0.4397500000000  0.5395090000000  0.5715400000000 1.0
C      1  0.4484200000000  0.5678390000000  0.5731290000000 1.0
C      1  0.5517990000000  0.4327080000000  0.4284920000000 1.0
C      1  0.4810130000000  0.5861160000000  0.4979490000000 1.0
C      1  0.5184500000000  0.4177290000000  0.5019020000000 1.0
C      1  0.4097950000000  0.4882010000000  0.4434080000000 1.0
C      1  0.5897840000000  0.5106560000000  0.5576950000000 1.0
C      1  0.4133310000000  0.5274810000000  0.5284130000000 1.0
C      1  0.5870340000000  0.4731020000000  0.4721530000000 1.0
C      1  0.5216820000000  0.5248920000000  0.5467890000000 1.0
C      1  0.4762770000000  0.4768680000000  0.4535520000000 1.0
C      1  0.3993390000000  0.5103220000000  0.4593560000000 1.0
C      1  0.6001560000000  0.4890970000000  0.5409170000000 1.0
C      1  0.4884300000000  0.5806310000000  0.4686800000000 1.0
C      1  0.5115190000000  0.4218210000000  0.5312750000000 1.0
C      1  0.5688720000000  0.5024040000000  0.5783930000000 1.0
C      1  0.4319150000000  0.4956820000000  0.4236560000000 1.0
C      1  0.5152060000000  0.4445600000000  0.5513130000000 1.0
C      1  0.4844820000000  0.5572520000000  0.4491430000000 1.0
C      1  0.5486970000000  0.5751710000000  0.5587700000000 1.0
C      1  0.4503020000000  0.4254270000000  0.4418100000000 1.0
C      1  0.5276470000000  0.5082010000000  0.6055850000000 1.0
C      1  0.4721390000000  0.4909560000000  0.3951090000000 1.0
C      1  0.5628130000000  0.5724210000000  0.4723230000000 1.0
C      1  0.4370780000000  0.4276480000000  0.5280280000000 1.0
C      1  0.5007110000000  0.4637730000000  0.5958040000000 1.0
C      1  0.4985820000000  0.5360940000000  0.4047790000000 1.0
C      1  0.4704840000000  0.4349830000000  0.4242540000000 1.0
C      1  0.5302770000000  0.5645520000000  0.5776970000000 1.0
C      1  0.5954340000000  0.4625440000000  0.5514000000000 1.0
C      1  0.4041920000000  0.5364530000000  0.4478100000000 1.0
C      1  0.5233980000000  0.5794290000000  0.6016820000000 1.0
C      1  0.4799030000000  0.4186180000000  0.4021750000000 1.0
C      1  0.4710150000000  0.5692700000000  0.5925110000000 1.0
C      1  0.5291480000000  0.4306560000000  0.4092670000000 1.0
C      1  0.5547160000000  0.4982780000000  0.4814000000000 1.0
C      1  0.4457470000000  0.5022660000000  0.5180930000000 1.0
C      1  0.5317680000000  0.5762940000000  0.5120050000000 1.0
C      1  0.4672620000000  0.4234500000000  0.4883100000000 1.0
C      1  0.5074040000000  0.5066930000000  0.4876510000000 1.0
END
