TITL C-862501-1041-464 -0.00188821588776752 125000 -1019.55081801124 0 0 192 (D3) n - 1
REM
REM in /home/nfs/bkarasulu/CARBON/AIRSS/Generating-Clusters/TERSOFF/Higher-Symm/FIRE-HFTN
REM
REM
REM
REM
REM
REM ./C.cell (b20cbc046b6831c77cfcea5457e17084)
REM AIRSS Version 0.9.1 bugfix July 2018 build 013d7b7c2542+ Fri, 06 Jul 2018 19:26:36 +0100
REM compiler GCC version 9.2.1 20190827 (Red Hat 9.2.1-1)
REM options -cpp -mtune=generic -march=x86-64 -g -O0 -fpre-include=/usr/include/finclude/math-vector-fortran.h
REM seed 311389140 -1303014585 1868825702 -1935481356 927148878 1729887953 726272071 1560546387 -153652743 -1300452570 -1853392678 -94857052 -894438736 -481196216 -189321494 -1620437082 71142907 -1353415299 51222200 345586972 669624286 -1102109087 1294522301 -1533511493 1005356031 -1871682080 343702909 323595532 -1063530471 271702395 -1685234302 -687055569 1356467285
REM
CELL 1.54180   50.00000   50.00000   50.00000   90.00000   90.00000   90.00000
LATT -1
SFAC C  
C      1  0.4508980000000  0.4666560000000  0.4835950000000 1.0
C      1  0.5534280000000  0.4741480000000  0.4835960000000 1.0
C      1  0.4956750000000  0.5591960000000  0.4835950000000 1.0
C      1  0.5491020000000  0.4666560000000  0.5164050000000 1.0
C      1  0.4465720000000  0.4741480000000  0.5164040000000 1.0
C      1  0.5043250000000  0.5591960000000  0.5164050000000 1.0
C      1  0.5141880000000  0.4446950000000  0.5245020000000 1.0
C      1  0.5408010000000  0.5399400000000  0.5245030000000 1.0
C      1  0.4450100000000  0.5153650000000  0.5245010000000 1.0
C      1  0.4858120000000  0.4446950000000  0.4754980000000 1.0
C      1  0.4591990000000  0.5399400000000  0.4754970000000 1.0
C      1  0.5549900000000  0.5153650000000  0.4754990000000 1.0
C      1  0.4815810000000  0.5095400000000  0.5975040000000 1.0
C      1  0.5009450000000  0.4792800000000  0.5975040000000 1.0
C      1  0.5174690000000  0.5111800000000  0.5975040000000 1.0
C      1  0.5184190000000  0.5095400000000  0.4024960000000 1.0
C      1  0.4990550000000  0.4792800000000  0.4024960000000 1.0
C      1  0.4825310000000  0.5111800000000  0.4024960000000 1.0
C      1  0.4100550000000  0.4707660000000  0.5472400000000 1.0
C      1  0.5702890000000  0.4367230000000  0.5472430000000 1.0
C      1  0.5196540000000  0.5925110000000  0.5472420000000 1.0
C      1  0.5899450000000  0.4707660000000  0.4527600000000 1.0
C      1  0.4297110000000  0.4367230000000  0.4527570000000 1.0
C      1  0.4803460000000  0.5925110000000  0.4527580000000 1.0
C      1  0.4740750000000  0.5648600000000  0.5983970000000 1.0
C      1  0.4567900000000  0.4451190000000  0.5983970000000 1.0
C      1  0.5691310000000  0.4900210000000  0.5983980000000 1.0
C      1  0.5259250000000  0.5648600000000  0.4016030000000 1.0
C      1  0.5432100000000  0.4451190000000  0.4016030000000 1.0
C      1  0.4308690000000  0.4900210000000  0.4016020000000 1.0
C      1  0.3986840000000  0.5045530000000  0.5214900000000 1.0
C      1  0.5467140000000  0.4099820000000  0.5214920000000 1.0
C      1  0.5546010000000  0.5854650000000  0.5214920000000 1.0
C      1  0.6013160000000  0.5045530000000  0.4785100000000 1.0
C      1  0.4532860000000  0.4099820000000  0.4785080000000 1.0
C      1  0.4453990000000  0.5854650000000  0.4785080000000 1.0
C      1  0.5777470000000  0.5628180000000  0.5528050000000 1.0
C      1  0.4067230000000  0.5359230000000  0.5528030000000 1.0
C      1  0.5155270000000  0.4012590000000  0.5528040000000 1.0
C      1  0.4222530000000  0.5628180000000  0.4471950000000 1.0
C      1  0.5932770000000  0.5359230000000  0.4471970000000 1.0
C      1  0.4844730000000  0.4012590000000  0.4471960000000 1.0
C      1  0.4246910000000  0.4383050000000  0.5721910000000 1.0
C      1  0.5910820000000  0.4656290000000  0.5721930000000 1.0
C      1  0.4842240000000  0.5960660000000  0.5721910000000 1.0
C      1  0.5753090000000  0.4383050000000  0.4278090000000 1.0
C      1  0.4089180000000  0.4656290000000  0.4278070000000 1.0
C      1  0.5157760000000  0.5960660000000  0.4278090000000 1.0
C      1  0.5097400000000  0.5661530000000  0.5574560000000 1.0
C      1  0.4378390000000  0.4753590000000  0.5574550000000 1.0
C      1  0.5524190000000  0.4584880000000  0.5574570000000 1.0
C      1  0.4902600000000  0.5661530000000  0.4425440000000 1.0
C      1  0.5621610000000  0.4753590000000  0.4425450000000 1.0
C      1  0.4475810000000  0.4584880000000  0.4425430000000 1.0
C      1  0.4332200000000  0.5204560000000  0.5889690000000 1.0
C      1  0.5156720000000  0.4319400000000  0.5889700000000 1.0
C      1  0.5511030000000  0.5476040000000  0.5889700000000 1.0
C      1  0.5667800000000  0.5204560000000  0.4110310000000 1.0
C      1  0.4843280000000  0.4319400000000  0.4110300000000 1.0
C      1  0.4488970000000  0.5476040000000  0.4110300000000 1.0
C      1  0.5588250000000  0.4844060000000  0.5447530000000 1.0
C      1  0.4840920000000  0.5587420000000  0.5447510000000 1.0
C      1  0.4570810000000  0.4568520000000  0.5447510000000 1.0
C      1  0.4411750000000  0.4844060000000  0.4552470000000 1.0
C      1  0.5159080000000  0.5587420000000  0.4552490000000 1.0
C      1  0.5429190000000  0.4568520000000  0.4552490000000 1.0
C      1  0.4298870000000  0.4657580000000  0.5882660000000 1.0
C      1  0.5647090000000  0.4564020000000  0.5882680000000 1.0
C      1  0.5054000000000  0.5778390000000  0.5882670000000 1.0
C      1  0.5701130000000  0.4657580000000  0.4117340000000 1.0
C      1  0.4352920000000  0.4564020000000  0.4117320000000 1.0
C      1  0.4946000000000  0.5778390000000  0.4117330000000 1.0
C      1  0.6051960000000  0.4976580000000  0.5336320000000 1.0
C      1  0.4494290000000  0.5922740000000  0.5336300000000 1.0
C      1  0.4453730000000  0.4100680000000  0.5336300000000 1.0
C      1  0.3948040000000  0.4976580000000  0.4663680000000 1.0
C      1  0.5505710000000  0.5922740000000  0.4663700000000 1.0
C      1  0.5546270000000  0.4100680000000  0.4663700000000 1.0
C      1  0.4862160000000  0.5124550000000  0.5316040000000 1.0
C      1  0.4961050000000  0.4818360000000  0.5316050000000 1.0
C      1  0.5176770000000  0.5057100000000  0.5316050000000 1.0
C      1  0.5137840000000  0.5124550000000  0.4683960000000 1.0
C      1  0.5038950000000  0.4818360000000  0.4683950000000 1.0
C      1  0.4823230000000  0.5057100000000  0.4683950000000 1.0
C      1  0.5869390000000  0.4908040000000  0.5557070000000 1.0
C      1  0.4644930000000  0.5798900000000  0.5557050000000 1.0
C      1  0.4485660000000  0.4293060000000  0.5557050000000 1.0
C      1  0.4130610000000  0.4908040000000  0.4442930000000 1.0
C      1  0.5355070000000  0.5798900000000  0.4442950000000 1.0
C      1  0.5514340000000  0.4293060000000  0.4442950000000 1.0
C      1  0.5260550000000  0.6032360000000  0.4810590000000 1.0
C      1  0.3975680000000  0.4709460000000  0.4810570000000 1.0
C      1  0.5763780000000  0.4258180000000  0.4810600000000 1.0
C      1  0.4739450000000  0.6032360000000  0.5189410000000 1.0
C      1  0.6024320000000  0.4709460000000  0.5189430000000 1.0
C      1  0.4236220000000  0.4258180000000  0.5189400000000 1.0
C      1  0.5602540000000  0.5586700000000  0.5079800000000 1.0
C      1  0.4190630000000  0.5228470000000  0.5079780000000 1.0
C      1  0.5206830000000  0.4184830000000  0.5079790000000 1.0
C      1  0.4397460000000  0.5586700000000  0.4920200000000 1.0
C      1  0.5809370000000  0.5228470000000  0.4920220000000 1.0
C      1  0.4793170000000  0.4184830000000  0.4920210000000 1.0
C      1  0.5302460000000  0.4241090000000  0.4231830000000 1.0
C      1  0.5506030000000  0.5641380000000  0.4231840000000 1.0
C      1  0.4191550000000  0.5117530000000  0.4231820000000 1.0
C      1  0.4697540000000  0.4241090000000  0.5768170000000 1.0
C      1  0.4493970000000  0.5641380000000  0.5768160000000 1.0
C      1  0.5808450000000  0.5117530000000  0.5768180000000 1.0
C      1  0.5630990000000  0.5466650000000  0.4463250000000 1.0
C      1  0.4280380000000  0.5313120000000  0.4463230000000 1.0
C      1  0.5088650000000  0.4220230000000  0.4463240000000 1.0
C      1  0.4369010000000  0.5466650000000  0.5536750000000 1.0
C      1  0.5719620000000  0.5313120000000  0.5536770000000 1.0
C      1  0.4911350000000  0.4220230000000  0.5536760000000 1.0
C      1  0.5856900000000  0.4979730000000  0.4162300000000 1.0
C      1  0.4589120000000  0.5752220000000  0.4162280000000 1.0
C      1  0.4554010000000  0.4268050000000  0.4162280000000 1.0
C      1  0.4143100000000  0.4979730000000  0.5837700000000 1.0
C      1  0.5410880000000  0.5752220000000  0.5837720000000 1.0
C      1  0.5445990000000  0.4268050000000  0.5837720000000 1.0
C      1  0.4639780000000  0.5229610000000  0.4241730000000 1.0
C      1  0.4981270000000  0.4573230000000  0.4241740000000 1.0
C      1  0.5378980000000  0.5197160000000  0.4241740000000 1.0
C      1  0.5360220000000  0.5229610000000  0.5758270000000 1.0
C      1  0.5018730000000  0.4573230000000  0.5758260000000 1.0
C      1  0.4621020000000  0.5197160000000  0.5758260000000 1.0
C      1  0.4685520000000  0.3915550000000  0.5222990000000 1.0
C      1  0.6096390000000  0.5269880000000  0.5223010000000 1.0
C      1  0.4218080000000  0.5814560000000  0.5222980000000 1.0
C      1  0.5314480000000  0.3915550000000  0.4777010000000 1.0
C      1  0.3903610000000  0.5269880000000  0.4776990000000 1.0
C      1  0.5781920000000  0.5814560000000  0.4777020000000 1.0
C      1  0.5243040000000  0.4512510000000  0.5527110000000 1.0
C      1  0.5300650000000  0.5454230000000  0.5527110000000 1.0
C      1  0.4456290000000  0.5033260000000  0.5527100000000 1.0
C      1  0.4756960000000  0.4512510000000  0.4472890000000 1.0
C      1  0.4699350000000  0.5454230000000  0.4472890000000 1.0
C      1  0.5543710000000  0.5033260000000  0.4472900000000 1.0
C      1  0.4308860000000  0.4417220000000  0.4944050000000 1.0
C      1  0.5850280000000  0.4692840000000  0.4944070000000 1.0
C      1  0.4840870000000  0.5889940000000  0.4944060000000 1.0
C      1  0.5691140000000  0.4417220000000  0.5055950000000 1.0
C      1  0.4149720000000  0.4692840000000  0.5055930000000 1.0
C      1  0.5159130000000  0.5889940000000  0.5055940000000 1.0
C      1  0.4038650000000  0.4424930000000  0.5359630000000 1.0
C      1  0.5978690000000  0.4454980000000  0.5359660000000 1.0
C      1  0.4982650000000  0.6120090000000  0.5359650000000 1.0
C      1  0.5961350000000  0.4424930000000  0.4640370000000 1.0
C      1  0.4021310000000  0.4454980000000  0.4640340000000 1.0
C      1  0.5017350000000  0.6120090000000  0.4640350000000 1.0
C      1  0.5064510000000  0.4671630000000  0.3765860000000 1.0
C      1  0.5252150000000  0.5220040000000  0.3765860000000 1.0
C      1  0.4683390000000  0.5108330000000  0.3765850000000 1.0
C      1  0.4935490000000  0.4671630000000  0.6234140000000 1.0
C      1  0.4747850000000  0.5220040000000  0.6234140000000 1.0
C      1  0.5316610000000  0.5108330000000  0.6234150000000 1.0
C      1  0.5502510000000  0.4098100000000  0.5537540000000 1.0
C      1  0.5529800000000  0.5886150000000  0.5537540000000 1.0
C      1  0.3967660000000  0.5015750000000  0.5537510000000 1.0
C      1  0.4497490000000  0.4098100000000  0.4462460000000 1.0
C      1  0.4470200000000  0.5886150000000  0.4462460000000 1.0
C      1  0.6032340000000  0.5015750000000  0.4462490000000 1.0
C      1  0.4705290000000  0.4504250000000  0.6233320000000 1.0
C      1  0.5576660000000  0.4992660000000  0.6233330000000 1.0
C      1  0.4718000000000  0.5503080000000  0.6233320000000 1.0
C      1  0.5294710000000  0.4504250000000  0.3766680000000 1.0
C      1  0.4423340000000  0.4992660000000  0.3766670000000 1.0
C      1  0.5282000000000  0.5503080000000  0.3766680000000 1.0
C      1  0.4772070000000  0.5309200000000  0.5508160000000 1.0
C      1  0.4846180000000  0.4648010000000  0.5508160000000 1.0
C      1  0.5381730000000  0.5042790000000  0.5508170000000 1.0
C      1  0.5227930000000  0.5309200000000  0.4491840000000 1.0
C      1  0.5153820000000  0.4648010000000  0.4491840000000 1.0
C      1  0.4618270000000  0.5042790000000  0.4491830000000 1.0
C      1  0.5166980000000  0.5278370000000  0.5072980000000 1.0
C      1  0.4675440000000  0.5005430000000  0.5072970000000 1.0
C      1  0.5157580000000  0.4716210000000  0.5072980000000 1.0
C      1  0.4833020000000  0.5278370000000  0.4927020000000 1.0
C      1  0.5324560000000  0.5005430000000  0.4927030000000 1.0
C      1  0.4842420000000  0.4716210000000  0.4927020000000 1.0
C      1  0.5157550000000  0.4328160000000  0.4763560000000 1.0
C      1  0.5503060000000  0.5472360000000  0.4763560000000 1.0
C      1  0.4339400000000  0.5199480000000  0.4763550000000 1.0
C      1  0.4842450000000  0.4328160000000  0.5236440000000 1.0
C      1  0.4496940000000  0.5472360000000  0.5236440000000 1.0
C      1  0.5660600000000  0.5199480000000  0.5236450000000 1.0
C      1  0.5913110000000  0.5533990000000  0.5236720000000 1.0
C      1  0.4080990000000  0.5523780000000  0.5236690000000 1.0
C      1  0.5005890000000  0.3942230000000  0.5236700000000 1.0
C      1  0.4086890000000  0.5533990000000  0.4763280000000 1.0
C      1  0.5919010000000  0.5523780000000  0.4763310000000 1.0
C      1  0.4994110000000  0.3942230000000  0.4763300000000 1.0
END
