TITL C-862506-1665-795 -0.00484831165521008 125000 -106.606314255372 0 0 21 (C1) n - 1
REM
REM in /home/nfs/bkarasulu/CARBON/AIRSS/Generating-Clusters/TERSOFF/Higher-Symm/FIRE-HFTN
REM
REM
REM
REM
REM
REM ./C.cell (b20cbc046b6831c77cfcea5457e17084)
REM AIRSS Version 0.9.1 bugfix July 2018 build 013d7b7c2542+ Fri, 06 Jul 2018 19:26:36 +0100
REM compiler GCC version 9.2.1 20190827 (Red Hat 9.2.1-1)
REM options -cpp -mtune=generic -march=x86-64 -g -O0 -fpre-include=/usr/include/finclude/math-vector-fortran.h
REM seed -2144637096 -866331819 -387625359 -1263245692 -2530155 -2122657144 -1336450064 -394912715 -949319444 117946209 1486367941 1920640185 -777604303 -1739965618 1812838321 -1400859021 -779143666 268045548 -1564127164 2074586871 617345167 1843203238 -875687067 -2042922827 596763075 556452733 -1718964138 -1977867030 -641708467 -641686615 959498626 -1216181811 -194290664
REM
CELL 1.54180   50.00000   50.00000   50.00000   90.00000   90.00000   90.00000
LATT -1
SFAC C  
C      1  0.5020090000000  0.4630520000000  0.4649110000000 1.0
C      1  0.5080030000000  0.5338120000000  0.4673590000000 1.0
C      1  0.5234930000000  0.4615090000000  0.5393550000000 1.0
C      1  0.5181740000000  0.5390880000000  0.5443800000000 1.0
C      1  0.4875110000000  0.4842520000000  0.5095880000000 1.0
C      1  0.4875490000000  0.5147690000000  0.5102240000000 1.0
C      1  0.5115260000000  0.4849540000000  0.4461250000000 1.0
C      1  0.5232370000000  0.5106770000000  0.4545880000000 1.0
C      1  0.4784370000000  0.4760130000000  0.4807020000000 1.0
C      1  0.4816910000000  0.5232360000000  0.4809300000000 1.0
C      1  0.5033860000000  0.5565010000000  0.4489960000000 1.0
C      1  0.4945260000000  0.4381210000000  0.4508650000000 1.0
C      1  0.5129480000000  0.4695220000000  0.5136180000000 1.0
C      1  0.5118720000000  0.5300170000000  0.5176260000000 1.0
C      1  0.5008500000000  0.5554940000000  0.5607650000000 1.0
C      1  0.5084340000000  0.4475410000000  0.5597490000000 1.0
C      1  0.4719330000000  0.5542280000000  0.5606330000000 1.0
C      1  0.4795930000000  0.4451570000000  0.5602590000000 1.0
C      1  0.5213620000000  0.4584010000000  0.4879790000000 1.0
C      1  0.5228800000000  0.5414960000000  0.4930940000000 1.0
C      1  0.4678330000000  0.5006030000000  0.4681850000000 1.0
END
