TITL C-862131-2149-59 16.6639221370311 125000 -487.75076507269 0 0 89 (C1) n - 1
REM
REM in /home/nfs/bkarasulu/CARBON/AIRSS/Generating-Clusters/TERSOFF/Higher-Symm/FIRE-HFTN
REM
REM
REM
REM
REM
REM ./C.cell (b20cbc046b6831c77cfcea5457e17084)
REM AIRSS Version 0.9.1 bugfix July 2018 build 013d7b7c2542+ Fri, 06 Jul 2018 19:26:36 +0100
REM compiler GCC version 9.2.1 20190827 (Red Hat 9.2.1-1)
REM options -cpp -mtune=generic -march=x86-64 -g -O0 -fpre-include=/usr/include/finclude/math-vector-fortran.h
REM seed 243201690 -144373148 1714846531 1049533307 -549101385 -482200108 -1215464606 -2081997282 881497689 -2023644029 1904083801 1700557403 -1111875594 750851553 -1778613875 475138948 -1420746883 -1960586055 -1281593705 583817733 1114325309 -1846041756 -401432506 -1354117615 -195478716 -1535869777 -1323260401 -958596607 1725955061 880639056 -776958360 -565286970 -613411259
REM
CELL 1.54180   50.00000   50.00000   50.00000   90.00000   90.00000   90.00000
LATT -1
SFAC C  
C      1  0.5355430000000  0.5476950000000  0.4845480000000 1.0
C      1  0.5315490000000  0.4519490000000  0.5160110000000 1.0
C      1  0.5532470000000  0.4687880000000  0.5012520000000 1.0
C      1  0.5586100000000  0.5324800000000  0.4991210000000 1.0
C      1  0.4652580000000  0.4502510000000  0.5408180000000 1.0
C      1  0.4663890000000  0.5476660000000  0.4613190000000 1.0
C      1  0.5316130000000  0.5603020000000  0.5164120000000 1.0
C      1  0.5285190000000  0.4396070000000  0.4839220000000 1.0
C      1  0.4832680000000  0.5698180000000  0.5324650000000 1.0
C      1  0.4818530000000  0.4300370000000  0.4698440000000 1.0
C      1  0.4892680000000  0.4568930000000  0.4260820000000 1.0
C      1  0.4889480000000  0.5416040000000  0.5755990000000 1.0
C      1  0.5588280000000  0.5802210000000  0.5146290000000 1.0
C      1  0.5573330000000  0.4226480000000  0.4836510000000 1.0
C      1  0.5019570000000  0.5242420000000  0.4373400000000 1.0
C      1  0.5002140000000  0.4741790000000  0.5629940000000 1.0
C      1  0.4592580000000  0.4790080000000  0.5411220000000 1.0
C      1  0.4612410000000  0.5189750000000  0.4618430000000 1.0
C      1  0.5283390000000  0.4618780000000  0.4616330000000 1.0
C      1  0.5413040000000  0.5403910000000  0.5414580000000 1.0
C      1  0.5057160000000  0.4907260000000  0.4820880000000 1.0
C      1  0.5089840000000  0.5237350000000  0.5204490000000 1.0
C      1  0.5451360000000  0.4842590000000  0.4448080000000 1.0
C      1  0.5452210000000  0.5130380000000  0.5577590000000 1.0
C      1  0.4659110000000  0.5637570000000  0.4860170000000 1.0
C      1  0.4665800000000  0.4354740000000  0.5154830000000 1.0
C      1  0.5305410000000  0.4870680000000  0.4186320000000 1.0
C      1  0.5290690000000  0.5101570000000  0.5822380000000 1.0
C      1  0.5371380000000  0.4338710000000  0.5534890000000 1.0
C      1  0.5377350000000  0.5644980000000  0.4461500000000 1.0
C      1  0.5514760000000  0.4238230000000  0.5153180000000 1.0
C      1  0.5515980000000  0.5773610000000  0.4836500000000 1.0
C      1  0.4267280000000  0.5088670000000  0.4264960000000 1.0
C      1  0.4252950000000  0.4870370000000  0.5762280000000 1.0
C      1  0.5571860000000  0.5129780000000  0.4528500000000 1.0
C      1  0.5564880000000  0.4851800000000  0.5484750000000 1.0
C      1  0.5949440000000  0.4918490000000  0.5138410000000 1.0
C      1  0.5961320000000  0.5030370000000  0.4870480000000 1.0
C      1  0.4364600000000  0.5709380000000  0.4931670000000 1.0
C      1  0.4382020000000  0.4277830000000  0.5061050000000 1.0
C      1  0.4868390000000  0.4717220000000  0.4708330000000 1.0
C      1  0.4806410000000  0.5279520000000  0.5322750000000 1.0
C      1  0.5054960000000  0.5749220000000  0.5132200000000 1.0
C      1  0.5042460000000  0.4228900000000  0.4880810000000 1.0
C      1  0.5728290000000  0.5523170000000  0.5160750000000 1.0
C      1  0.5687050000000  0.4515850000000  0.4823650000000 1.0
C      1  0.5730470000000  0.5181110000000  0.4779220000000 1.0
C      1  0.5695500000000  0.4807620000000  0.5224000000000 1.0
C      1  0.4737690000000  0.4916450000000  0.5646000000000 1.0
C      1  0.4754910000000  0.5065020000000  0.4379980000000 1.0
C      1  0.5092420000000  0.5699030000000  0.4564410000000 1.0
C      1  0.5084050000000  0.4283550000000  0.5450500000000 1.0
C      1  0.4240000000000  0.5055210000000  0.5529180000000 1.0
C      1  0.4257300000000  0.4917490000000  0.4507760000000 1.0
C      1  0.4362160000000  0.4932580000000  0.5255330000000 1.0
C      1  0.4381870000000  0.5053170000000  0.4769780000000 1.0
C      1  0.4672530000000  0.4559580000000  0.4889860000000 1.0
C      1  0.4623340000000  0.5459740000000  0.5153110000000 1.0
C      1  0.4942260000000  0.4201710000000  0.5165340000000 1.0
C      1  0.4945500000000  0.5775660000000  0.4852750000000 1.0
C      1  0.4201140000000  0.5485810000000  0.5033130000000 1.0
C      1  0.4226680000000  0.4506360000000  0.4956080000000 1.0
C      1  0.5697170000000  0.5861860000000  0.4625970000000 1.0
C      1  0.5710410000000  0.4167160000000  0.5355930000000 1.0
C      1  0.4456440000000  0.4700070000000  0.4455810000000 1.0
C      1  0.4429050000000  0.5275500000000  0.5600220000000 1.0
C      1  0.4540820000000  0.5136790000000  0.4175430000000 1.0
C      1  0.4528470000000  0.4828280000000  0.5850350000000 1.0
C      1  0.4889990000000  0.4458610000000  0.5585620000000 1.0
C      1  0.4898330000000  0.5521770000000  0.4433330000000 1.0
C      1  0.4754540000000  0.4763810000000  0.4435590000000 1.0
C      1  0.4728500000000  0.5219810000000  0.5600590000000 1.0
C      1  0.5132510000000  0.4645170000000  0.4112040000000 1.0
C      1  0.5123290000000  0.5325900000000  0.5904320000000 1.0
C      1  0.3919470000000  0.5507600000000  0.5096630000000 1.0
C      1  0.3951690000000  0.4489160000000  0.4867200000000 1.0
C      1  0.4396110000000  0.4768800000000  0.4952980000000 1.0
C      1  0.4367840000000  0.5220880000000  0.5064500000000 1.0
C      1  0.4885760000000  0.5674130000000  0.5614390000000 1.0
C      1  0.4864400000000  0.4314310000000  0.4405950000000 1.0
C      1  0.5180780000000  0.4833170000000  0.5843280000000 1.0
C      1  0.5193130000000  0.5139770000000  0.4156750000000 1.0
C      1  0.5143810000000  0.4738170000000  0.5336140000000 1.0
C      1  0.5195570000000  0.5270520000000  0.4650710000000 1.0
C      1  0.5373510000000  0.5135690000000  0.5094480000000 1.0
C      1  0.5350600000000  0.4903870000000  0.4916500000000 1.0
C      1  0.5473890000000  0.4604850000000  0.5643750000000 1.0
C      1  0.5481500000000  0.5373960000000  0.4361110000000 1.0
C      1  0.4944970000000  0.5129670000000  0.4956070000000 1.0
END
