TITL C-862132-7359-482 0.0804214910319224 125000 -832.559856119311 0 0 146 (C1) n - 1
REM
REM in /home/nfs/bkarasulu/CARBON/AIRSS/Generating-Clusters/TERSOFF/Higher-Symm/FIRE-HFTN
REM
REM
REM
REM
REM
REM ./C.cell (b20cbc046b6831c77cfcea5457e17084)
REM AIRSS Version 0.9.1 bugfix July 2018 build 013d7b7c2542+ Fri, 06 Jul 2018 19:26:36 +0100
REM compiler GCC version 9.2.1 20190827 (Red Hat 9.2.1-1)
REM options -cpp -mtune=generic -march=x86-64 -g -O0 -fpre-include=/usr/include/finclude/math-vector-fortran.h
REM seed 108715766 -1300565980 -1221901202 91968197 1096229571 1406365725 -85232782 1117305935 -804222159 -1369926140 -1152501051 -822089947 774437833 -280278913 1217294268 -1123998086 262870273 1895280703 781721657 678500501 -1774945512 -1502126088 -1243264687 -268601034 1278957172 97345184 1651635478 588840568 857470658 68300316 1683658851 2002378726 -47320688
REM
CELL 1.54180   50.00000   50.00000   50.00000   90.00000   90.00000   90.00000
LATT -1
SFAC C  
C      1  0.5293100000000  0.4183370000000  0.4518560000000 1.0
C      1  0.4705620000000  0.4184520000000  0.4518850000000 1.0
C      1  0.4894930000000  0.5177460000000  0.5327770000000 1.0
C      1  0.5140190000000  0.5322800000000  0.5308210000000 1.0
C      1  0.4686490000000  0.3936950000000  0.5219210000000 1.0
C      1  0.5314030000000  0.3943560000000  0.5220160000000 1.0
C      1  0.5166350000000  0.5645940000000  0.4937840000000 1.0
C      1  0.4839670000000  0.5636630000000  0.4951690000000 1.0
C      1  0.5597820000000  0.4552260000000  0.5273760000000 1.0
C      1  0.4381170000000  0.4540500000000  0.5276180000000 1.0
C      1  0.5695160000000  0.4514120000000  0.5587310000000 1.0
C      1  0.4285340000000  0.4509110000000  0.5598380000000 1.0
C      1  0.5569580000000  0.5202160000000  0.5868050000000 1.0
C      1  0.4434110000000  0.5195680000000  0.5867310000000 1.0
C      1  0.4855710000000  0.4200950000000  0.4268870000000 1.0
C      1  0.5142770000000  0.4199590000000  0.4268710000000 1.0
C      1  0.3899470000000  0.4868620000000  0.5480220000000 1.0
C      1  0.6087980000000  0.4868030000000  0.5492520000000 1.0
C      1  0.4767050000000  0.5557890000000  0.4086410000000 1.0
C      1  0.5237290000000  0.5553760000000  0.4074710000000 1.0
C      1  0.4854610000000  0.5170330000000  0.4662850000000 1.0
C      1  0.5153860000000  0.5178340000000  0.4654290000000 1.0
C      1  0.5136380000000  0.4735790000000  0.5557340000000 1.0
C      1  0.4853990000000  0.4704090000000  0.5557680000000 1.0
C      1  0.4284490000000  0.4951410000000  0.5865010000000 1.0
C      1  0.5711180000000  0.4953690000000  0.5856730000000 1.0
C      1  0.5139950000000  0.4611470000000  0.5023320000000 1.0
C      1  0.4855230000000  0.4606890000000  0.5017960000000 1.0
C      1  0.5165240000000  0.4115280000000  0.5038080000000 1.0
C      1  0.4833090000000  0.4111820000000  0.5038050000000 1.0
C      1  0.5619050000000  0.5127260000000  0.4718080000000 1.0
C      1  0.4382850000000  0.5127940000000  0.4729150000000 1.0
C      1  0.5343060000000  0.5286870000000  0.4035300000000 1.0
C      1  0.4660480000000  0.5291520000000  0.4045980000000 1.0
C      1  0.4653180000000  0.5214120000000  0.5150280000000 1.0
C      1  0.5379290000000  0.5243700000000  0.5135910000000 1.0
C      1  0.4356620000000  0.5642860000000  0.5574000000000 1.0
C      1  0.5645850000000  0.5652210000000  0.5565180000000 1.0
C      1  0.5269170000000  0.5677470000000  0.6053040000000 1.0
C      1  0.4730270000000  0.5676130000000  0.6056740000000 1.0
C      1  0.5883110000000  0.5453080000000  0.4775570000000 1.0
C      1  0.4124230000000  0.5455750000000  0.4774460000000 1.0
C      1  0.5559650000000  0.4749570000000  0.4544590000000 1.0
C      1  0.4442840000000  0.4754060000000  0.4547490000000 1.0
C      1  0.5266300000000  0.4931240000000  0.5392770000000 1.0
C      1  0.4695640000000  0.4808840000000  0.5349520000000 1.0
C      1  0.5229030000000  0.4845550000000  0.3768260000000 1.0
C      1  0.4768650000000  0.4848480000000  0.3768900000000 1.0
C      1  0.5617750000000  0.3995620000000  0.5231330000000 1.0
C      1  0.4380940000000  0.3982540000000  0.5229950000000 1.0
C      1  0.3986340000000  0.4374790000000  0.5197740000000 1.0
C      1  0.5999330000000  0.4389260000000  0.5195140000000 1.0
C      1  0.5978420000000  0.4565540000000  0.5450120000000 1.0
C      1  0.4002170000000  0.4562360000000  0.5454470000000 1.0
C      1  0.4180790000000  0.4815740000000  0.4394190000000 1.0
C      1  0.5821520000000  0.4813660000000  0.4394150000000 1.0
C      1  0.5170000000000  0.5878600000000  0.4701450000000 1.0
C      1  0.4851950000000  0.5870790000000  0.4718830000000 1.0
C      1  0.4842670000000  0.4553610000000  0.3836260000000 1.0
C      1  0.5154070000000  0.4552420000000  0.3837330000000 1.0
C      1  0.5586430000000  0.5822200000000  0.4993930000000 1.0
C      1  0.4417380000000  0.5818140000000  0.5001500000000 1.0
C      1  0.3956410000000  0.5343520000000  0.5249270000000 1.0
C      1  0.6056050000000  0.5334810000000  0.5246350000000 1.0
C      1  0.4737490000000  0.4687390000000  0.5819720000000 1.0
C      1  0.5255470000000  0.4694260000000  0.5815880000000 1.0
C      1  0.4820380000000  0.6176310000000  0.4821430000000 1.0
C      1  0.5162080000000  0.6179740000000  0.4818470000000 1.0
C      1  0.5273930000000  0.5975190000000  0.5656860000000 1.0
C      1  0.4718990000000  0.5976160000000  0.5664150000000 1.0
C      1  0.5556960000000  0.5217930000000  0.4223060000000 1.0
C      1  0.4448660000000  0.5222230000000  0.4235490000000 1.0
C      1  0.5156200000000  0.4908540000000  0.6004600000000 1.0
C      1  0.4844870000000  0.4907600000000  0.6001490000000 1.0
C      1  0.4842090000000  0.5062190000000  0.3985260000000 1.0
C      1  0.5159230000000  0.5059140000000  0.3984300000000 1.0
C      1  0.4690160000000  0.4937000000000  0.4472830000000 1.0
C      1  0.5313090000000  0.4939120000000  0.4475980000000 1.0
C      1  0.4733180000000  0.4589640000000  0.4121640000000 1.0
C      1  0.5264900000000  0.4588630000000  0.4123180000000 1.0
C      1  0.5402430000000  0.5795950000000  0.5467560000000 1.0
C      1  0.4594270000000  0.5795730000000  0.5475150000000 1.0
C      1  0.4322720000000  0.4836410000000  0.5110240000000 1.0
C      1  0.5661000000000  0.4841390000000  0.5114060000000 1.0
C      1  0.5292810000000  0.4374320000000  0.5024450000000 1.0
C      1  0.4703400000000  0.4368830000000  0.5026940000000 1.0
C      1  0.4429780000000  0.4941330000000  0.5389320000000 1.0
C      1  0.5555680000000  0.4954670000000  0.5384290000000 1.0
C      1  0.3974840000000  0.4933990000000  0.4572810000000 1.0
C      1  0.6018660000000  0.4944110000000  0.4574860000000 1.0
C      1  0.5762410000000  0.4224410000000  0.5070700000000 1.0
C      1  0.4230510000000  0.4208970000000  0.5069450000000 1.0
C      1  0.5673520000000  0.5341810000000  0.5592680000000 1.0
C      1  0.4338860000000  0.5330420000000  0.5593230000000 1.0
C      1  0.4511750000000  0.4441040000000  0.4248820000000 1.0
C      1  0.5486480000000  0.4440020000000  0.4248320000000 1.0
C      1  0.5335460000000  0.5829590000000  0.5167220000000 1.0
C      1  0.4665490000000  0.5825210000000  0.5175690000000 1.0
C      1  0.5739710000000  0.5001270000000  0.4176740000000 1.0
C      1  0.4260730000000  0.5011540000000  0.4184480000000 1.0
C      1  0.5169710000000  0.5657420000000  0.4345810000000 1.0
C      1  0.4843290000000  0.5658610000000  0.4357580000000 1.0
C      1  0.5686830000000  0.4823060000000  0.5607630000000 1.0
C      1  0.4293510000000  0.4818290000000  0.5615310000000 1.0
C      1  0.4603780000000  0.5567180000000  0.4571310000000 1.0
C      1  0.5417400000000  0.5575750000000  0.4550980000000 1.0
C      1  0.5967850000000  0.5254180000000  0.4986190000000 1.0
C      1  0.4033070000000  0.5260450000000  0.4985770000000 1.0
C      1  0.5272090000000  0.5367390000000  0.4883940000000 1.0
C      1  0.4745280000000  0.5352100000000  0.4902160000000 1.0
C      1  0.4427860000000  0.5347740000000  0.5283810000000 1.0
C      1  0.5617890000000  0.5354120000000  0.5270640000000 1.0
C      1  0.4853080000000  0.5414030000000  0.6073590000000 1.0
C      1  0.5147410000000  0.5415430000000  0.6073560000000 1.0
C      1  0.4472320000000  0.4415100000000  0.4582690000000 1.0
C      1  0.5526560000000  0.4413620000000  0.4580720000000 1.0
C      1  0.5935180000000  0.4563410000000  0.4278540000000 1.0
C      1  0.4078030000000  0.4565410000000  0.4268530000000 1.0
C      1  0.5210460000000  0.4859190000000  0.4214160000000 1.0
C      1  0.4790550000000  0.4859290000000  0.4212390000000 1.0
C      1  0.4539640000000  0.4990630000000  0.4959950000000 1.0
C      1  0.5457590000000  0.4997060000000  0.4952600000000 1.0
C      1  0.4491150000000  0.4527350000000  0.5844560000000 1.0
C      1  0.5494580000000  0.4525030000000  0.5832350000000 1.0
C      1  0.5144630000000  0.5889980000000  0.5899480000000 1.0
C      1  0.4852560000000  0.5890940000000  0.5903420000000 1.0
C      1  0.4485650000000  0.5301450000000  0.4511160000000 1.0
C      1  0.5522820000000  0.5302170000000  0.4496660000000 1.0
C      1  0.4749790000000  0.4821440000000  0.4871790000000 1.0
C      1  0.5238800000000  0.4831330000000  0.4874820000000 1.0
C      1  0.4374280000000  0.5630330000000  0.4782950000000 1.0
C      1  0.5634120000000  0.5630400000000  0.4777690000000 1.0
C      1  0.4843050000000  0.4030260000000  0.4732570000000 1.0
C      1  0.5155450000000  0.4031170000000  0.4733220000000 1.0
C      1  0.5160910000000  0.6081740000000  0.5122210000000 1.0
C      1  0.4835530000000  0.6078950000000  0.5126050000000 1.0
C      1  0.4042290000000  0.5183930000000  0.5481160000000 1.0
C      1  0.5965010000000  0.5184380000000  0.5480840000000 1.0
C      1  0.4851580000000  0.3775930000000  0.5406690000000 1.0
C      1  0.5151730000000  0.3779230000000  0.5407240000000 1.0
C      1  0.5293670000000  0.5178690000000  0.5990720000000 1.0
C      1  0.4708040000000  0.5175750000000  0.5988410000000 1.0
C      1  0.4084310000000  0.4966930000000  0.4976760000000 1.0
C      1  0.5904500000000  0.4962860000000  0.4978560000000 1.0
C      1  0.5553360000000  0.4371270000000  0.4897820000000 1.0
C      1  0.4441250000000  0.4363670000000  0.4900380000000 1.0
END
