TITL C-862127-1500-81 26.3605321669786 125000 -558.812553401101 0 0 111 (C1) n - 1
REM
REM in /home/nfs/bkarasulu/CARBON/AIRSS/Generating-Clusters/TERSOFF/Higher-Symm/FIRE-HFTN
REM
REM
REM
REM
REM
REM ./C.cell (b20cbc046b6831c77cfcea5457e17084)
REM AIRSS Version 0.9.1 bugfix July 2018 build 013d7b7c2542+ Fri, 06 Jul 2018 19:26:36 +0100
REM compiler GCC version 9.2.1 20190827 (Red Hat 9.2.1-1)
REM options -cpp -mtune=generic -march=x86-64 -g -O0 -fpre-include=/usr/include/finclude/math-vector-fortran.h
REM seed 433444979 -1642923040 1196091076 -117210480 -1843720526 1561283846 2069075433 1531008464 -528974501 1590212383 1472328587 -1905912657 -1287835014 221075519 440521102 -1283545468 1380739697 -2016833749 145959958 1480738546 -749569314 -512785729 -378496700 636700636 -1495566027 1383021597 593484212 -408663512 1848936325 -1951959413 -36920721 1522917079 -2083468852
REM
CELL 1.54180   50.00000   50.00000   50.00000   90.00000   90.00000   90.00000
LATT -1
SFAC C  
C      1  0.5829990000000  0.5335900000000  0.5314460000000 1.0
C      1  0.4319040000000  0.5485550000000  0.5424360000000 1.0
C      1  0.4854860000000  0.4136320000000  0.5327370000000 1.0
C      1  0.5726890000000  0.5230850000000  0.4734300000000 1.0
C      1  0.4298630000000  0.5460520000000  0.4587210000000 1.0
C      1  0.4888400000000  0.4097560000000  0.4645760000000 1.0
C      1  0.4690190000000  0.5432880000000  0.4813310000000 1.0
C      1  0.4664250000000  0.4417930000000  0.4797260000000 1.0
C      1  0.5659680000000  0.4866820000000  0.5016050000000 1.0
C      1  0.4665150000000  0.5523330000000  0.5133470000000 1.0
C      1  0.4576130000000  0.4411500000000  0.5121970000000 1.0
C      1  0.5503460000000  0.5043740000000  0.5260010000000 1.0
C      1  0.4916340000000  0.5438500000000  0.4200050000000 1.0
C      1  0.4622910000000  0.4674480000000  0.4202770000000 1.0
C      1  0.5395710000000  0.4894930000000  0.4171420000000 1.0
C      1  0.4953410000000  0.5456840000000  0.5848150000000 1.0
C      1  0.4636340000000  0.4658640000000  0.5833240000000 1.0
C      1  0.5402400000000  0.4902850000000  0.5776960000000 1.0
C      1  0.4684050000000  0.4705370000000  0.5119000000000 1.0
C      1  0.5216650000000  0.4979800000000  0.5146130000000 1.0
C      1  0.4917830000000  0.5358420000000  0.5157290000000 1.0
C      1  0.4812920000000  0.4717630000000  0.4840990000000 1.0
C      1  0.5365740000000  0.4873780000000  0.4902650000000 1.0
C      1  0.4930830000000  0.5227170000000  0.4872480000000 1.0
C      1  0.4764680000000  0.4191330000000  0.5644930000000 1.0
C      1  0.5839200000000  0.5169520000000  0.5599330000000 1.0
C      1  0.4524870000000  0.5603670000000  0.5596430000000 1.0
C      1  0.4758600000000  0.4195930000000  0.4355470000000 1.0
C      1  0.5772480000000  0.5160450000000  0.4414540000000 1.0
C      1  0.4476540000000  0.5599050000000  0.4397880000000 1.0
C      1  0.5377390000000  0.4750060000000  0.4415440000000 1.0
C      1  0.5087960000000  0.5391500000000  0.4442380000000 1.0
C      1  0.4568140000000  0.4852310000000  0.4438600000000 1.0
C      1  0.5283920000000  0.4785460000000  0.5535310000000 1.0
C      1  0.5120810000000  0.5449820000000  0.5601370000000 1.0
C      1  0.4572860000000  0.4804710000000  0.5583520000000 1.0
C      1  0.5596230000000  0.5131020000000  0.5776710000000 1.0
C      1  0.4663840000000  0.5420320000000  0.5794610000000 1.0
C      1  0.4824840000000  0.4439740000000  0.5807910000000 1.0
C      1  0.5561490000000  0.5139140000000  0.4201280000000 1.0
C      1  0.4625940000000  0.5421630000000  0.4207110000000 1.0
C      1  0.4815080000000  0.4458820000000  0.4223040000000 1.0
C      1  0.4420300000000  0.4979410000000  0.4810150000000 1.0
C      1  0.5177780000000  0.4536560000000  0.4737960000000 1.0
C      1  0.5271870000000  0.5460600000000  0.4813200000000 1.0
C      1  0.4475660000000  0.5061340000000  0.5218240000000 1.0
C      1  0.5125320000000  0.4574870000000  0.5208540000000 1.0
C      1  0.5296140000000  0.5525180000000  0.5227440000000 1.0
C      1  0.4188290000000  0.4755910000000  0.4784880000000 1.0
C      1  0.5499960000000  0.4504950000000  0.4754780000000 1.0
C      1  0.5231780000000  0.5758820000000  0.4817680000000 1.0
C      1  0.4287520000000  0.4825720000000  0.5183440000000 1.0
C      1  0.5426320000000  0.4550640000000  0.5162610000000 1.0
C      1  0.5268500000000  0.5839000000000  0.5226590000000 1.0
C      1  0.5308830000000  0.5880200000000  0.5520270000000 1.0
C      1  0.4176790000000  0.4756070000000  0.5455200000000 1.0
C      1  0.5589000000000  0.4522850000000  0.5417700000000 1.0
C      1  0.5232600000000  0.5837350000000  0.4527990000000 1.0
C      1  0.4144460000000  0.4767400000000  0.4489630000000 1.0
C      1  0.5645870000000  0.4438450000000  0.4497610000000 1.0
C      1  0.4514690000000  0.5157820000000  0.4156490000000 1.0
C      1  0.5086990000000  0.4565920000000  0.4174940000000 1.0
C      1  0.5393530000000  0.5370590000000  0.4155190000000 1.0
C      1  0.4558640000000  0.5147620000000  0.5824960000000 1.0
C      1  0.5099130000000  0.4555760000000  0.5833370000000 1.0
C      1  0.5442610000000  0.5364050000000  0.5856910000000 1.0
C      1  0.5309770000000  0.4152490000000  0.4631360000000 1.0
C      1  0.5617420000000  0.5668260000000  0.4678880000000 1.0
C      1  0.4047870000000  0.5134210000000  0.4669820000000 1.0
C      1  0.5269990000000  0.4190760000000  0.5309740000000 1.0
C      1  0.5652140000000  0.5715170000000  0.5343400000000 1.0
C      1  0.4077180000000  0.5152630000000  0.5340800000000 1.0
C      1  0.5380650000000  0.5573540000000  0.4423840000000 1.0
C      1  0.4286300000000  0.5044650000000  0.4412110000000 1.0
C      1  0.5340050000000  0.4404460000000  0.4374120000000 1.0
C      1  0.5438110000000  0.5605030000000  0.5613980000000 1.0
C      1  0.4301180000000  0.5032480000000  0.5599100000000 1.0
C      1  0.5303790000000  0.4443220000000  0.5564940000000 1.0
C      1  0.5892780000000  0.4999200000000  0.4881720000000 1.0
C      1  0.4739780000000  0.5756960000000  0.4793370000000 1.0
C      1  0.4575480000000  0.4067940000000  0.4825150000000 1.0
C      1  0.6026780000000  0.5121140000000  0.5133350000000 1.0
C      1  0.4682530000000  0.5842870000000  0.5138830000000 1.0
C      1  0.4538810000000  0.4077990000000  0.5183980000000 1.0
C      1  0.4986340000000  0.4335790000000  0.4826400000000 1.0
C      1  0.5510400000000  0.5332110000000  0.4906380000000 1.0
C      1  0.4403920000000  0.5292980000000  0.4825080000000 1.0
C      1  0.4932990000000  0.4367550000000  0.5132160000000 1.0
C      1  0.5546480000000  0.5335140000000  0.5200370000000 1.0
C      1  0.4401950000000  0.5351180000000  0.5163800000000 1.0
C      1  0.5024230000000  0.5254980000000  0.5397590000000 1.0
C      1  0.4775470000000  0.4810100000000  0.5370300000000 1.0
C      1  0.5043110000000  0.4938180000000  0.5401940000000 1.0
C      1  0.5053220000000  0.5120390000000  0.4602260000000 1.0
C      1  0.4792760000000  0.4913590000000  0.4629830000000 1.0
C      1  0.5288400000000  0.4928680000000  0.4636770000000 1.0
C      1  0.4492560000000  0.4125730000000  0.4509280000000 1.0
C      1  0.5954510000000  0.4925520000000  0.4558590000000 1.0
C      1  0.4618070000000  0.5821440000000  0.4529950000000 1.0
C      1  0.4480190000000  0.4116200000000  0.5514720000000 1.0
C      1  0.6006220000000  0.4969760000000  0.5419660000000 1.0
C      1  0.4669730000000  0.5822940000000  0.5455980000000 1.0
C      1  0.4718810000000  0.4924810000000  0.4053360000000 1.0
C      1  0.5079520000000  0.4909590000000  0.4051090000000 1.0
C      1  0.5118190000000  0.5263090000000  0.4043720000000 1.0
C      1  0.4747280000000  0.4919850000000  0.5947710000000 1.0
C      1  0.5104660000000  0.4901960000000  0.5949340000000 1.0
C      1  0.5163420000000  0.5256820000000  0.5971720000000 1.0
C      1  0.4051440000000  0.5007280000000  0.5008530000000 1.0
C      1  0.5535470000000  0.5793200000000  0.5008810000000 1.0
C      1  0.5390860000000  0.4245270000000  0.4972540000000 1.0
END
