TITL C-862500-986-778 7.06130497985738e-05 125000 -182.175619843072 0 0 35 (C3) n - 1
REM
REM in /home/nfs/bkarasulu/CARBON/AIRSS/Generating-Clusters/TERSOFF/Higher-Symm/FIRE-HFTN
REM
REM
REM
REM
REM
REM ./C.cell (b20cbc046b6831c77cfcea5457e17084)
REM AIRSS Version 0.9.1 bugfix July 2018 build 013d7b7c2542+ Fri, 06 Jul 2018 19:26:36 +0100
REM compiler GCC version 9.2.1 20190827 (Red Hat 9.2.1-1)
REM options -cpp -mtune=generic -march=x86-64 -g -O0 -fpre-include=/usr/include/finclude/math-vector-fortran.h
REM seed -1801007854 1571216579 511348162 -1071242363 -1374306588 -1204190201 -971551958 384782688 -1579014122 627517076 -944277772 1447310784 709586365 738105377 1953631509 810666403 721676367 95616649 1684281899 -333021446 -1885686080 1276086894 1885086201 -960279994 8946368 -746597988 1944960082 -1297212111 -1326181570 -1433913700 -453628410 -1306852172 1065609923
REM
CELL 1.54180   50.00000   50.00000   50.00000   90.00000   90.00000   90.00000
LATT -1
SFAC C  
C      1  0.4533970000000  0.5558170000000  0.5215680000000 1.0
C      1  0.4533970000000  0.4551370000000  0.5373900000000 1.0
C      1  0.4533970000000  0.4917750000000  0.4422870000000 1.0
C      1  0.5713870000000  0.4889300000000  0.4840100000000 1.0
C      1  0.5713870000000  0.5211070000000  0.4982440000000 1.0
C      1  0.5713870000000  0.4926920000000  0.5189930000000 1.0
C      1  0.5287620000000  0.5532270000000  0.4987160000000 1.0
C      1  0.5287620000000  0.4762220000000  0.5465730000000 1.0
C      1  0.5287620000000  0.4732790000000  0.4559560000000 1.0
C      1  0.4484650000000  0.4968320000000  0.4707430000000 1.0
C      1  0.4484650000000  0.5286460000000  0.5117200000000 1.0
C      1  0.4484650000000  0.4772520000000  0.5187830000000 1.0
C      1  0.5077220000000  0.5244290000000  0.5257240000000 1.0
C      1  0.5077220000000  0.4672320000000  0.5081300000000 1.0
C      1  0.5077220000000  0.5110680000000  0.4673920000000 1.0
C      1  0.5414720000000  0.4905780000000  0.5244220000000 1.0
C      1  0.5414720000000  0.4852850000000  0.4794640000000 1.0
C      1  0.5414720000000  0.5268660000000  0.4973590000000 1.0
C      1  0.5408970000000  0.4531090000000  0.4391140000000 1.0
C      1  0.5408970000000  0.5778990000000  0.4896700000000 1.0
C      1  0.5408970000000  0.4717210000000  0.5724630000000 1.0
C      1  0.4861540000000  0.4630040000000  0.4830160000000 1.0
C      1  0.4861540000000  0.5349300000000  0.4762870000000 1.0
C      1  0.4861540000000  0.5047950000000  0.5419420000000 1.0
C      1  0.4554040000000  0.4729760000000  0.4892110000000 1.0
C      1  0.4554040000000  0.5245800000000  0.4818260000000 1.0
C      1  0.4554040000000  0.5051730000000  0.5302090000000 1.0
C      1  0.4793230000000  0.5672980000000  0.5161310000000 1.0
C      1  0.4793230000000  0.4541050000000  0.5500520000000 1.0
C      1  0.4793230000000  0.4813260000000  0.4350630000000 1.0
C      1  0.4986100000000  0.4744250000000  0.5407740000000 1.0
C      1  0.4986110000000  0.4792010000000  0.4572990000000 1.0
C      1  0.4986110000000  0.5491040000000  0.5031730000000 1.0
C      1  0.5205510000000  0.5009100000000  0.5004150000000 1.0
C      1  0.4844060000000  0.5009100000000  0.5004150000000 1.0
END
