TITL C-862127-1500-236 0.00659861685732004 125000 -96.7374308739756 0 0 19 (C1) n - 1
REM
REM in /home/nfs/bkarasulu/CARBON/AIRSS/Generating-Clusters/TERSOFF/Higher-Symm/FIRE-HFTN
REM
REM
REM
REM
REM
REM ./C.cell (b20cbc046b6831c77cfcea5457e17084)
REM AIRSS Version 0.9.1 bugfix July 2018 build 013d7b7c2542+ Fri, 06 Jul 2018 19:26:36 +0100
REM compiler GCC version 9.2.1 20190827 (Red Hat 9.2.1-1)
REM options -cpp -mtune=generic -march=x86-64 -g -O0 -fpre-include=/usr/include/finclude/math-vector-fortran.h
REM seed 620962755 -416927175 -1146721639 -330546244 -862291161 -508622336 1060416582 1750474685 246721570 -664975897 1219225463 -948324209 -1861036653 -952968804 -1915089501 -820156158 -1076793021 -671187746 1184838041 -750044273 643897972 -1963838707 -197139548 1498642041 1605023953 -1166158260 101132248 -239848712 -943059048 1216189691 1822410150 -7921966 225666267
REM
CELL 1.54180   50.00000   50.00000   50.00000   90.00000   90.00000   90.00000
LATT -1
SFAC C  
C      1  0.5006190000000  0.4526050000000  0.5174240000000 1.0
C      1  0.4900860000000  0.4780890000000  0.5265850000000 1.0
C      1  0.4976590000000  0.4935020000000  0.5501250000000 1.0
C      1  0.4946140000000  0.5228950000000  0.5521020000000 1.0
C      1  0.5074960000000  0.5428520000000  0.5340570000000 1.0
C      1  0.4995310000000  0.5487830000000  0.5060080000000 1.0
C      1  0.5082240000000  0.5327730000000  0.4823180000000 1.0
C      1  0.4909850000000  0.5196620000000  0.4606700000000 1.0
C      1  0.4878850000000  0.4900290000000  0.4590800000000 1.0
C      1  0.5083390000000  0.4701580000000  0.4683540000000 1.0
C      1  0.5041030000000  0.4483300000000  0.4884840000000 1.0
C      1  0.5126770000000  0.5062080000000  0.4940120000000 1.0
C      1  0.5639350000000  0.5076480000000  0.4957800000000 1.0
C      1  0.4881910000000  0.4941650000000  0.5033830000000 1.0
C      1  0.5386530000000  0.4935570000000  0.4959170000000 1.0
C      1  0.4625770000000  0.5000780000000  0.4910570000000 1.0
C      1  0.5893300000000  0.4960840000000  0.5034710000000 1.0
C      1  0.4119650000000  0.5064310000000  0.4965030000000 1.0
C      1  0.4368480000000  0.4927470000000  0.5021040000000 1.0
END
