TITL C-862507-1800-718 0.000229253598822228 125000 -195.585741532301 0 0 40 (C2) n - 1
REM
REM in /home/nfs/bkarasulu/CARBON/AIRSS/Generating-Clusters/TERSOFF/Higher-Symm/FIRE-HFTN
REM
REM
REM
REM
REM
REM ./C.cell (b20cbc046b6831c77cfcea5457e17084)
REM AIRSS Version 0.9.1 bugfix July 2018 build 013d7b7c2542+ Fri, 06 Jul 2018 19:26:36 +0100
REM compiler GCC version 9.2.1 20190827 (Red Hat 9.2.1-1)
REM options -cpp -mtune=generic -march=x86-64 -g -O0 -fpre-include=/usr/include/finclude/math-vector-fortran.h
REM seed -645611188 -1743777956 -894668353 1290333298 199642799 287387559 567209240 1767535441 -1123456933 1666850711 -460031147 962864328 78909026 1684853510 -1635386928 -370638743 1296095975 -1898020021 -874545449 -1470473926 -1406566052 1002843201 -1367400313 -2031536888 -915161227 2064264346 -1283743531 -1186625814 1243590897 527348229 524693167 473810037 1715437795
REM
CELL 1.54180   50.00000   50.00000   50.00000   90.00000   90.00000   90.00000
LATT -1
SFAC C  
C      1  0.5341250000000  0.5017290000000  0.5411520000000 1.0
C      1  0.4658750000000  0.4982710000000  0.5411520000000 1.0
C      1  0.5520760000000  0.5150940000000  0.4939800000000 1.0
C      1  0.4479240000000  0.4849060000000  0.4939800000000 1.0
C      1  0.4501180000000  0.4528910000000  0.5032750000000 1.0
C      1  0.5498820000000  0.5471090000000  0.5032750000000 1.0
C      1  0.5257380000000  0.5210080000000  0.4514710000000 1.0
C      1  0.4742620000000  0.4789920000000  0.4514710000000 1.0
C      1  0.4749350000000  0.5313050000000  0.4510220000000 1.0
C      1  0.5250650000000  0.4686950000000  0.4510220000000 1.0
C      1  0.4892890000000  0.5600860000000  0.4995150000000 1.0
C      1  0.5107110000000  0.4399140000000  0.4995150000000 1.0
C      1  0.5269860000000  0.5424500000000  0.5215360000000 1.0
C      1  0.4730140000000  0.4575500000000  0.5215360000000 1.0
C      1  0.5206490000000  0.5537790000000  0.5490930000000 1.0
C      1  0.4793510000000  0.4462210000000  0.5490930000000 1.0
C      1  0.5275800000000  0.5247820000000  0.5596310000000 1.0
C      1  0.4724200000000  0.4752180000000  0.5596310000000 1.0
C      1  0.4933970000000  0.5649980000000  0.5327870000000 1.0
C      1  0.5066030000000  0.4350020000000  0.5327870000000 1.0
C      1  0.4550150000000  0.5202310000000  0.4923050000000 1.0
C      1  0.5449850000000  0.4797690000000  0.4923050000000 1.0
C      1  0.5150530000000  0.4981020000000  0.4363650000000 1.0
C      1  0.4849470000000  0.5018980000000  0.4363650000000 1.0
C      1  0.4890010000000  0.4247280000000  0.4843500000000 1.0
C      1  0.5109990000000  0.5752720000000  0.4843500000000 1.0
C      1  0.4435120000000  0.4943670000000  0.5233260000000 1.0
C      1  0.5564880000000  0.5056330000000  0.5233260000000 1.0
C      1  0.5097860000000  0.4888730000000  0.5277640000000 1.0
C      1  0.4902140000000  0.5111270000000  0.5277640000000 1.0
C      1  0.4831600000000  0.5123770000000  0.4771840000000 1.0
C      1  0.5168400000000  0.4876230000000  0.4771840000000 1.0
C      1  0.5394290000000  0.5678100000000  0.4847190000000 1.0
C      1  0.4605710000000  0.4321900000000  0.4847190000000 1.0
C      1  0.4968910000000  0.4675240000000  0.5080670000000 1.0
C      1  0.5031090000000  0.5324760000000  0.5080670000000 1.0
C      1  0.5183000000000  0.5196990000000  0.4816830000000 1.0
C      1  0.4817000000000  0.4803010000000  0.4816830000000 1.0
C      1  0.5344400000000  0.4498730000000  0.4807770000000 1.0
C      1  0.4655600000000  0.5501270000000  0.4807770000000 1.0
END
