TITL C-862503-991-277 0.0121113728063761 125000 -891.912681388847 0 0 160 (T23) n - 1
REM
REM in /home/nfs/bkarasulu/CARBON/AIRSS/Generating-Clusters/TERSOFF/Higher-Symm/FIRE-HFTN
REM
REM
REM
REM
REM
REM ./C.cell (b20cbc046b6831c77cfcea5457e17084)
REM AIRSS Version 0.9.1 bugfix July 2018 build 013d7b7c2542+ Fri, 06 Jul 2018 19:26:36 +0100
REM compiler GCC version 9.2.1 20190827 (Red Hat 9.2.1-1)
REM options -cpp -mtune=generic -march=x86-64 -g -O0 -fpre-include=/usr/include/finclude/math-vector-fortran.h
REM seed -2120341728 -244082154 2071035257 -1049766423 -1811156679 1636779687 2077102034 136218551 1407440834 -523185322 -955969029 -757959133 -518017825 -1693942135 -75307902 -1631214911 -329931984 1132131175 426413254 -879156002 1640587604 350028873 -1389761605 -1790108854 795935167 -1020970679 -598729125 -1474396097 -1947270892 -1692847210 605713992 -340405772 919581115
REM
CELL 1.54180   50.00000   50.00000   50.00000   90.00000   90.00000   90.00000
LATT -1
SFAC C  
C      1  0.5368560000000  0.4870000000000  0.4901450000000 1.0
C      1  0.4873600000000  0.4901730000000  0.5364690000000 1.0
C      1  0.4905330000000  0.5364960000000  0.4869720000000 1.0
C      1  0.4631990000000  0.4870000000000  0.5091350000000 1.0
C      1  0.4631990000000  0.5123350000000  0.4901450000000 1.0
C      1  0.5368560000000  0.5123350000000  0.5091350000000 1.0
C      1  0.5126950000000  0.4901730000000  0.4628110000000 1.0
C      1  0.5126950000000  0.5091620000000  0.5364690000000 1.0
C      1  0.4873600000000  0.5091620000000  0.4628110000000 1.0
C      1  0.5095220000000  0.5364960000000  0.5123080000000 1.0
C      1  0.5095220000000  0.4628390000000  0.4869730000000 1.0
C      1  0.4905330000000  0.4628390000000  0.5123080000000 1.0
C      1  0.6022450000000  0.5038340000000  0.4790600000000 1.0
C      1  0.5041940000000  0.4790880000000  0.6018570000000 1.0
C      1  0.4794470000000  0.6018850000000  0.5038060000000 1.0
C      1  0.3978100000000  0.5038340000000  0.5202200000000 1.0
C      1  0.3978100000000  0.4955010000000  0.4790600000000 1.0
C      1  0.6022450000000  0.4955010000000  0.5202200000000 1.0
C      1  0.4958610000000  0.4790870000000  0.3974230000000 1.0
C      1  0.4958610000000  0.5202480000000  0.6018570000000 1.0
C      1  0.5041930000000  0.5202470000000  0.3974230000000 1.0
C      1  0.5206070000000  0.6018850000000  0.4954740000000 1.0
C      1  0.5206080000000  0.3974500000000  0.5038060000000 1.0
C      1  0.4794480000000  0.3974500000000  0.4954740000000 1.0
C      1  0.4499700000000  0.4770910000000  0.5987230000000 1.0
C      1  0.4774510000000  0.5987500000000  0.4495830000000 1.0
C      1  0.5991100000000  0.4496100000000  0.4770640000000 1.0
C      1  0.5500850000000  0.4770910000000  0.4005570000000 1.0
C      1  0.5500850000000  0.5222440000000  0.5987230000000 1.0
C      1  0.4499700000000  0.5222440000000  0.4005570000000 1.0
C      1  0.5226040000000  0.5987500000000  0.5496970000000 1.0
C      1  0.5226040000000  0.4005850000000  0.4495830000000 1.0
C      1  0.4774520000000  0.4005850000000  0.5496980000000 1.0
C      1  0.4009450000000  0.4496100000000  0.5222170000000 1.0
C      1  0.4009450000000  0.5497250000000  0.4770640000000 1.0
C      1  0.5991100000000  0.5497250000000  0.5222160000000 1.0
C      1  0.4383560000000  0.5339980000000  0.5447280000000 1.0
C      1  0.5343580000000  0.5447550000000  0.4379680000000 1.0
C      1  0.5451150000000  0.4379960000000  0.5339700000000 1.0
C      1  0.5616990000000  0.5339980000000  0.4545520000000 1.0
C      1  0.5617000000000  0.4653370000000  0.5447280000000 1.0
C      1  0.4383560000000  0.4653370000000  0.4545530000000 1.0
C      1  0.4656970000000  0.5447550000000  0.5613120000000 1.0
C      1  0.4656970000000  0.4545800000000  0.4379680000000 1.0
C      1  0.5343580000000  0.4545800000000  0.5613120000000 1.0
C      1  0.4549400000000  0.4379950000000  0.4653100000000 1.0
C      1  0.4549400000000  0.5613390000000  0.5339700000000 1.0
C      1  0.5451150000000  0.5613390000000  0.4653100000000 1.0
C      1  0.4845160000000  0.4403130000000  0.5835340000000 1.0
C      1  0.4406720000000  0.5835610000000  0.4841280000000 1.0
C      1  0.5839210000000  0.4841560000000  0.4402850000000 1.0
C      1  0.5155400000000  0.4403120000000  0.4157470000000 1.0
C      1  0.5155400000000  0.5590230000000  0.5835330000000 1.0
C      1  0.4845150000000  0.5590220000000  0.4157470000000 1.0
C      1  0.5593820000000  0.5835610000000  0.5151520000000 1.0
C      1  0.5593830000000  0.4157740000000  0.4841280000000 1.0
C      1  0.4406730000000  0.4157740000000  0.5151520000000 1.0
C      1  0.4161340000000  0.4841550000000  0.5589950000000 1.0
C      1  0.4161340000000  0.5151790000000  0.4402850000000 1.0
C      1  0.5839210000000  0.5151800000000  0.5589950000000 1.0
C      1  0.5593240000000  0.5279660000000  0.5680820000000 1.0
C      1  0.5283260000000  0.5681100000000  0.5589370000000 1.0
C      1  0.5684700000000  0.5589640000000  0.5279390000000 1.0
C      1  0.4407300000000  0.5279660000000  0.4311980000000 1.0
C      1  0.4407310000000  0.4713690000000  0.5680820000000 1.0
C      1  0.5593240000000  0.4713690000000  0.4311980000000 1.0
C      1  0.4717280000000  0.5681090000000  0.4403430000000 1.0
C      1  0.4717290000000  0.4312250000000  0.5589370000000 1.0
C      1  0.5283260000000  0.4312250000000  0.4403430000000 1.0
C      1  0.4315850000000  0.5589640000000  0.4713410000000 1.0
C      1  0.4315860000000  0.4403710000000  0.5279390000000 1.0
C      1  0.5684700000000  0.4403710000000  0.4713410000000 1.0
C      1  0.4468670000000  0.5089710000000  0.6063490000000 1.0
C      1  0.5093300000000  0.6063760000000  0.4464800000000 1.0
C      1  0.6067360000000  0.4465070000000  0.5089430000000 1.0
C      1  0.5531880000000  0.5089710000000  0.3929310000000 1.0
C      1  0.5531880000000  0.4903640000000  0.6063490000000 1.0
C      1  0.4468670000000  0.4903640000000  0.3929310000000 1.0
C      1  0.4907240000000  0.6063760000000  0.5528000000000 1.0
C      1  0.4907240000000  0.3929590000000  0.4464800000000 1.0
C      1  0.5093310000000  0.3929590000000  0.5528010000000 1.0
C      1  0.3933190000000  0.4465070000000  0.4903370000000 1.0
C      1  0.3933190000000  0.5528280000000  0.5089440000000 1.0
C      1  0.6067360000000  0.5528280000000  0.4903360000000 1.0
C      1  0.5492100000000  0.5402990000000  0.3908180000000 1.0
C      1  0.5406600000000  0.3908460000000  0.5488230000000 1.0
C      1  0.3912060000000  0.5488500000000  0.5402720000000 1.0
C      1  0.4508450000000  0.5403000000000  0.6084620000000 1.0
C      1  0.4508440000000  0.4590350000000  0.3908190000000 1.0
C      1  0.5492110000000  0.4590360000000  0.6084620000000 1.0
C      1  0.4593960000000  0.3908460000000  0.4504570000000 1.0
C      1  0.4593950000000  0.6084890000000  0.5488230000000 1.0
C      1  0.5406590000000  0.6084890000000  0.4504570000000 1.0
C      1  0.6088490000000  0.5488510000000  0.4590080000000 1.0
C      1  0.6088490000000  0.4504850000000  0.5402720000000 1.0
C      1  0.3912060000000  0.4504840000000  0.4590080000000 1.0
C      1  0.4358100000000  0.5277600000000  0.4880640000000 1.0
C      1  0.5281200000000  0.4880920000000  0.4354230000000 1.0
C      1  0.4884520000000  0.4354500000000  0.5277330000000 1.0
C      1  0.5642450000000  0.5277600000000  0.5112160000000 1.0
C      1  0.5642450000000  0.4715750000000  0.4880640000000 1.0
C      1  0.4358100000000  0.4715750000000  0.5112160000000 1.0
C      1  0.4719350000000  0.4880920000000  0.5638570000000 1.0
C      1  0.4719350000000  0.5112430000000  0.4354230000000 1.0
C      1  0.5281200000000  0.5112430000000  0.5638570000000 1.0
C      1  0.5116030000000  0.4354500000000  0.4715480000000 1.0
C      1  0.5116030000000  0.5638850000000  0.5277320000000 1.0
C      1  0.4884510000000  0.5638850000000  0.4715480000000 1.0
C      1  0.5939400000000  0.5093200000000  0.4293340000000 1.0
C      1  0.5096800000000  0.4293620000000  0.5935520000000 1.0
C      1  0.4297210000000  0.5935800000000  0.5092920000000 1.0
C      1  0.4061150000000  0.5093190000000  0.5699460000000 1.0
C      1  0.4061150000000  0.4900150000000  0.4293340000000 1.0
C      1  0.5939400000000  0.4900160000000  0.5699460000000 1.0
C      1  0.4903750000000  0.4293610000000  0.4057280000000 1.0
C      1  0.4903760000000  0.5699740000000  0.5935520000000 1.0
C      1  0.5096790000000  0.5699740000000  0.4057280000000 1.0
C      1  0.5703330000000  0.5935800000000  0.4899880000000 1.0
C      1  0.5703340000000  0.4057550000000  0.5092920000000 1.0
C      1  0.4297220000000  0.4057550000000  0.4899880000000 1.0
C      1  0.5314520000000  0.4097820000000  0.4802270000000 1.0
C      1  0.4101420000000  0.4802540000000  0.5310650000000 1.0
C      1  0.4806140000000  0.5310920000000  0.4097540000000 1.0
C      1  0.4686030000000  0.4097820000000  0.5190530000000 1.0
C      1  0.4686030000000  0.5895530000000  0.4802270000000 1.0
C      1  0.5314520000000  0.5895540000000  0.5190530000000 1.0
C      1  0.5899130000000  0.4802550000000  0.4682160000000 1.0
C      1  0.5899130000000  0.5190810000000  0.5310640000000 1.0
C      1  0.4101410000000  0.5190800000000  0.4682160000000 1.0
C      1  0.5194410000000  0.5310920000000  0.5895260000000 1.0
C      1  0.5194400000000  0.4682430000000  0.4097540000000 1.0
C      1  0.4806150000000  0.4682430000000  0.5895260000000 1.0
C      1  0.4720460000000  0.5108900000000  0.5872680000000 1.0
C      1  0.5112500000000  0.5872950000000  0.4716580000000 1.0
C      1  0.5876550000000  0.4716860000000  0.5108620000000 1.0
C      1  0.5280090000000  0.5108900000000  0.4120120000000 1.0
C      1  0.5280100000000  0.4884450000000  0.5872680000000 1.0
C      1  0.4720450000000  0.4884450000000  0.4120130000000 1.0
C      1  0.4888050000000  0.5872950000000  0.5276220000000 1.0
C      1  0.4888050000000  0.4120400000000  0.4716580000000 1.0
C      1  0.5112500000000  0.4120400000000  0.5276220000000 1.0
C      1  0.4124000000000  0.4716850000000  0.4884180000000 1.0
C      1  0.4124000000000  0.5276490000000  0.5108630000000 1.0
C      1  0.5876550000000  0.5276500000000  0.4884170000000 1.0
C      1  0.5343930000000  0.5555110000000  0.4112600000000 1.0
C      1  0.5558710000000  0.4112880000000  0.5340050000000 1.0
C      1  0.4116480000000  0.5340330000000  0.5554840000000 1.0
C      1  0.4656620000000  0.5555110000000  0.5880200000000 1.0
C      1  0.4656620000000  0.4438240000000  0.4112610000000 1.0
C      1  0.5343930000000  0.4438240000000  0.5880200000000 1.0
C      1  0.4441840000000  0.4112880000000  0.4652750000000 1.0
C      1  0.4441840000000  0.5880470000000  0.5340050000000 1.0
C      1  0.5558710000000  0.5880470000000  0.4652740000000 1.0
C      1  0.5884070000000  0.5340330000000  0.4437960000000 1.0
C      1  0.5884070000000  0.4653020000000  0.5554830000000 1.0
C      1  0.4116480000000  0.4653020000000  0.4437970000000 1.0
C      1  0.4449630000000  0.4446030000000  0.5547050000000 1.0
C      1  0.4449630000000  0.5547320000000  0.4445760000000 1.0
C      1  0.5550920000000  0.4446030000000  0.4445760000000 1.0
C      1  0.5550920000000  0.5547320000000  0.5547040000000 1.0
END
