TITL C-862127-1500-1187 -4.26168199506116e-05 125000 -503.68901910625 0 0 87 (C3) n - 1
REM
REM in /home/nfs/bkarasulu/CARBON/AIRSS/Generating-Clusters/TERSOFF/Higher-Symm/FIRE-HFTN
REM
REM
REM
REM
REM
REM ./C.cell (b20cbc046b6831c77cfcea5457e17084)
REM AIRSS Version 0.9.1 bugfix July 2018 build 013d7b7c2542+ Fri, 06 Jul 2018 19:26:36 +0100
REM compiler GCC version 9.2.1 20190827 (Red Hat 9.2.1-1)
REM options -cpp -mtune=generic -march=x86-64 -g -O0 -fpre-include=/usr/include/finclude/math-vector-fortran.h
REM seed -1413416790 -752824064 2001452987 53692155 974567116 1001426774 -421611605 -370322213 1323474920 532095695 339154883 -1810421060 844820143 -2103545580 -1504567394 -836233715 941635492 311648403 -467263987 1005502072 672414447 -1430643279 -1378938207 217044831 1950125587 1756063908 -285884385 -1533317620 -1279088454 669887827 1296010896 488468144 -459179745
REM
CELL 1.54180   50.00000   50.00000   50.00000   90.00000   90.00000   90.00000
LATT -1
SFAC C  
C      1  0.5150780000000  0.5256690000000  0.4583160000000 1.0
C      1  0.5146910000000  0.4741080000000  0.4583160000000 1.0
C      1  0.4702310000000  0.5002240000000  0.4583160000000 1.0
C      1  0.4850070000000  0.5257400000000  0.4583450000000 1.0
C      1  0.4852050000000  0.4741450000000  0.4583450000000 1.0
C      1  0.5297880000000  0.5001150000000  0.4583450000000 1.0
C      1  0.5288240000000  0.5676270000000  0.4876340000000 1.0
C      1  0.5441550000000  0.4412240000000  0.4876340000000 1.0
C      1  0.4270210000000  0.4911490000000  0.4876340000000 1.0
C      1  0.4713950000000  0.5677470000000  0.4878350000000 1.0
C      1  0.4556320000000  0.4413540000000  0.4878350000000 1.0
C      1  0.5729730000000  0.4908990000000  0.4878350000000 1.0
C      1  0.4215760000000  0.5262690000000  0.5332530000000 1.0
C      1  0.5619620000000  0.5547830000000  0.5332530000000 1.0
C      1  0.5164620000000  0.4189480000000  0.5332530000000 1.0
C      1  0.5783840000000  0.5259170000000  0.5336610000000 1.0
C      1  0.4383640000000  0.5549240000000  0.5336610000000 1.0
C      1  0.4832530000000  0.4191590000000  0.5336610000000 1.0
C      1  0.5162380000000  0.5734310000000  0.5155640000000 1.0
C      1  0.5554740000000  0.4492210000000  0.5155640000000 1.0
C      1  0.4282870000000  0.4773470000000  0.5155630000000 1.0
C      1  0.4842170000000  0.5734340000000  0.5157640000000 1.0
C      1  0.4442960000000  0.4496150000000  0.5157640000000 1.0
C      1  0.5714870000000  0.4769510000000  0.5157640000000 1.0
C      1  0.4818480000000  0.5315560000000  0.4268700000000 1.0
C      1  0.5364040000000  0.4999430000000  0.4268700000000 1.0
C      1  0.4817480000000  0.4685020000000  0.4268700000000 1.0
C      1  0.5182990000000  0.5314590000000  0.4268510000000 1.0
C      1  0.4636070000000  0.5001180000000  0.4268510000000 1.0
C      1  0.5180950000000  0.4684240000000  0.4268510000000 1.0
C      1  0.4857780000000  0.4657690000000  0.5248060000000 1.0
C      1  0.4774660000000  0.5294320000000  0.5248060000000 1.0
C      1  0.5367560000000  0.5047990000000  0.5248060000000 1.0
C      1  0.5142550000000  0.4657920000000  0.5250090000000 1.0
C      1  0.5224970000000  0.5294490000000  0.5250090000000 1.0
C      1  0.4632470000000  0.5047580000000  0.5250090000000 1.0
C      1  0.4844040000000  0.4046390000000  0.5038820000000 1.0
C      1  0.4252130000000  0.5611880000000  0.5038820000000 1.0
C      1  0.5903840000000  0.5341740000000  0.5038820000000 1.0
C      1  0.5156160000000  0.4043590000000  0.5036150000000 1.0
C      1  0.5750190000000  0.5613450000000  0.5036150000000 1.0
C      1  0.4093650000000  0.5342960000000  0.5036150000000 1.0
C      1  0.5174590000000  0.4750420000000  0.5808990000000 1.0
C      1  0.4696560000000  0.4973590000000  0.5808990000000 1.0
C      1  0.5128850000000  0.5275990000000  0.5808990000000 1.0
C      1  0.4876160000000  0.4715770000000  0.5830890000000 1.0
C      1  0.5308070000000  0.5034870000000  0.5830890000000 1.0
C      1  0.4815770000000  0.5249360000000  0.5830890000000 1.0
C      1  0.4791040000000  0.5396710000000  0.4839830000000 1.0
C      1  0.5448040000000  0.4982610000000  0.4839830000000 1.0
C      1  0.4760920000000  0.4620680000000  0.4839830000000 1.0
C      1  0.5209980000000  0.5395910000000  0.4839240000000 1.0
C      1  0.4552140000000  0.4983890000000  0.4839240000000 1.0
C      1  0.5237880000000  0.4620200000000  0.4839240000000 1.0
C      1  0.4849130000000  0.4209010000000  0.4542550000000 1.0
C      1  0.4390420000000  0.5526160000000  0.4542550000000 1.0
C      1  0.5760450000000  0.5264830000000  0.4542550000000 1.0
C      1  0.5148400000000  0.4208150000000  0.4541340000000 1.0
C      1  0.5611560000000  0.5524440000000  0.4541340000000 1.0
C      1  0.4240040000000  0.5267410000000  0.4541340000000 1.0
C      1  0.5632060000000  0.4996180000000  0.5373650000000 1.0
C      1  0.4680660000000  0.4454530000000  0.5373650000000 1.0
C      1  0.4687280000000  0.5549290000000  0.5373650000000 1.0
C      1  0.4364480000000  0.4998770000000  0.5370170000000 1.0
C      1  0.5318820000000  0.4450230000000  0.5370170000000 1.0
C      1  0.5316700000000  0.5550990000000  0.5370170000000 1.0
C      1  0.5273770000000  0.4386650000000  0.4329220000000 1.0
C      1  0.4331940000000  0.5069580000000  0.4329220000000 1.0
C      1  0.5394290000000  0.5543760000000  0.4329220000000 1.0
C      1  0.4723240000000  0.4387870000000  0.4330930000000 1.0
C      1  0.5668510000000  0.5066380000000  0.4330930000000 1.0
C      1  0.4608260000000  0.5545750000000  0.4330930000000 1.0
C      1  0.4834350000000  0.5523290000000  0.5640170000000 1.0
C      1  0.5536000000000  0.4881810000000  0.5640170000000 1.0
C      1  0.4629640000000  0.4594900000000  0.5640170000000 1.0
C      1  0.5175930000000  0.5544200000000  0.5638070000000 1.0
C      1  0.4440740000000  0.4880260000000  0.5638070000000 1.0
C      1  0.5383330000000  0.4575540000000  0.5638070000000 1.0
C      1  0.5297280000000  0.4165530000000  0.4805490000000 1.0
C      1  0.4128690000000  0.5159780000000  0.4805490000000 1.0
C      1  0.5574030000000  0.5674690000000  0.4805490000000 1.0
C      1  0.4701530000000  0.4167000000000  0.4808050000000 1.0
C      1  0.5870630000000  0.5158020000000  0.4808060000000 1.0
C      1  0.4427830000000  0.5674980000000  0.4808060000000 1.0
C      1  0.5264360000000  0.4846740000000  0.5056650000000 1.0
C      1  0.4735100000000  0.4847690000000  0.5056650000000 1.0
C      1  0.5000540000000  0.5305570000000  0.5056650000000 1.0
END
