TITL C-862131-2149-775 -0.022882241428542 125000 -342.36175617747 0 0 58 (Ci) n - 1
REM
REM in /home/nfs/bkarasulu/CARBON/AIRSS/Generating-Clusters/TERSOFF/Higher-Symm/FIRE-HFTN
REM
REM
REM
REM
REM
REM ./C.cell (b20cbc046b6831c77cfcea5457e17084)
REM AIRSS Version 0.9.1 bugfix July 2018 build 013d7b7c2542+ Fri, 06 Jul 2018 19:26:36 +0100
REM compiler GCC version 9.2.1 20190827 (Red Hat 9.2.1-1)
REM options -cpp -mtune=generic -march=x86-64 -g -O0 -fpre-include=/usr/include/finclude/math-vector-fortran.h
REM seed -381936134 1815896159 900524474 397573500 2086237787 415642910 -2102746299 1137209147 1283350985 -613092769 -1853233043 -1581262193 -1238532677 1305867504 1322333558 -983696770 -1411179361 204461678 -878243129 1974332591 388741487 1488232618 1830251100 -1453720793 -1662135272 996801373 -1301089819 311000156 1912231810 -2060837699 1219977552 59816350 -1362101586
REM
CELL 1.54180   50.00000   50.00000   50.00000   90.00000   90.00000   90.00000
LATT -1
SFAC C  
C      1  0.4365290000000  0.4938300000000  0.4324130000000 1.0
C      1  0.5634710000000  0.5061700000000  0.5675870000000 1.0
C      1  0.5894410000000  0.4838030000000  0.5096700000000 1.0
C      1  0.4105590000000  0.5161970000000  0.4903300000000 1.0
C      1  0.3901870000000  0.5182470000000  0.4696630000000 1.0
C      1  0.6098130000000  0.4817530000000  0.5303370000000 1.0
C      1  0.5490280000000  0.5095780000000  0.4604710000000 1.0
C      1  0.4509720000000  0.4904220000000  0.5395290000000 1.0
C      1  0.5043220000000  0.5046140000000  0.5459040000000 1.0
C      1  0.4956780000000  0.4953860000000  0.4540960000000 1.0
C      1  0.5148290000000  0.4577380000000  0.4661890000000 1.0
C      1  0.4851710000000  0.5422620000000  0.5338110000000 1.0
C      1  0.5452380000000  0.4850950000000  0.5597520000000 1.0
C      1  0.4547620000000  0.5149050000000  0.4402480000000 1.0
C      1  0.5041210000000  0.5539090000000  0.4455800000000 1.0
C      1  0.4958790000000  0.4460910000000  0.5544200000000 1.0
C      1  0.5822300000000  0.5340590000000  0.5114290000000 1.0
C      1  0.4177700000000  0.4659410000000  0.4885710000000 1.0
C      1  0.4886040000000  0.4927050000000  0.5675330000000 1.0
C      1  0.5113960000000  0.5072950000000  0.4324670000000 1.0
C      1  0.4402210000000  0.4600760000000  0.4709710000000 1.0
C      1  0.5597790000000  0.5399240000000  0.5290290000000 1.0
C      1  0.5204640000000  0.4772080000000  0.4877970000000 1.0
C      1  0.4795360000000  0.5227920000000  0.5122030000000 1.0
C      1  0.4770780000000  0.5323990000000  0.4840260000000 1.0
C      1  0.5229220000000  0.4676010000000  0.5159740000000 1.0
C      1  0.4973850000000  0.4523090000000  0.5256490000000 1.0
C      1  0.5026150000000  0.5476910000000  0.4743510000000 1.0
C      1  0.4376470000000  0.4668190000000  0.4427580000000 1.0
C      1  0.5623530000000  0.5331810000000  0.5572420000000 1.0
C      1  0.4723690000000  0.5097730000000  0.4638790000000 1.0
C      1  0.5276310000000  0.4902270000000  0.5361210000000 1.0
C      1  0.4886570000000  0.4455490000000  0.4650010000000 1.0
C      1  0.5113430000000  0.5544510000000  0.5349990000000 1.0
C      1  0.4666250000000  0.4524570000000  0.4824120000000 1.0
C      1  0.5333750000000  0.5475430000000  0.5175880000000 1.0
C      1  0.4513630000000  0.5480270000000  0.4836430000000 1.0
C      1  0.5486370000000  0.4519730000000  0.5163570000000 1.0
C      1  0.4596730000000  0.4981760000000  0.5665090000000 1.0
C      1  0.5403270000000  0.5018240000000  0.4334910000000 1.0
C      1  0.4705010000000  0.4960850000000  0.5189100000000 1.0
C      1  0.5294990000000  0.5039150000000  0.4810900000000 1.0
C      1  0.5460110000000  0.4736990000000  0.4282850000000 1.0
C      1  0.4539890000000  0.5263010000000  0.5717150000000 1.0
C      1  0.4654780000000  0.5471030000000  0.5551600000000 1.0
C      1  0.5345220000000  0.4528970000000  0.4448400000000 1.0
C      1  0.4990540000000  0.5337100000000  0.4247890000000 1.0
C      1  0.5009460000000  0.4662900000000  0.5752110000000 1.0
C      1  0.5300240000000  0.4700190000000  0.5800520000000 1.0
C      1  0.4699760000000  0.5299810000000  0.4199480000000 1.0
C      1  0.5287720000000  0.5452210000000  0.4886570000000 1.0
C      1  0.4712280000000  0.4547790000000  0.5113430000000 1.0
C      1  0.5766830000000  0.5100810000000  0.4682070000000 1.0
C      1  0.4233170000000  0.4899190000000  0.5317930000000 1.0
C      1  0.5851470000000  0.5096300000000  0.4958720000000 1.0
C      1  0.4148530000000  0.4903700000000  0.5041280000000 1.0
C      1  0.4267130000000  0.5398850000000  0.4973050000000 1.0
C      1  0.5732870000000  0.4601150000000  0.5026950000000 1.0
END
