TITL C-862133-5440-637 -0.000538506354072816 125000 -233.944114817615 0 0 43 (C2) n - 1
REM
REM in /home/nfs/bkarasulu/CARBON/AIRSS/Generating-Clusters/TERSOFF/Higher-Symm/FIRE-HFTN
REM
REM
REM
REM
REM
REM ./C.cell (b20cbc046b6831c77cfcea5457e17084)
REM AIRSS Version 0.9.1 bugfix July 2018 build 013d7b7c2542+ Fri, 06 Jul 2018 19:26:36 +0100
REM compiler GCC version 9.2.1 20190827 (Red Hat 9.2.1-1)
REM options -cpp -mtune=generic -march=x86-64 -g -O0 -fpre-include=/usr/include/finclude/math-vector-fortran.h
REM seed -821804283 -1717910246 -1290056690 -1780089066 925022495 -1449347789 88858416 1700584225 1737877841 1133477779 306390831 -979476830 -53126731 1710829972 69401753 -1486719826 1935954023 -1705854150 -594848153 -1922148510 682165208 546182204 1023300875 1834861804 969283431 -1738634628 -617609965 -1763619058 -1191492522 -1093893261 257135551 -246799378 -1894004732
REM
CELL 1.54180   50.00000   50.00000   50.00000   90.00000   90.00000   90.00000
LATT -1
SFAC C  
C      1  0.5018760000000  0.4794590000000  0.5105490000000 1.0
C      1  0.4983790000000  0.5210210000000  0.5105500000000 1.0
C      1  0.4726320000000  0.4967730000000  0.5141420000000 1.0
C      1  0.5276240000000  0.5037070000000  0.5141420000000 1.0
C      1  0.4677400000000  0.5380210000000  0.4337880000000 1.0
C      1  0.5325150000000  0.4624600000000  0.4337870000000 1.0
C      1  0.4998040000000  0.4270770000000  0.5654690000000 1.0
C      1  0.5004530000000  0.5734020000000  0.5654700000000 1.0
C      1  0.4587360000000  0.5248480000000  0.5236710000000 1.0
C      1  0.5415200000000  0.4756320000000  0.5236700000000 1.0
C      1  0.5111990000000  0.5604970000000  0.5162330000000 1.0
C      1  0.4890570000000  0.4399830000000  0.5162320000000 1.0
C      1  0.4939520000000  0.5264620000000  0.4393360000000 1.0
C      1  0.5063030000000  0.4740190000000  0.4393350000000 1.0
C      1  0.4784660000000  0.5308790000000  0.5461760000000 1.0
C      1  0.5217900000000  0.4696010000000  0.5461760000000 1.0
C      1  0.5536960000000  0.4841310000000  0.4735010000000 1.0
C      1  0.4465590000000  0.5163500000000  0.4735020000000 1.0
C      1  0.5501770000000  0.5407990000000  0.4888850000000 1.0
C      1  0.4500780000000  0.4596810000000  0.4888850000000 1.0
C      1  0.5384440000000  0.4663150000000  0.4946220000000 1.0
C      1  0.4618120000000  0.5341650000000  0.4946230000000 1.0
C      1  0.4609210000000  0.4516250000000  0.5156880000000 1.0
C      1  0.5393350000000  0.5488550000000  0.5156880000000 1.0
C      1  0.5142500000000  0.4957670000000  0.5623910000000 1.0
C      1  0.4860060000000  0.5047130000000  0.5623910000000 1.0
C      1  0.5057000000000  0.4558080000000  0.4895380000000 1.0
C      1  0.4945560000000  0.5446720000000  0.4895390000000 1.0
C      1  0.4583620000000  0.4765010000000  0.5321630000000 1.0
C      1  0.5418940000000  0.5239790000000  0.5321630000000 1.0
C      1  0.4899990000000  0.4636480000000  0.4628560000000 1.0
C      1  0.5102560000000  0.5368330000000  0.4628570000000 1.0
C      1  0.4441050000000  0.5298040000000  0.4478470000000 1.0
C      1  0.5561500000000  0.4706770000000  0.4478460000000 1.0
C      1  0.4665080000000  0.4827600000000  0.5595190000000 1.0
C      1  0.5337480000000  0.5177200000000  0.5595190000000 1.0
C      1  0.4866350000000  0.5039720000000  0.4740400000000 1.0
C      1  0.5136210000000  0.4965080000000  0.4740400000000 1.0
C      1  0.5388790000000  0.5171450000000  0.4715800000000 1.0
C      1  0.4613760000000  0.4833350000000  0.4715800000000 1.0
C      1  0.5035780000000  0.4453060000000  0.5431270000000 1.0
C      1  0.4966780000000  0.5551740000000  0.5431270000000 1.0
C      1  0.5001270000000  0.5002410000000  0.4261350000000 1.0
END
