TITL C-862129-6180-1210 57.4481791980317 125000 -1114.65233641949 0 0 195 (C1) n - 1
REM
REM in /home/nfs/bkarasulu/CARBON/AIRSS/Generating-Clusters/TERSOFF/Higher-Symm/FIRE-HFTN
REM
REM
REM
REM
REM
REM ./C.cell (b20cbc046b6831c77cfcea5457e17084)
REM AIRSS Version 0.9.1 bugfix July 2018 build 013d7b7c2542+ Fri, 06 Jul 2018 19:26:36 +0100
REM compiler GCC version 9.2.1 20190827 (Red Hat 9.2.1-1)
REM options -cpp -mtune=generic -march=x86-64 -g -O0 -fpre-include=/usr/include/finclude/math-vector-fortran.h
REM seed -43005391 -1094614371 -1296599767 1764028737 -596492704 123025120 -1030756713 -256202263 165237985 1911614114 -1726114409 914305257 363704741 697056859 859736915 1062833686 -152061800 1986436350 593485817 -1896902573 1450549794 -1759034730 1006844407 -1400129026 -1514935842 -2021109961 -954471817 -685778373 1873280722 -2001614574 2018822829 1489598784 1474699338
REM
CELL 1.54180   50.00000   50.00000   50.00000   90.00000   90.00000   90.00000
LATT -1
SFAC C  
C      1  0.5000800000000  0.5546250000000  0.4977210000000 1.0
C      1  0.5000160000000  0.4748800000000  0.4527230000000 1.0
C      1  0.4984690000000  0.4748970000000  0.5437640000000 1.0
C      1  0.4994710000000  0.4481150000000  0.4970650000000 1.0
C      1  0.5003730000000  0.5292070000000  0.4526160000000 1.0
C      1  0.4986670000000  0.5269750000000  0.5442820000000 1.0
C      1  0.4228040000000  0.4475900000000  0.4470080000000 1.0
C      1  0.4185610000000  0.4765090000000  0.5764450000000 1.0
C      1  0.4273180000000  0.5603950000000  0.4813330000000 1.0
C      1  0.4270640000000  0.5470460000000  0.4565870000000 1.0
C      1  0.4199890000000  0.5220940000000  0.5783570000000 1.0
C      1  0.4245930000000  0.4371640000000  0.4744540000000 1.0
C      1  0.5974660000000  0.4757940000000  0.5867830000000 1.0
C      1  0.5982990000000  0.5875420000000  0.4779670000000 1.0
C      1  0.5982690000000  0.4360170000000  0.4331760000000 1.0
C      1  0.5977350000000  0.5243520000000  0.5875070000000 1.0
C      1  0.5980070000000  0.4141370000000  0.4771480000000 1.0
C      1  0.5984720000000  0.5634150000000  0.4344260000000 1.0
C      1  0.6041130000000  0.5154800000000  0.4517740000000 1.0
C      1  0.6017990000000  0.4553540000000  0.5073640000000 1.0
C      1  0.5960740000000  0.5339620000000  0.5397920000000 1.0
C      1  0.5975900000000  0.4827130000000  0.4468750000000 1.0
C      1  0.6033090000000  0.5473540000000  0.5094270000000 1.0
C      1  0.5958520000000  0.4675040000000  0.5387040000000 1.0
C      1  0.3570830000000  0.4862680000000  0.4709230000000 1.0
C      1  0.3580330000000  0.4847790000000  0.5244920000000 1.0
C      1  0.3562100000000  0.5319070000000  0.4993220000000 1.0
C      1  0.3555830000000  0.5175540000000  0.4718890000000 1.0
C      1  0.3582010000000  0.5154980000000  0.5256010000000 1.0
C      1  0.3566960000000  0.4701880000000  0.4973660000000 1.0
C      1  0.4456160000000  0.4695930000000  0.5631070000000 1.0
C      1  0.4515260000000  0.5683660000000  0.4941720000000 1.0
C      1  0.4485790000000  0.4620700000000  0.4381330000000 1.0
C      1  0.4463580000000  0.5321510000000  0.5658160000000 1.0
C      1  0.4499270000000  0.4324680000000  0.4882050000000 1.0
C      1  0.4511430000000  0.5399620000000  0.4427500000000 1.0
C      1  0.5645290000000  0.6145450000000  0.5395130000000 1.0
C      1  0.5596970000000  0.4725230000000  0.3764280000000 1.0
C      1  0.5598200000000  0.4105410000000  0.5828000000000 1.0
C      1  0.5641160000000  0.3873990000000  0.5376090000000 1.0
C      1  0.5641500000000  0.5242810000000  0.3788960000000 1.0
C      1  0.5601240000000  0.5905460000000  0.5847220000000 1.0
C      1  0.5856700000000  0.5969650000000  0.5297020000000 1.0
C      1  0.5817700000000  0.4756930000000  0.3953460000000 1.0
C      1  0.5813110000000  0.4258850000000  0.5702940000000 1.0
C      1  0.5850060000000  0.4052200000000  0.5276600000000 1.0
C      1  0.5856390000000  0.5237660000000  0.3986730000000 1.0
C      1  0.5816230000000  0.5752290000000  0.5722030000000 1.0
C      1  0.5270380000000  0.4396040000000  0.5595590000000 1.0
C      1  0.5318950000000  0.5808240000000  0.5240500000000 1.0
C      1  0.5279830000000  0.4784980000000  0.4139710000000 1.0
C      1  0.5271870000000  0.5617800000000  0.5611560000000 1.0
C      1  0.5309330000000  0.4206950000000  0.5222880000000 1.0
C      1  0.5320910000000  0.5202020000000  0.4163060000000 1.0
C      1  0.4940650000000  0.5727320000000  0.4747060000000 1.0
C      1  0.4943080000000  0.4461890000000  0.4494840000000 1.0
C      1  0.4922370000000  0.4863540000000  0.5698560000000 1.0
C      1  0.4942680000000  0.4306550000000  0.4737750000000 1.0
C      1  0.4940380000000  0.5582940000000  0.4490940000000 1.0
C      1  0.4927250000000  0.5148720000000  0.5702590000000 1.0
C      1  0.5028800000000  0.4466250000000  0.5456040000000 1.0
C      1  0.5060980000000  0.5686730000000  0.5218760000000 1.0
C      1  0.5042970000000  0.4874820000000  0.4273950000000 1.0
C      1  0.5032310000000  0.5552070000000  0.5465650000000 1.0
C      1  0.5054160000000  0.4335180000000  0.5208120000000 1.0
C      1  0.5064710000000  0.5156460000000  0.4282230000000 1.0
C      1  0.4610700000000  0.5546980000000  0.4037340000000 1.0
C      1  0.4620350000000  0.3926990000000  0.4985910000000 1.0
C      1  0.4669850000000  0.5382680000000  0.6087980000000 1.0
C      1  0.4661350000000  0.4253680000000  0.4115310000000 1.0
C      1  0.4613780000000  0.6092770000000  0.5020400000000 1.0
C      1  0.4649860000000  0.4608740000000  0.6062370000000 1.0
C      1  0.5256990000000  0.4300770000000  0.4106580000000 1.0
C      1  0.5257090000000  0.4583170000000  0.6043990000000 1.0
C      1  0.5264040000000  0.6091580000000  0.4867630000000 1.0
C      1  0.5263860000000  0.5667080000000  0.4115610000000 1.0
C      1  0.5262550000000  0.5419750000000  0.6056680000000 1.0
C      1  0.5270310000000  0.3906180000000  0.4857710000000 1.0
C      1  0.4572940000000  0.4798770000000  0.3900500000000 1.0
C      1  0.4577630000000  0.4192740000000  0.5681100000000 1.0
C      1  0.4637000000000  0.5935990000000  0.5426070000000 1.0
C      1  0.4633780000000  0.5117400000000  0.3955410000000 1.0
C      1  0.4575130000000  0.5827170000000  0.5730150000000 1.0
C      1  0.4633320000000  0.4081870000000  0.5377010000000 1.0
C      1  0.4348200000000  0.5348040000000  0.6061230000000 1.0
C      1  0.4321820000000  0.5432570000000  0.3990460000000 1.0
C      1  0.4335810000000  0.3947830000000  0.5112580000000 1.0
C      1  0.4330310000000  0.4629530000000  0.6033810000000 1.0
C      1  0.4343030000000  0.4270710000000  0.4198550000000 1.0
C      1  0.4330270000000  0.6070220000000  0.5150830000000 1.0
C      1  0.4033090000000  0.4717810000000  0.4430940000000 1.0
C      1  0.4009530000000  0.4645130000000  0.5531500000000 1.0
C      1  0.4044580000000  0.5601890000000  0.4989740000000 1.0
C      1  0.4037510000000  0.5326020000000  0.4476580000000 1.0
C      1  0.4014780000000  0.5343960000000  0.5557170000000 1.0
C      1  0.4032340000000  0.4397430000000  0.4945330000000 1.0
C      1  0.4818280000000  0.4333050000000  0.3870980000000 1.0
C      1  0.4812820000000  0.4365590000000  0.6114560000000 1.0
C      1  0.4824150000000  0.6266230000000  0.5131780000000 1.0
C      1  0.4820920000000  0.5535150000000  0.3830110000000 1.0
C      1  0.4827930000000  0.5628720000000  0.6143250000000 1.0
C      1  0.4826830000000  0.3746820000000  0.5093720000000 1.0
C      1  0.4130360000000  0.4373730000000  0.5463250000000 1.0
C      1  0.4158230000000  0.5762400000000  0.5223570000000 1.0
C      1  0.4130280000000  0.4893420000000  0.4200310000000 1.0
C      1  0.4123430000000  0.5627620000000  0.5505650000000 1.0
C      1  0.4162460000000  0.4247640000000  0.5177560000000 1.0
C      1  0.4148650000000  0.5209150000000  0.4214020000000 1.0
C      1  0.5718460000000  0.4093040000000  0.4641110000000 1.0
C      1  0.5711520000000  0.5151890000000  0.5972430000000 1.0
C      1  0.5720400000000  0.5763980000000  0.4380330000000 1.0
C      1  0.5719730000000  0.5913400000000  0.4648330000000 1.0
C      1  0.5709830000000  0.4849400000000  0.5968360000000 1.0
C      1  0.5715450000000  0.4235160000000  0.4371730000000 1.0
C      1  0.4789260000000  0.5312190000000  0.4980580000000 1.0
C      1  0.4789990000000  0.4871270000000  0.4719790000000 1.0
C      1  0.4780710000000  0.4862970000000  0.5229980000000 1.0
C      1  0.4785310000000  0.4718420000000  0.4976120000000 1.0
C      1  0.4791850000000  0.5165030000000  0.4721590000000 1.0
C      1  0.4782140000000  0.5162760000000  0.5232430000000 1.0
C      1  0.5127570000000  0.5920670000000  0.4171170000000 1.0
C      1  0.5152990000000  0.3794240000000  0.4614130000000 1.0
C      1  0.5166450000000  0.5256640000000  0.6279350000000 1.0
C      1  0.5146660000000  0.4034450000000  0.4156420000000 1.0
C      1  0.5126250000000  0.6175150000000  0.4622760000000 1.0
C      1  0.5162460000000  0.4740420000000  0.6271500000000 1.0
C      1  0.4697290000000  0.4137610000000  0.4775010000000 1.0
C      1  0.4694160000000  0.5271000000000  0.5816340000000 1.0
C      1  0.4689070000000  0.5610120000000  0.4328450000000 1.0
C      1  0.4689440000000  0.5879780000000  0.4811700000000 1.0
C      1  0.4681610000000  0.4743550000000  0.5801270000000 1.0
C      1  0.4705220000000  0.4444860000000  0.4335140000000 1.0
C      1  0.5795200000000  0.5683640000000  0.5223010000000 1.0
C      1  0.5764300000000  0.4827910000000  0.4239680000000 1.0
C      1  0.5750960000000  0.4471400000000  0.5500750000000 1.0
C      1  0.5785290000000  0.4338760000000  0.5204600000000 1.0
C      1  0.5800220000000  0.5153290000000  0.4271070000000 1.0
C      1  0.5754880000000  0.5543250000000  0.5515670000000 1.0
C      1  0.5477260000000  0.4694900000000  0.5868790000000 1.0
C      1  0.5498320000000  0.5894730000000  0.4844070000000 1.0
C      1  0.5485010000000  0.4400540000000  0.4279450000000 1.0
C      1  0.5480360000000  0.5311490000000  0.5877930000000 1.0
C      1  0.5495390000000  0.4111090000000  0.4832160000000 1.0
C      1  0.5500570000000  0.5585430000000  0.4293380000000 1.0
C      1  0.5310560000000  0.4114600000000  0.5725230000000 1.0
C      1  0.5360900000000  0.6053020000000  0.5429050000000 1.0
C      1  0.5310750000000  0.4809820000000  0.3831360000000 1.0
C      1  0.5313120000000  0.5897080000000  0.5744470000000 1.0
C      1  0.5354990000000  0.3962510000000  0.5411760000000 1.0
C      1  0.5358070000000  0.5166030000000  0.3855590000000 1.0
C      1  0.4892430000000  0.4149820000000  0.5712220000000 1.0
C      1  0.4943810000000  0.6017040000000  0.5447980000000 1.0
C      1  0.4891910000000  0.4799910000000  0.3860710000000 1.0
C      1  0.4894150000000  0.5869520000000  0.5751240000000 1.0
C      1  0.4936930000000  0.3991670000000  0.5416690000000 1.0
C      1  0.4941020000000  0.5136140000000  0.3882710000000 1.0
C      1  0.6095170000000  0.5604390000000  0.4819200000000 1.0
C      1  0.6091330000000  0.4555820000000  0.4531410000000 1.0
C      1  0.6078860000000  0.4850680000000  0.5602210000000 1.0
C      1  0.6085960000000  0.4415960000000  0.4803000000000 1.0
C      1  0.6097190000000  0.5458050000000  0.4553820000000 1.0
C      1  0.6080530000000  0.5157800000000  0.5606830000000 1.0
C      1  0.4505300000000  0.5701540000000  0.5249640000000 1.0
C      1  0.4432440000000  0.4829110000000  0.4184920000000 1.0
C      1  0.4431820000000  0.4421580000000  0.5519400000000 1.0
C      1  0.4499280000000  0.4325490000000  0.5196260000000 1.0
C      1  0.4497230000000  0.5150040000000  0.4246830000000 1.0
C      1  0.4427380000000  0.5598010000000  0.5561020000000 1.0
C      1  0.5201950000000  0.5157210000000  0.5242390000000 1.0
C      1  0.5211710000000  0.5168080000000  0.4729270000000 1.0
C      1  0.5205260000000  0.4717460000000  0.4977210000000 1.0
C      1  0.5200550000000  0.4865230000000  0.5239890000000 1.0
C      1  0.5209890000000  0.4865850000000  0.4726600000000 1.0
C      1  0.5209200000000  0.5310550000000  0.4981890000000 1.0
C      1  0.5490750000000  0.4578150000000  0.5602590000000 1.0
C      1  0.5534070000000  0.5719400000000  0.5076430000000 1.0
C      1  0.5503870000000  0.4690630000000  0.4291200000000 1.0
C      1  0.5493240000000  0.5435620000000  0.5615200000000 1.0
C      1  0.5524090000000  0.4295290000000  0.5058340000000 1.0
C      1  0.5538750000000  0.5295740000000  0.4320770000000 1.0
C      1  0.5085880000000  0.4290410000000  0.5956980000000 1.0
C      1  0.5125930000000  0.6175780000000  0.5181270000000 1.0
C      1  0.5086450000000  0.4520540000000  0.3877970000000 1.0
C      1  0.5093640000000  0.5716830000000  0.5977990000000 1.0
C      1  0.5126580000000  0.3834530000000  0.5161220000000 1.0
C      1  0.5123010000000  0.5442310000000  0.3882150000000 1.0
C      1  0.3889280000000  0.5174300000000  0.4691750000000 1.0
C      1  0.3899470000000  0.4664420000000  0.4978110000000 1.0
C      1  0.3907650000000  0.5178710000000  0.5321640000000 1.0
C      1  0.3900730000000  0.4842470000000  0.4673770000000 1.0
C      1  0.3895120000000  0.5341210000000  0.5011030000000 1.0
C      1  0.3905700000000  0.4817660000000  0.5305050000000 1.0
C      1  0.5007380000000  0.5992710000000  0.4427720000000 1.0
C      1  0.5021380000000  0.3950290000000  0.4405920000000 1.0
C      1  0.5031790000000  0.4999920000000  0.6251300000000 1.0
END
