TITL C-862127-1500-279 36.8354624252062 125000 -1152.06167170766 0 0 195 (C1) n - 1
REM
REM in /home/nfs/bkarasulu/CARBON/AIRSS/Generating-Clusters/TERSOFF/Higher-Symm/FIRE-HFTN
REM
REM
REM
REM
REM
REM ./C.cell (b20cbc046b6831c77cfcea5457e17084)
REM AIRSS Version 0.9.1 bugfix July 2018 build 013d7b7c2542+ Fri, 06 Jul 2018 19:26:36 +0100
REM compiler GCC version 9.2.1 20190827 (Red Hat 9.2.1-1)
REM options -cpp -mtune=generic -march=x86-64 -g -O0 -fpre-include=/usr/include/finclude/math-vector-fortran.h
REM seed -1947214481 -363324062 520798207 1501565163 -1025348393 -1467367876 1915008877 614994732 -230258932 -871427304 -44337201 577208917 102247621 -1760938666 -2012163536 2088221218 954589894 14984759 -965709653 1833862072 -1390032479 -1983346545 1178109748 -2008386708 1086895930 -109841463 -50375641 -1121246560 1471860281 1098862662 -1463451400 398517104 -1387341647
REM
CELL 1.54180   50.00000   50.00000   50.00000   90.00000   90.00000   90.00000
LATT -1
SFAC C  
C      1  0.4404920000000  0.5738580000000  0.4766350000000 1.0
C      1  0.5197870000000  0.4687230000000  0.3746310000000 1.0
C      1  0.3963010000000  0.5607750000000  0.4774890000000 1.0
C      1  0.5088630000000  0.3977860000000  0.5492750000000 1.0
C      1  0.4875510000000  0.4549680000000  0.4804290000000 1.0
C      1  0.5264350000000  0.5941590000000  0.4645690000000 1.0
C      1  0.4181860000000  0.4874060000000  0.4799410000000 1.0
C      1  0.5107140000000  0.5039410000000  0.5177620000000 1.0
C      1  0.4927850000000  0.5052780000000  0.6102340000000 1.0
C      1  0.4091310000000  0.4699640000000  0.5768460000000 1.0
C      1  0.5188420000000  0.4690830000000  0.5877780000000 1.0
C      1  0.5052640000000  0.5713950000000  0.4271040000000 1.0
C      1  0.6061230000000  0.5820770000000  0.4714220000000 1.0
C      1  0.5539610000000  0.4155050000000  0.5024370000000 1.0
C      1  0.5323720000000  0.3937560000000  0.5663240000000 1.0
C      1  0.4861000000000  0.5073740000000  0.5368090000000 1.0
C      1  0.4698560000000  0.4129770000000  0.4386590000000 1.0
C      1  0.5798300000000  0.5768500000000  0.5915920000000 1.0
C      1  0.4681500000000  0.4130710000000  0.5370020000000 1.0
C      1  0.5938630000000  0.6050290000000  0.4581120000000 1.0
C      1  0.3907380000000  0.5573850000000  0.5297200000000 1.0
C      1  0.4560200000000  0.3713420000000  0.5217020000000 1.0
C      1  0.4725490000000  0.5147260000000  0.5662760000000 1.0
C      1  0.5745650000000  0.5979750000000  0.5726440000000 1.0
C      1  0.5450290000000  0.5321580000000  0.5622740000000 1.0
C      1  0.4806790000000  0.5906160000000  0.4273730000000 1.0
C      1  0.4176040000000  0.5546780000000  0.5926980000000 1.0
C      1  0.4499110000000  0.4483240000000  0.4622480000000 1.0
C      1  0.4519060000000  0.5059410000000  0.3915420000000 1.0
C      1  0.4338760000000  0.5271210000000  0.5016340000000 1.0
C      1  0.5239220000000  0.3852260000000  0.4982220000000 1.0
C      1  0.5239790000000  0.6225010000000  0.4954580000000 1.0
C      1  0.4109770000000  0.5143720000000  0.4891230000000 1.0
C      1  0.4219990000000  0.5287410000000  0.5799110000000 1.0
C      1  0.5564100000000  0.4806140000000  0.5057420000000 1.0
C      1  0.5466850000000  0.5264120000000  0.4434690000000 1.0
C      1  0.4773560000000  0.4836290000000  0.6241080000000 1.0
C      1  0.6075830000000  0.5301080000000  0.5245500000000 1.0
C      1  0.3730190000000  0.4834870000000  0.5460000000000 1.0
C      1  0.4802270000000  0.5325740000000  0.6115740000000 1.0
C      1  0.5918410000000  0.5176460000000  0.5460430000000 1.0
C      1  0.5292360000000  0.5761270000000  0.4110500000000 1.0
C      1  0.4919610000000  0.5003930000000  0.4650380000000 1.0
C      1  0.5393520000000  0.5713260000000  0.4753690000000 1.0
C      1  0.5108760000000  0.4267260000000  0.4599810000000 1.0
C      1  0.4790720000000  0.3982230000000  0.5614280000000 1.0
C      1  0.5000030000000  0.6317000000000  0.5104770000000 1.0
C      1  0.3891350000000  0.4914360000000  0.5707940000000 1.0
C      1  0.5932350000000  0.5552690000000  0.4727790000000 1.0
C      1  0.4457100000000  0.4419860000000  0.5106780000000 1.0
C      1  0.4769120000000  0.4428470000000  0.5050070000000 1.0
C      1  0.5481920000000  0.3945940000000  0.4815610000000 1.0
C      1  0.4394770000000  0.4617920000000  0.4182450000000 1.0
C      1  0.5291470000000  0.4677170000000  0.4246660000000 1.0
C      1  0.5480760000000  0.5555420000000  0.4029540000000 1.0
C      1  0.4369110000000  0.5098290000000  0.5991850000000 1.0
C      1  0.4538270000000  0.6068110000000  0.4989730000000 1.0
C      1  0.5061970000000  0.4427600000000  0.3856490000000 1.0
C      1  0.6063630000000  0.5599900000000  0.5201460000000 1.0
C      1  0.5120510000000  0.5657900000000  0.5858990000000 1.0
C      1  0.5293270000000  0.4801980000000  0.5192710000000 1.0
C      1  0.4435390000000  0.4800380000000  0.5394640000000 1.0
C      1  0.4761370000000  0.6152020000000  0.5174180000000 1.0
C      1  0.4565490000000  0.5045590000000  0.5288120000000 1.0
C      1  0.5796610000000  0.4222520000000  0.5123460000000 1.0
C      1  0.5577740000000  0.4297230000000  0.4453740000000 1.0
C      1  0.4457710000000  0.5299680000000  0.5604600000000 1.0
C      1  0.5055610000000  0.5801080000000  0.5204190000000 1.0
C      1  0.6018150000000  0.4667120000000  0.4401080000000 1.0
C      1  0.4642270000000  0.3914000000000  0.5012580000000 1.0
C      1  0.4795420000000  0.6064540000000  0.4532310000000 1.0
C      1  0.3844770000000  0.4572140000000  0.5325710000000 1.0
C      1  0.4051900000000  0.4501010000000  0.5545170000000 1.0
C      1  0.5356700000000  0.5493070000000  0.5857710000000 1.0
C      1  0.4437300000000  0.4818670000000  0.4646220000000 1.0
C      1  0.4391370000000  0.4360960000000  0.5769480000000 1.0
C      1  0.5685510000000  0.4491770000000  0.5866480000000 1.0
C      1  0.4285480000000  0.4449050000000  0.4408480000000 1.0
C      1  0.4365970000000  0.5805340000000  0.5076540000000 1.0
C      1  0.5857680000000  0.5994220000000  0.5460340000000 1.0
C      1  0.4371990000000  0.4869620000000  0.4350890000000 1.0
C      1  0.5802530000000  0.4784130000000  0.5774330000000 1.0
C      1  0.5200210000000  0.5258260000000  0.4968720000000 1.0
C      1  0.5115290000000  0.4048710000000  0.5183800000000 1.0
C      1  0.5183300000000  0.4982850000000  0.5958950000000 1.0
C      1  0.4979960000000  0.5432760000000  0.4396080000000 1.0
C      1  0.5333810000000  0.3992950000000  0.5950620000000 1.0
C      1  0.5901440000000  0.4882490000000  0.5490330000000 1.0
C      1  0.4295220000000  0.4676580000000  0.6028400000000 1.0
C      1  0.4399780000000  0.4309200000000  0.4841660000000 1.0
C      1  0.4906540000000  0.5824990000000  0.4954250000000 1.0
C      1  0.5435980000000  0.6125860000000  0.4496430000000 1.0
C      1  0.3912340000000  0.4467100000000  0.4783480000000 1.0
C      1  0.5352940000000  0.5043160000000  0.5704410000000 1.0
C      1  0.5555210000000  0.5793670000000  0.5055870000000 1.0
C      1  0.5260170000000  0.4247670000000  0.6074280000000 1.0
C      1  0.5449990000000  0.4770600000000  0.3982030000000 1.0
C      1  0.5716790000000  0.5529110000000  0.4946050000000 1.0
C      1  0.5738010000000  0.4895040000000  0.4026270000000 1.0
C      1  0.3977340000000  0.5322310000000  0.4694200000000 1.0
C      1  0.4381250000000  0.5740460000000  0.5924920000000 1.0
C      1  0.5929520000000  0.5078160000000  0.4848750000000 1.0
C      1  0.4998500000000  0.4709490000000  0.4252950000000 1.0
C      1  0.3985050000000  0.5186750000000  0.5659310000000 1.0
C      1  0.4853640000000  0.5553770000000  0.5930670000000 1.0
C      1  0.4580520000000  0.5520900000000  0.4693320000000 1.0
C      1  0.6152220000000  0.5125610000000  0.5018630000000 1.0
C      1  0.4931490000000  0.5193130000000  0.4205870000000 1.0
C      1  0.5483300000000  0.5284840000000  0.4136760000000 1.0
C      1  0.5669990000000  0.5061590000000  0.4961170000000 1.0
C      1  0.6036800000000  0.5147080000000  0.4380860000000 1.0
C      1  0.6343760000000  0.4905510000000  0.5033760000000 1.0
C      1  0.4504040000000  0.5582930000000  0.3971660000000 1.0
C      1  0.4848200000000  0.4597220000000  0.4023470000000 1.0
C      1  0.5257540000000  0.4535590000000  0.5306740000000 1.0
C      1  0.4582740000000  0.5697280000000  0.4228600000000 1.0
C      1  0.5802630000000  0.4333700000000  0.4063690000000 1.0
C      1  0.5075340000000  0.5157020000000  0.3961040000000 1.0
C      1  0.3764970000000  0.4930370000000  0.4995940000000 1.0
C      1  0.4645040000000  0.5024340000000  0.4735560000000 1.0
C      1  0.4692650000000  0.4233310000000  0.5786990000000 1.0
C      1  0.5265190000000  0.4393570000000  0.4814370000000 1.0
C      1  0.4106980000000  0.5014320000000  0.4283300000000 1.0
C      1  0.4815510000000  0.4383880000000  0.4520740000000 1.0
C      1  0.5462890000000  0.4039310000000  0.4532100000000 1.0
C      1  0.5519450000000  0.4809800000000  0.5648450000000 1.0
C      1  0.5104700000000  0.5884070000000  0.5679750000000 1.0
C      1  0.4966700000000  0.4866630000000  0.3678610000000 1.0
C      1  0.5065220000000  0.5270000000000  0.4685060000000 1.0
C      1  0.6353570000000  0.4698110000000  0.4827430000000 1.0
C      1  0.4838880000000  0.4127670000000  0.5120900000000 1.0
C      1  0.3871060000000  0.4653640000000  0.5017720000000 1.0
C      1  0.5370020000000  0.5397430000000  0.5326450000000 1.0
C      1  0.4904380000000  0.4955550000000  0.4363600000000 1.0
C      1  0.4692920000000  0.5518540000000  0.4435910000000 1.0
C      1  0.4457930000000  0.4016680000000  0.4805470000000 1.0
C      1  0.4153480000000  0.5770070000000  0.4615620000000 1.0
C      1  0.5699550000000  0.6013640000000  0.4414690000000 1.0
C      1  0.5804040000000  0.4701480000000  0.5265710000000 1.0
C      1  0.5656960000000  0.4344130000000  0.5585000000000 1.0
C      1  0.5516480000000  0.4989000000000  0.4563300000000 1.0
C      1  0.4995460000000  0.4274730000000  0.6201920000000 1.0
C      1  0.5958440000000  0.4397290000000  0.4307270000000 1.0
C      1  0.4628760000000  0.3736510000000  0.5504720000000 1.0
C      1  0.5816620000000  0.4411600000000  0.5336300000000 1.0
C      1  0.5266250000000  0.3988670000000  0.4059630000000 1.0
C      1  0.4400130000000  0.5343450000000  0.5308110000000 1.0
C      1  0.3921280000000  0.4787240000000  0.4369220000000 1.0
C      1  0.5391360000000  0.4496130000000  0.5982700000000 1.0
C      1  0.4409930000000  0.4228990000000  0.5330230000000 1.0
C      1  0.5754020000000  0.5339110000000  0.5638070000000 1.0
C      1  0.4493070000000  0.5638770000000  0.5291800000000 1.0
C      1  0.5313750000000  0.3893340000000  0.4331190000000 1.0
C      1  0.5830930000000  0.5786910000000  0.5256950000000 1.0
C      1  0.4573010000000  0.4934600000000  0.5830240000000 1.0
C      1  0.4929710000000  0.5870530000000  0.5449720000000 1.0
C      1  0.4614770000000  0.5335560000000  0.3857360000000 1.0
C      1  0.5526580000000  0.5299840000000  0.5017220000000 1.0
C      1  0.5424830000000  0.4543800000000  0.5541800000000 1.0
C      1  0.4016920000000  0.4545840000000  0.4508640000000 1.0
C      1  0.4765290000000  0.4513200000000  0.5656510000000 1.0
C      1  0.4629390000000  0.5689010000000  0.5790660000000 1.0
C      1  0.4028150000000  0.5274350000000  0.4403430000000 1.0
C      1  0.5353320000000  0.5081760000000  0.3974770000000 1.0
C      1  0.5025540000000  0.4621090000000  0.5645800000000 1.0
C      1  0.4555800000000  0.5277850000000  0.4840790000000 1.0
C      1  0.4994130000000  0.5977270000000  0.4721400000000 1.0
C      1  0.5532690000000  0.4437300000000  0.4000870000000 1.0
C      1  0.5673030000000  0.5725880000000  0.4361680000000 1.0
C      1  0.5437680000000  0.4552760000000  0.4466230000000 1.0
C      1  0.4613040000000  0.4622460000000  0.6108220000000 1.0
C      1  0.3718320000000  0.5069010000000  0.5257370000000 1.0
C      1  0.4520660000000  0.5264820000000  0.6183610000000 1.0
C      1  0.5878590000000  0.5500270000000  0.5845310000000 1.0
C      1  0.5323460000000  0.5678520000000  0.5219400000000 1.0
C      1  0.4225990000000  0.4271830000000  0.5544590000000 1.0
C      1  0.5375340000000  0.4822420000000  0.4781510000000 1.0
C      1  0.4664610000000  0.5759620000000  0.5506760000000 1.0
C      1  0.5061680000000  0.4792690000000  0.4790250000000 1.0
C      1  0.4225820000000  0.5016580000000  0.3985610000000 1.0
C      1  0.4709640000000  0.4825000000000  0.3840180000000 1.0
C      1  0.5278660000000  0.4303030000000  0.5114770000000 1.0
C      1  0.6284040000000  0.4754350000000  0.4547710000000 1.0
C      1  0.5917380000000  0.5400050000000  0.4463960000000 1.0
C      1  0.5878830000000  0.4906520000000  0.4285010000000 1.0
C      1  0.4524120000000  0.3952440000000  0.4530300000000 1.0
C      1  0.4506040000000  0.4688160000000  0.5665570000000 1.0
C      1  0.6293720000000  0.5045830000000  0.4478520000000 1.0
C      1  0.4749580000000  0.4352210000000  0.6060830000000 1.0
C      1  0.4554810000000  0.6129430000000  0.4694650000000 1.0
C      1  0.5287070000000  0.4268690000000  0.3974320000000 1.0
C      1  0.5484020000000  0.6102970000000  0.5068280000000 1.0
C      1  0.4052540000000  0.5677910000000  0.5057430000000 1.0
C      1  0.5532820000000  0.5543870000000  0.4549480000000 1.0
C      1  0.3896610000000  0.5287820000000  0.5385120000000 1.0
END
