TITL C-862134-6730-872 0.00123678184397732 125000 -427.466264198932 0 0 72 (D6d) n - 1
REM
REM in /home/nfs/bkarasulu/CARBON/AIRSS/Generating-Clusters/TERSOFF/Higher-Symm/FIRE-HFTN
REM
REM
REM
REM
REM
REM ./C.cell (b20cbc046b6831c77cfcea5457e17084)
REM AIRSS Version 0.9.1 bugfix July 2018 build 013d7b7c2542+ Fri, 06 Jul 2018 19:26:36 +0100
REM compiler GCC version 9.2.1 20190827 (Red Hat 9.2.1-1)
REM options -cpp -mtune=generic -march=x86-64 -g -O0 -fpre-include=/usr/include/finclude/math-vector-fortran.h
REM seed -1746443772 -1868747789 468379435 1443228994 1348279528 -1402404670 -642524562 -1080143107 233150143 -355783847 -146222052 1271842729 1850705437 1164512737 -299335989 84492079 1021434982 936892798 2052585121 742041151 1879820037 1292993423 1406383451 -1598275337 -636821721 -121449413 -48451433 -870597727 248482107 -2052015912 1038046905 -1225861107 1479761452
REM
CELL 1.54180   50.00000   50.00000   50.00000   90.00000   90.00000   90.00000
LATT -1
SFAC C  
C      1  0.5302170000000  0.4425920000000  0.5545060000000 1.0
C      1  0.5534220000000  0.5574080000000  0.5320950000000 1.0
C      1  0.5623120000000  0.4425920000000  0.5010850000000 1.0
C      1  0.5545060000000  0.5574080000000  0.4697830000000 1.0
C      1  0.5320950000000  0.4425920000000  0.4465780000000 1.0
C      1  0.5010850000000  0.5574080000000  0.4376880000000 1.0
C      1  0.4697830000000  0.4425920000000  0.4454940000000 1.0
C      1  0.4465780000000  0.5574080000000  0.4679050000000 1.0
C      1  0.4376880000000  0.4425920000000  0.4989150000000 1.0
C      1  0.4454940000000  0.5574080000000  0.5302170000000 1.0
C      1  0.4679050000000  0.4425920000000  0.5534220000000 1.0
C      1  0.4989150000000  0.5574080000000  0.5623120000000 1.0
C      1  0.5144790000000  0.5892030000000  0.5261180000000 1.0
C      1  0.5255980000000  0.4107970000000  0.5153790000000 1.0
C      1  0.5298580000000  0.5892030000000  0.5005200000000 1.0
C      1  0.5261180000000  0.4107970000000  0.4855210000000 1.0
C      1  0.5153790000000  0.5892030000000  0.4744020000000 1.0
C      1  0.5005200000000  0.4107970000000  0.4701420000000 1.0
C      1  0.4855210000000  0.5892030000000  0.4738820000000 1.0
C      1  0.4744020000000  0.4107970000000  0.4846210000000 1.0
C      1  0.4701420000000  0.5892030000000  0.4994800000000 1.0
C      1  0.4738820000000  0.4107970000000  0.5144790000000 1.0
C      1  0.4846210000000  0.5892030000000  0.5255980000000 1.0
C      1  0.4994800000000  0.4107970000000  0.5298580000000 1.0
C      1  0.5607130000000  0.5295240000000  0.5364760000000 1.0
C      1  0.5708170000000  0.4704760000000  0.5012330000000 1.0
C      1  0.5619460000000  0.5295240000000  0.4656590000000 1.0
C      1  0.5364760000000  0.4704760000000  0.4392870000000 1.0
C      1  0.5012330000000  0.5295240000000  0.4291830000000 1.0
C      1  0.4656590000000  0.4704760000000  0.4380540000000 1.0
C      1  0.4392870000000  0.5295240000000  0.4635240000000 1.0
C      1  0.4291830000000  0.4704760000000  0.4987670000000 1.0
C      1  0.4380540000000  0.5295240000000  0.5343410000000 1.0
C      1  0.4635240000000  0.4704760000000  0.5607130000000 1.0
C      1  0.4987670000000  0.5295240000000  0.5708170000000 1.0
C      1  0.5343410000000  0.4704760000000  0.5619460000000 1.0
C      1  0.5459440000000  0.5064850000000  0.4745300000000 1.0
C      1  0.5270540000000  0.4935150000000  0.4549700000000 1.0
C      1  0.5009140000000  0.5064850000000  0.4474760000000 1.0
C      1  0.4745300000000  0.4935150000000  0.4540560000000 1.0
C      1  0.4549700000000  0.5064850000000  0.4729460000000 1.0
C      1  0.4474760000000  0.4935150000000  0.4990860000000 1.0
C      1  0.4540560000000  0.5064850000000  0.5254700000000 1.0
C      1  0.4729460000000  0.4935150000000  0.5450300000000 1.0
C      1  0.4990860000000  0.5064850000000  0.5525240000000 1.0
C      1  0.5254700000000  0.4935150000000  0.5459440000000 1.0
C      1  0.5450300000000  0.5064850000000  0.5270540000000 1.0
C      1  0.5525240000000  0.4935150000000  0.5009140000000 1.0
C      1  0.4850850000000  0.5445330000000  0.5248250000000 1.0
C      1  0.4994960000000  0.4554670000000  0.5289570000000 1.0
C      1  0.5140420000000  0.5445330000000  0.5253290000000 1.0
C      1  0.5248250000000  0.4554670000000  0.5149150000000 1.0
C      1  0.5289570000000  0.5445330000000  0.5005040000000 1.0
C      1  0.5253290000000  0.4554670000000  0.4859580000000 1.0
C      1  0.5149150000000  0.5445330000000  0.4751750000000 1.0
C      1  0.5005040000000  0.4554670000000  0.4710430000000 1.0
C      1  0.4859580000000  0.5445330000000  0.4746710000000 1.0
C      1  0.4751750000000  0.4554670000000  0.4850850000000 1.0
C      1  0.4710430000000  0.5445330000000  0.4994960000000 1.0
C      1  0.4746710000000  0.4554670000000  0.5140420000000 1.0
C      1  0.4744750000000  0.5671250000000  0.4539580000000 1.0
C      1  0.4548740000000  0.4328750000000  0.4728890000000 1.0
C      1  0.4473640000000  0.5671250000000  0.4990840000000 1.0
C      1  0.4539580000000  0.4328750000000  0.5255250000000 1.0
C      1  0.4728890000000  0.5671250000000  0.5451260000000 1.0
C      1  0.4990840000000  0.4328750000000  0.5526360000000 1.0
C      1  0.5255250000000  0.5671250000000  0.5460420000000 1.0
C      1  0.5451260000000  0.4328750000000  0.5271110000000 1.0
C      1  0.5526360000000  0.5671250000000  0.5009160000000 1.0
C      1  0.5460420000000  0.4328750000000  0.4744750000000 1.0
C      1  0.5271110000000  0.5671250000000  0.4548740000000 1.0
C      1  0.5009160000000  0.4328750000000  0.4473640000000 1.0
END
