TITL C-862129-6180-235 3.31142159629145e-05 125000 -228.197988440496 0 0 41 (C2) n - 1
REM
REM in /home/nfs/bkarasulu/CARBON/AIRSS/Generating-Clusters/TERSOFF/Higher-Symm/FIRE-HFTN
REM
REM
REM
REM
REM
REM ./C.cell (b20cbc046b6831c77cfcea5457e17084)
REM AIRSS Version 0.9.1 bugfix July 2018 build 013d7b7c2542+ Fri, 06 Jul 2018 19:26:36 +0100
REM compiler GCC version 9.2.1 20190827 (Red Hat 9.2.1-1)
REM options -cpp -mtune=generic -march=x86-64 -g -O0 -fpre-include=/usr/include/finclude/math-vector-fortran.h
REM seed -649626636 390601616 -1840786932 479461372 -798138199 -902381839 1304881992 -1007677155 -627899074 580692313 -860501366 -1094025388 -414678466 2030772036 806066819 1981116463 -1039783714 1112031019 1139927390 1327934180 99910240 1574778129 1299789914 711273685 -2013826417 -553335138 760783193 1702777537 163628279 -352269668 1784901072 -764478939 -2048228893
REM
CELL 1.54180   50.00000   50.00000   50.00000   90.00000   90.00000   90.00000
LATT -1
SFAC C  
C      1  0.5466600000000  0.5175770000000  0.5402910000000 1.0
C      1  0.4533210000000  0.5175770000000  0.4601170000000 1.0
C      1  0.4956580000000  0.4522990000000  0.5489120000000 1.0
C      1  0.5043230000000  0.4522990000000  0.4514970000000 1.0
C      1  0.5080090000000  0.5336460000000  0.4508590000000 1.0
C      1  0.4919720000000  0.5336460000000  0.5495490000000 1.0
C      1  0.4848980000000  0.4971710000000  0.4220140000000 1.0
C      1  0.5150830000000  0.4971710000000  0.5783940000000 1.0
C      1  0.5444130000000  0.5247870000000  0.5117830000000 1.0
C      1  0.4555670000000  0.5247870000000  0.4886260000000 1.0
C      1  0.5203300000000  0.5213750000000  0.5573190000000 1.0
C      1  0.4796510000000  0.5213750000000  0.4430890000000 1.0
C      1  0.5157960000000  0.4721380000000  0.5584340000000 1.0
C      1  0.4841840000000  0.4721380000000  0.4419740000000 1.0
C      1  0.5124110000000  0.5613720000000  0.4922930000000 1.0
C      1  0.4875690000000  0.5613720000000  0.5081150000000 1.0
C      1  0.5407800000000  0.4702280000000  0.4833910000000 1.0
C      1  0.4592000000000  0.4702280000000  0.5170170000000 1.0
C      1  0.4745380000000  0.5092410000000  0.5392420000000 1.0
C      1  0.5254420000000  0.5092410000000  0.4611660000000 1.0
C      1  0.5101900000000  0.5589860000000  0.4638170000000 1.0
C      1  0.4897900000000  0.5589860000000  0.5365910000000 1.0
C      1  0.5155580000000  0.4530260000000  0.4785780000000 1.0
C      1  0.4844220000000  0.4530260000000  0.5218300000000 1.0
C      1  0.5573450000000  0.4731360000000  0.4584220000000 1.0
C      1  0.4426360000000  0.4731360000000  0.5419870000000 1.0
C      1  0.5450890000000  0.4686450000000  0.5533170000000 1.0
C      1  0.4548910000000  0.4686450000000  0.4470910000000 1.0
C      1  0.5459840000000  0.4959920000000  0.4438960000000 1.0
C      1  0.4539970000000  0.4959920000000  0.5565120000000 1.0
C      1  0.5604900000000  0.4922690000000  0.5464590000000 1.0
C      1  0.4394900000000  0.4922690000000  0.4539490000000 1.0
C      1  0.5346850000000  0.5020080000000  0.4936210000000 1.0
C      1  0.4652950000000  0.5020080000000  0.5067870000000 1.0
C      1  0.5377410000000  0.5527300000000  0.5047770000000 1.0
C      1  0.4622400000000  0.5527300000000  0.4956310000000 1.0
C      1  0.4887050000000  0.4910510000000  0.4917850000000 1.0
C      1  0.5112750000000  0.4910510000000  0.5086230000000 1.0
C      1  0.5057900000000  0.4958820000000  0.5375060000000 1.0
C      1  0.4941910000000  0.4958820000000  0.4629020000000 1.0
C      1  0.4999900000000  0.4397540000000  0.5002040000000 1.0
END
