TITL C-862129-6180-374 3.32766502775944 125000 -1054.57639046101 0 0 195 (C1) n - 1
REM
REM in /home/nfs/bkarasulu/CARBON/AIRSS/Generating-Clusters/TERSOFF/Higher-Symm/FIRE-HFTN
REM
REM
REM
REM
REM
REM ./C.cell (b20cbc046b6831c77cfcea5457e17084)
REM AIRSS Version 0.9.1 bugfix July 2018 build 013d7b7c2542+ Fri, 06 Jul 2018 19:26:36 +0100
REM compiler GCC version 9.2.1 20190827 (Red Hat 9.2.1-1)
REM options -cpp -mtune=generic -march=x86-64 -g -O0 -fpre-include=/usr/include/finclude/math-vector-fortran.h
REM seed -516176413 1167716980 -689786915 -1743064580 1443352308 -1201465207 -76764592 -1786637239 -872791717 1910905206 912657373 342497610 -1350522103 68085404 1777517993 414194453 -230757331 -1086589490 1086108360 -849082265 2070163311 -1011489385 -1577523288 -1615532462 -2014896091 965861909 -17394827 1116294769 1305067680 -1390302371 -1218052958 -1403255280 1565228143
REM
CELL 1.54180   50.00000   50.00000   50.00000   90.00000   90.00000   90.00000
LATT -1
SFAC C  
C      1  0.5379240000000  0.4683330000000  0.5119430000000 1.0
C      1  0.4846780000000  0.4484670000000  0.5085860000000 1.0
C      1  0.4695050000000  0.4996470000000  0.5084080000000 1.0
C      1  0.4852920000000  0.5516910000000  0.5081950000000 1.0
C      1  0.5365820000000  0.5287360000000  0.5111380000000 1.0
C      1  0.4631100000000  0.4689790000000  0.5117440000000 1.0
C      1  0.5167070000000  0.4479880000000  0.5104960000000 1.0
C      1  0.5309250000000  0.4992030000000  0.5099410000000 1.0
C      1  0.5142850000000  0.5514720000000  0.5080610000000 1.0
C      1  0.4632680000000  0.5289250000000  0.5112150000000 1.0
C      1  0.5477050000000  0.3983990000000  0.5620860000000 1.0
C      1  0.4172170000000  0.4291070000000  0.5591910000000 1.0
C      1  0.4063750000000  0.5563970000000  0.5577140000000 1.0
C      1  0.5235220000000  0.6069350000000  0.5623230000000 1.0
C      1  0.6049600000000  0.5103420000000  0.5584990000000 1.0
C      1  0.4543150000000  0.3989200000000  0.5616560000000 1.0
C      1  0.5844570000000  0.4291130000000  0.5587670000000 1.0
C      1  0.5921790000000  0.5552210000000  0.5583700000000 1.0
C      1  0.4758240000000  0.6078130000000  0.5621880000000 1.0
C      1  0.3927210000000  0.5110540000000  0.5580480000000 1.0
C      1  0.5304530000000  0.5219730000000  0.5933460000000 1.0
C      1  0.5296270000000  0.4722380000000  0.5950190000000 1.0
C      1  0.4853400000000  0.4536410000000  0.6087430000000 1.0
C      1  0.4657440000000  0.4996800000000  0.6085140000000 1.0
C      1  0.4878650000000  0.5443920000000  0.6076630000000 1.0
C      1  0.4715110000000  0.5244410000000  0.5947950000000 1.0
C      1  0.4707410000000  0.4745500000000  0.5953060000000 1.0
C      1  0.5138340000000  0.4536400000000  0.6101770000000 1.0
C      1  0.5370550000000  0.4974120000000  0.6067840000000 1.0
C      1  0.5163370000000  0.5428580000000  0.6074670000000 1.0
C      1  0.4171480000000  0.5935320000000  0.4584680000000 1.0
C      1  0.5610370000000  0.6154140000000  0.4595850000000 1.0
C      1  0.6157360000000  0.4793040000000  0.4572080000000 1.0
C      1  0.5153940000000  0.3697270000000  0.4612560000000 1.0
C      1  0.3882090000000  0.4482850000000  0.4574750000000 1.0
C      1  0.5828480000000  0.5933830000000  0.4588340000000 1.0
C      1  0.4389730000000  0.6155610000000  0.4592530000000 1.0
C      1  0.3842430000000  0.4790590000000  0.4573860000000 1.0
C      1  0.4842530000000  0.3693270000000  0.4612380000000 1.0
C      1  0.6121400000000  0.4484570000000  0.4569990000000 1.0
C      1  0.3743780000000  0.4938000000000  0.4816520000000 1.0
C      1  0.4495380000000  0.6256530000000  0.4856020000000 1.0
C      1  0.5986280000000  0.5861940000000  0.4829870000000 1.0
C      1  0.6115830000000  0.4325070000000  0.4824810000000 1.0
C      1  0.4685370000000  0.3679730000000  0.4867210000000 1.0
C      1  0.6256800000000  0.4938810000000  0.4815630000000 1.0
C      1  0.5504500000000  0.6254540000000  0.4859340000000 1.0
C      1  0.4012630000000  0.5864010000000  0.4825690000000 1.0
C      1  0.3888760000000  0.4326280000000  0.4831280000000 1.0
C      1  0.5316020000000  0.3679640000000  0.4863930000000 1.0
C      1  0.4427390000000  0.6067280000000  0.5084120000000 1.0
C      1  0.5808140000000  0.5883320000000  0.5077060000000 1.0
C      1  0.6059040000000  0.4509130000000  0.5060600000000 1.0
C      1  0.4851080000000  0.3785280000000  0.5103190000000 1.0
C      1  0.3884940000000  0.4804190000000  0.5056010000000 1.0
C      1  0.5571220000000  0.6064240000000  0.5087080000000 1.0
C      1  0.4190220000000  0.5886580000000  0.5073440000000 1.0
C      1  0.3946830000000  0.4512790000000  0.5064710000000 1.0
C      1  0.5155070000000  0.3783370000000  0.5102890000000 1.0
C      1  0.6115590000000  0.4801800000000  0.5053360000000 1.0
C      1  0.4199800000000  0.4525270000000  0.4562240000000 1.0
C      1  0.4349340000000  0.5673770000000  0.4552750000000 1.0
C      1  0.5382910000000  0.5929890000000  0.4559260000000 1.0
C      1  0.5851280000000  0.4892140000000  0.4561090000000 1.0
C      1  0.5181030000000  0.4011950000000  0.4566210000000 1.0
C      1  0.5803590000000  0.4525120000000  0.4560160000000 1.0
C      1  0.5650080000000  0.5672830000000  0.4554340000000 1.0
C      1  0.4616830000000  0.5930770000000  0.4557900000000 1.0
C      1  0.4147560000000  0.4891620000000  0.4560470000000 1.0
C      1  0.4810230000000  0.4007630000000  0.4562270000000 1.0
C      1  0.4699320000000  0.5002610000000  0.4532560000000 1.0
C      1  0.4854750000000  0.5536700000000  0.4509320000000 1.0
C      1  0.5344890000000  0.5298820000000  0.4552510000000 1.0
C      1  0.5354370000000  0.4686440000000  0.4541670000000 1.0
C      1  0.4845980000000  0.4475530000000  0.4517210000000 1.0
C      1  0.5296330000000  0.5003550000000  0.4542430000000 1.0
C      1  0.5142260000000  0.5536660000000  0.4509790000000 1.0
C      1  0.4652970000000  0.5298320000000  0.4549310000000 1.0
C      1  0.4644910000000  0.4684420000000  0.4530250000000 1.0
C      1  0.5154330000000  0.4477350000000  0.4544290000000 1.0
C      1  0.4595000000000  0.4146040000000  0.4332500000000 1.0
C      1  0.4246370000000  0.5085870000000  0.4326000000000 1.0
C      1  0.4834640000000  0.5932720000000  0.4324080000000 1.0
C      1  0.5771580000000  0.5419640000000  0.4328080000000 1.0
C      1  0.5642290000000  0.4394490000000  0.4323950000000 1.0
C      1  0.5422940000000  0.4141140000000  0.4332970000000 1.0
C      1  0.5747400000000  0.5085330000000  0.4328460000000 1.0
C      1  0.5164630000000  0.5933230000000  0.4324950000000 1.0
C      1  0.4226300000000  0.5420560000000  0.4327190000000 1.0
C      1  0.4363600000000  0.4388390000000  0.4327880000000 1.0
C      1  0.4443890000000  0.5478410000000  0.5320280000000 1.0
C      1  0.5285090000000  0.5665840000000  0.5342800000000 1.0
C      1  0.5674460000000  0.4925740000000  0.5361000000000 1.0
C      1  0.5188060000000  0.4269800000000  0.5359290000000 1.0
C      1  0.4397120000000  0.4626940000000  0.5322460000000 1.0
C      1  0.5549930000000  0.5474440000000  0.5319560000000 1.0
C      1  0.4712730000000  0.5671580000000  0.5342640000000 1.0
C      1  0.4316020000000  0.4939090000000  0.5368970000000 1.0
C      1  0.4824850000000  0.4272250000000  0.5345250000000 1.0
C      1  0.5613380000000  0.4613420000000  0.5320730000000 1.0
C      1  0.4852750000000  0.5534320000000  0.3942450000000 1.0
C      1  0.5346640000000  0.5301740000000  0.4013960000000 1.0
C      1  0.5346680000000  0.4686210000000  0.3986250000000 1.0
C      1  0.4841850000000  0.4472510000000  0.3947070000000 1.0
C      1  0.4689590000000  0.5005390000000  0.3956620000000 1.0
C      1  0.5146770000000  0.5534610000000  0.3944330000000 1.0
C      1  0.4650250000000  0.5302720000000  0.4011220000000 1.0
C      1  0.4643690000000  0.4685610000000  0.3980250000000 1.0
C      1  0.5151670000000  0.4469150000000  0.3998900000000 1.0
C      1  0.5297840000000  0.5005520000000  0.3970100000000 1.0
C      1  0.5756120000000  0.5067610000000  0.5662880000000 1.0
C      1  0.5349280000000  0.4254040000000  0.5681240000000 1.0
C      1  0.4398210000000  0.4489820000000  0.5635960000000 1.0
C      1  0.4330630000000  0.5422160000000  0.5631230000000 1.0
C      1  0.5175240000000  0.5774600000000  0.5670190000000 1.0
C      1  0.4217080000000  0.5079520000000  0.5671450000000 1.0
C      1  0.4675430000000  0.4258620000000  0.5673650000000 1.0
C      1  0.5618700000000  0.4491560000000  0.5634810000000 1.0
C      1  0.5651290000000  0.5413800000000  0.5629520000000 1.0
C      1  0.4812000000000  0.5783250000000  0.5672550000000 1.0
C      1  0.5325580000000  0.4034130000000  0.5171400000000 1.0
C      1  0.4222800000000  0.4419410000000  0.5150180000000 1.0
C      1  0.4213160000000  0.5588290000000  0.5136030000000 1.0
C      1  0.5295300000000  0.5956860000000  0.5170230000000 1.0
C      1  0.5901910000000  0.5012010000000  0.5142810000000 1.0
C      1  0.4683640000000  0.4038540000000  0.5165890000000 1.0
C      1  0.5785490000000  0.4411650000000  0.5146530000000 1.0
C      1  0.5783440000000  0.5585250000000  0.5139890000000 1.0
C      1  0.4703100000000  0.5960190000000  0.5168850000000 1.0
C      1  0.4094530000000  0.5018340000000  0.5144200000000 1.0
C      1  0.5149470000000  0.6154610000000  0.5353360000000 1.0
C      1  0.6079920000000  0.5205950000000  0.5308970000000 1.0
C      1  0.5575780000000  0.3970040000000  0.5340370000000 1.0
C      1  0.4201890000000  0.4164890000000  0.5324650000000 1.0
C      1  0.3971450000000  0.5502870000000  0.5300560000000 1.0
C      1  0.4849230000000  0.6158020000000  0.5351530000000 1.0
C      1  0.3910360000000  0.5212940000000  0.5302460000000 1.0
C      1  0.4436790000000  0.3976240000000  0.5338800000000 1.0
C      1  0.5810340000000  0.4158980000000  0.5322270000000 1.0
C      1  0.6021270000000  0.5496620000000  0.5308010000000 1.0
C      1  0.5111320000000  0.4554820000000  0.5513410000000 1.0
C      1  0.4708740000000  0.4769820000000  0.5659150000000 1.0
C      1  0.4703930000000  0.5233610000000  0.5649660000000 1.0
C      1  0.5139910000000  0.5400710000000  0.5484310000000 1.0
C      1  0.5379450000000  0.4960320000000  0.5512280000000 1.0
C      1  0.4839250000000  0.4594690000000  0.5489120000000 1.0
C      1  0.5276030000000  0.4731450000000  0.5653500000000 1.0
C      1  0.5287660000000  0.5205930000000  0.5636190000000 1.0
C      1  0.4855820000000  0.5409970000000  0.5487690000000 1.0
C      1  0.4602490000000  0.4993660000000  0.5531390000000 1.0
C      1  0.5765330000000  0.5469390000000  0.4831100000000 1.0
C      1  0.5659550000000  0.4357160000000  0.4845130000000 1.0
C      1  0.4614150000000  0.4121980000000  0.4846520000000 1.0
C      1  0.4216140000000  0.5109060000000  0.4840660000000 1.0
C      1  0.4821880000000  0.5946540000000  0.4855140000000 1.0
C      1  0.4233340000000  0.5470050000000  0.4829010000000 1.0
C      1  0.4344590000000  0.4361360000000  0.4848750000000 1.0
C      1  0.5389110000000  0.4118350000000  0.4845820000000 1.0
C      1  0.5783520000000  0.5108590000000  0.4842330000000 1.0
C      1  0.5177260000000  0.5945510000000  0.4856070000000 1.0
C      1  0.4836990000000  0.4342670000000  0.4811240000000 1.0
C      1  0.4514900000000  0.4966310000000  0.4817460000000 1.0
C      1  0.4765500000000  0.5630510000000  0.4807400000000 1.0
C      1  0.5463120000000  0.5402980000000  0.4829540000000 1.0
C      1  0.5500720000000  0.4644130000000  0.4823790000000 1.0
C      1  0.5165670000000  0.4337570000000  0.4829350000000 1.0
C      1  0.5485700000000  0.4966520000000  0.4825750000000 1.0
C      1  0.5231610000000  0.5629720000000  0.4807370000000 1.0
C      1  0.4535100000000  0.5402610000000  0.4828120000000 1.0
C      1  0.4508470000000  0.4642640000000  0.4819810000000 1.0
C      1  0.6096020000000  0.5212750000000  0.4799550000000 1.0
C      1  0.5606730000000  0.3850450000000  0.4827470000000 1.0
C      1  0.4128860000000  0.4092480000000  0.4815560000000 1.0
C      1  0.3885250000000  0.5552120000000  0.4794110000000 1.0
C      1  0.5175890000000  0.6292820000000  0.4839570000000 1.0
C      1  0.3902920000000  0.5213160000000  0.4796700000000 1.0
C      1  0.4397060000000  0.3852900000000  0.4832500000000 1.0
C      1  0.5875680000000  0.4089340000000  0.4808550000000 1.0
C      1  0.6114380000000  0.5550980000000  0.4797630000000 1.0
C      1  0.4824160000000  0.6293790000000  0.4837230000000 1.0
C      1  0.5471570000000  0.5402670000000  0.4286890000000 1.0
C      1  0.5505340000000  0.4656680000000  0.4248540000000 1.0
C      1  0.4840910000000  0.4302670000000  0.4226800000000 1.0
C      1  0.4516990000000  0.4975260000000  0.4256450000000 1.0
C      1  0.4732900000000  0.5661290000000  0.4213140000000 1.0
C      1  0.4526320000000  0.5403050000000  0.4284860000000 1.0
C      1  0.4489010000000  0.4654630000000  0.4241620000000 1.0
C      1  0.5169690000000  0.4310770000000  0.4271680000000 1.0
C      1  0.5474730000000  0.4975350000000  0.4262490000000 1.0
C      1  0.5265660000000  0.5661160000000  0.4215040000000 1.0
C      1  0.5010760000000  0.4269080000000  0.5804330000000 1.0
C      1  0.5432210000000  0.5596170000000  0.5798990000000 1.0
C      1  0.4315170000000  0.4769660000000  0.5805710000000 1.0
C      1  0.4552870000000  0.5602570000000  0.5801460000000 1.0
C      1  0.5686200000000  0.4765860000000  0.5801050000000 1.0
END
