TITL C-862500-986-850 0.0329754186601822 125000 -857.20628056008 0 0 157 (C3) n - 1
REM
REM in /home/nfs/bkarasulu/CARBON/AIRSS/Generating-Clusters/TERSOFF/Higher-Symm/FIRE-HFTN
REM
REM
REM
REM
REM
REM ./C.cell (b20cbc046b6831c77cfcea5457e17084)
REM AIRSS Version 0.9.1 bugfix July 2018 build 013d7b7c2542+ Fri, 06 Jul 2018 19:26:36 +0100
REM compiler GCC version 9.2.1 20190827 (Red Hat 9.2.1-1)
REM options -cpp -mtune=generic -march=x86-64 -g -O0 -fpre-include=/usr/include/finclude/math-vector-fortran.h
REM seed -248020756 -1392517777 -1697320041 -1882394862 -1055987480 541049032 -2038208376 2069293156 -1947085985 -654020004 -659956351 -1097018158 -557391136 -917081954 542306506 550415030 -1702422895 1153343578 -2026654509 -334096311 567163316 866957092 -170357149 -920421812 -783887842 1518838560 -1758995498 1236209635 -485113615 -1562190448 -1528385840 1313074631 -1119847261
REM
CELL 1.54180   50.00000   50.00000   50.00000   90.00000   90.00000   90.00000
LATT -1
SFAC C  
C      1  0.5587280000000  0.4715740000000  0.5006770000000 1.0
C      1  0.4715490000000  0.4715730000000  0.4490500000000 1.0
C      1  0.4704290000000  0.4715730000000  0.5503630000000 1.0
C      1  0.4623020000000  0.3996010000000  0.4583290000000 1.0
C      1  0.4830890000000  0.3996010000000  0.5537330000000 1.0
C      1  0.5553180000000  0.3996020000000  0.4880290000000 1.0
C      1  0.5673420000000  0.5545460000000  0.4728730000000 1.0
C      1  0.4431630000000  0.5545440000000  0.4554910000000 1.0
C      1  0.4901990000000  0.5545450000000  0.5717240000000 1.0
C      1  0.4837430000000  0.5007200000000  0.5564100000000 1.0
C      1  0.5573080000000  0.5007200000000  0.4861220000000 1.0
C      1  0.4596550000000  0.5007190000000  0.4575570000000 1.0
C      1  0.4414590000000  0.4362660000000  0.5275730000000 1.0
C      1  0.5534760000000  0.4362670000000  0.5371610000000 1.0
C      1  0.5057720000000  0.4362660000000  0.4353570000000 1.0
C      1  0.4899660000000  0.5557720000000  0.4082800000000 1.0
C      1  0.4259120000000  0.5557720000000  0.5547970000000 1.0
C      1  0.5848260000000  0.5557730000000  0.5370110000000 1.0
C      1  0.4427910000000  0.6003520000000  0.4821410000000 1.0
C      1  0.5134640000000  0.6003530000000  0.5587220000000 1.0
C      1  0.5444480000000  0.6003530000000  0.4592260000000 1.0
C      1  0.4609580000000  0.5924510000000  0.5487230000000 1.0
C      1  0.5620430000000  0.5924520000000  0.5096960000000 1.0
C      1  0.4777020000000  0.5924510000000  0.4416680000000 1.0
C      1  0.5217250000000  0.4890420000000  0.5290200000000 1.0
C      1  0.5145970000000  0.4890420000000  0.4669240000000 1.0
C      1  0.4643840000000  0.4890410000000  0.5041450000000 1.0
C      1  0.5288820000000  0.5504420000000  0.5298900000000 1.0
C      1  0.5117720000000  0.5504410000000  0.4602900000000 1.0
C      1  0.4600510000000  0.5504410000000  0.5099080000000 1.0
C      1  0.5122030000000  0.4431880000000  0.5350500000000 1.0
C      1  0.5245800000000  0.4431880000000  0.4721560000000 1.0
C      1  0.4639240000000  0.4431880000000  0.4928840000000 1.0
C      1  0.5017900000000  0.4625390000000  0.4600950000000 1.0
C      1  0.4648740000000  0.4625390000000  0.5186510000000 1.0
C      1  0.5340430000000  0.4625390000000  0.5213430000000 1.0
C      1  0.5200030000000  0.4267070000000  0.4972850000000 1.0
C      1  0.4879750000000  0.4267070000000  0.4842840000000 1.0
C      1  0.4927300000000  0.4267070000000  0.5185210000000 1.0
C      1  0.4669630000000  0.4520440000000  0.4039020000000 1.0
C      1  0.4336230000000  0.4520440000000  0.5769090000000 1.0
C      1  0.6001210000000  0.4520460000000  0.5192790000000 1.0
C      1  0.4219060000000  0.5811120000000  0.5131900000000 1.0
C      1  0.5507970000000  0.5811130000000  0.5612840000000 1.0
C      1  0.5280010000000  0.5811120000000  0.4256140000000 1.0
C      1  0.4581760000000  0.3910150000000  0.5089360000000 1.0
C      1  0.5289790000000  0.3910160000000  0.5320020000000 1.0
C      1  0.5135530000000  0.3910150000000  0.4591520000000 1.0
C      1  0.5931280000000  0.5061120000000  0.4893120000000 1.0
C      1  0.4445070000000  0.5061110000000  0.4249410000000 1.0
C      1  0.4630710000000  0.5061120000000  0.5858360000000 1.0
C      1  0.4119610000000  0.5098570000000  0.4737290000000 1.0
C      1  0.5215960000000  0.5098580000000  0.5896280000000 1.0
C      1  0.5671490000000  0.5098580000000  0.4367320000000 1.0
C      1  0.5855980000000  0.5812850000000  0.5233090000000 1.0
C      1  0.4777140000000  0.5812830000000  0.4144630000000 1.0
C      1  0.4373920000000  0.5812840000000  0.5623160000000 1.0
C      1  0.5821440000000  0.4456010000000  0.5456130000000 1.0
C      1  0.4987580000000  0.4456000000000  0.4063040000000 1.0
C      1  0.4198060000000  0.4456000000000  0.5481730000000 1.0
C      1  0.4156790000000  0.5379530000000  0.4564220000000 1.0
C      1  0.5047480000000  0.5379550000000  0.5950610000000 1.0
C      1  0.5802780000000  0.5379550000000  0.4486060000000 1.0
C      1  0.5550680000000  0.5079760000000  0.5907120000000 1.0
C      1  0.5513520000000  0.5079750000000  0.4072020000000 1.0
C      1  0.3942860000000  0.5079740000000  0.5021750000000 1.0
C      1  0.5496360000000  0.4717570000000  0.4344300000000 1.0
C      1  0.4187240000000  0.4717560000000  0.4900480000000 1.0
C      1  0.5323470000000  0.4717580000000  0.5756120000000 1.0
C      1  0.4462900000000  0.4010200000000  0.4834590000000 1.0
C      1  0.5128580000000  0.4010210000000  0.5550340000000 1.0
C      1  0.5415600000000  0.4010210000000  0.4615970000000 1.0
C      1  0.4788360000000  0.5119060000000  0.5223350000000 1.0
C      1  0.5302520000000  0.5119060000000  0.5074090000000 1.0
C      1  0.4916170000000  0.5119060000000  0.4703450000000 1.0
C      1  0.4391060000000  0.4409130000000  0.4142650000000 1.0
C      1  0.4565260000000  0.4409140000000  0.5958520000000 1.0
C      1  0.6050750000000  0.4409150000000  0.4899730000000 1.0
C      1  0.5166780000000  0.4701650000000  0.3926960000000 1.0
C      1  0.3990600000000  0.4701640000000  0.5394580000000 1.0
C      1  0.5849690000000  0.4701660000000  0.5679360000000 1.0
C      1  0.5428840000000  0.5369500000000  0.5519410000000 1.0
C      1  0.5238660000000  0.5369500000000  0.4371390000000 1.0
C      1  0.4339540000000  0.5369490000000  0.5110100000000 1.0
C      1  0.5968010000000  0.5028310000000  0.5584650000000 1.0
C      1  0.5025590000000  0.5028300000000  0.3871840000000 1.0
C      1  0.4013460000000  0.5028300000000  0.5544400000000 1.0
C      1  0.4798100000000  0.5438830000000  0.5296170000000 1.0
C      1  0.5360700000000  0.5438830000000  0.5029240000000 1.0
C      1  0.4848240000000  0.5438830000000  0.4675480000000 1.0
C      1  0.4717600000000  0.5612610000000  0.4872320000000 1.0
C      1  0.5033890000000  0.5612620000000  0.5310880000000 1.0
C      1  0.5255550000000  0.5612620000000  0.4817690000000 1.0
C      1  0.4419690000000  0.4780220000000  0.5629120000000 1.0
C      1  0.5838260000000  0.4780230000000  0.5190490000000 1.0
C      1  0.4749110000000  0.4780210000000  0.4181290000000 1.0
C      1  0.5014010000000  0.5164090000000  0.4379760000000 1.0
C      1  0.4459130000000  0.5164090000000  0.5300470000000 1.0
C      1  0.5533920000000  0.5164100000000  0.5320660000000 1.0
C      1  0.4827620000000  0.4495650000000  0.5642200000000 1.0
C      1  0.5645630000000  0.4495650000000  0.4830680000000 1.0
C      1  0.4533820000000  0.4495640000000  0.4528020000000 1.0
C      1  0.5858060000000  0.4500810000000  0.4609390000000 1.0
C      1  0.4235960000000  0.4500790000000  0.4454700000000 1.0
C      1  0.4913050000000  0.4500800000000  0.5936820000000 1.0
C      1  0.5433950000000  0.4786000000000  0.4062830000000 1.0
C      1  0.3974690000000  0.4785990000000  0.5095260000000 1.0
C      1  0.5598430000000  0.4786010000000  0.5842800000000 1.0
C      1  0.5890500000000  0.4822100000000  0.4448850000000 1.0
C      1  0.4080710000000  0.4822080000000  0.4506860000000 1.0
C      1  0.5035850000000  0.4822100000000  0.6045180000000 1.0
C      1  0.5270060000000  0.5240520000000  0.3972960000000 1.0
C      1  0.3978790000000  0.5240520000000  0.5282120000000 1.0
C      1  0.5758200000000  0.5240530000000  0.5745810000000 1.0
C      1  0.4698680000000  0.5068810000000  0.4018670000000 1.0
C      1  0.4304070000000  0.5068820000000  0.5754100000000 1.0
C      1  0.6004300000000  0.5068830000000  0.5228130000000 1.0
C      1  0.5445780000000  0.4948700000000  0.4580370000000 1.0
C      1  0.4416970000000  0.4948690000000  0.4826250000000 1.0
C      1  0.5144310000000  0.4948700000000  0.5594280000000 1.0
C      1  0.5674000000000  0.5535920000000  0.5618040000000 1.0
C      1  0.5201510000000  0.5535910000000  0.4109760000000 1.0
C      1  0.4131540000000  0.5535910000000  0.5273090000000 1.0
C      1  0.5609180000000  0.4460380000000  0.4413770000000 1.0
C      1  0.4191000000000  0.4460370000000  0.4768040000000 1.0
C      1  0.5206900000000  0.4460380000000  0.5819090000000 1.0
C      1  0.4729770000000  0.5348360000000  0.5569890000000 1.0
C      1  0.5631920000000  0.5348370000000  0.4951560000000 1.0
C      1  0.4645360000000  0.5348360000000  0.4479430000000 1.0
C      1  0.4534870000000  0.5949950000000  0.5143630000000 1.0
C      1  0.5360210000000  0.5949960000000  0.5333470000000 1.0
C      1  0.5111950000000  0.5949950000000  0.4523780000000 1.0
C      1  0.4785850000000  0.5314820000000  0.4205450000000 1.0
C      1  0.4422250000000  0.5314820000000  0.5585210000000 1.0
C      1  0.5798950000000  0.5314830000000  0.5210220000000 1.0
C      1  0.4734990000000  0.4864100000000  0.6049110000000 1.0
C      1  0.6044330000000  0.4864100000000  0.4707430000000 1.0
C      1  0.4227730000000  0.4864090000000  0.4244350000000 1.0
C      1  0.4368480000000  0.4286600000000  0.4923840000000 1.0
C      1  0.5253090000000  0.4286610000000  0.5587490000000 1.0
C      1  0.5385510000000  0.4286600000000  0.4489570000000 1.0
C      1  0.4906820000000  0.4110220000000  0.4563020000000 1.0
C      1  0.4671430000000  0.4110220000000  0.5301680000000 1.0
C      1  0.5428830000000  0.4110230000000  0.5136200000000 1.0
C      1  0.4883920000000  0.5844160000000  0.5626900000000 1.0
C      1  0.5604220000000  0.5844160000000  0.4789550000000 1.0
C      1  0.4518900000000  0.5844150000000  0.4584430000000 1.0
C      1  0.5145540000000  0.5888460000000  0.4863710000000 1.0
C      1  0.4812460000000  0.5888450000000  0.4944580000000 1.0
C      1  0.5049040000000  0.5888460000000  0.5192590000000 1.0
C      1  0.4358520000000  0.4895590000000  0.5348370000000 1.0
C      1  0.5625710000000  0.4895600000000  0.5383840000000 1.0
C      1  0.5022830000000  0.4895590000000  0.4268690000000 1.0
C      1  0.4245470000000  0.5288850000000  0.4279840000000 1.0
C      1  0.4756860000000  0.5288860000000  0.6016000000000 1.0
C      1  0.6004720000000  0.5288860000000  0.4705050000000 1.0
C      1  0.5002350000000  0.5124670000000  0.5000300000000 1.0
END
