TITL C-862127-1500-733 2.24358476621228 125000 -1095.4691335311 0 0 186 (C1) n - 1
REM
REM in /home/nfs/bkarasulu/CARBON/AIRSS/Generating-Clusters/TERSOFF/Higher-Symm/FIRE-HFTN
REM
REM
REM
REM
REM
REM ./C.cell (b20cbc046b6831c77cfcea5457e17084)
REM AIRSS Version 0.9.1 bugfix July 2018 build 013d7b7c2542+ Fri, 06 Jul 2018 19:26:36 +0100
REM compiler GCC version 9.2.1 20190827 (Red Hat 9.2.1-1)
REM options -cpp -mtune=generic -march=x86-64 -g -O0 -fpre-include=/usr/include/finclude/math-vector-fortran.h
REM seed 305912600 1773372219 -525829652 -1668701477 1656382774 -1566452022 973187376 2077336230 1308602532 1061733181 -617019898 -974851671 -1093863600 -1625062875 -250143718 1288967925 -1573042497 -431517930 -1343986700 -693494283 -812909273 2016876204 -640982798 -912506567 -1546705999 -662860918 977811428 1622108728 1565038681 -263988495 -349459797 -137337989 -1351354359
REM
CELL 1.54180   50.00000   50.00000   50.00000   90.00000   90.00000   90.00000
LATT -1
SFAC C  
C      1  0.5816580000000  0.4824270000000  0.4009320000000 1.0
C      1  0.4430020000000  0.4367100000000  0.3998860000000 1.0
C      1  0.4715670000000  0.5799180000000  0.4029990000000 1.0
C      1  0.4429990000000  0.5309830000000  0.5297050000000 1.0
C      1  0.5552120000000  0.5365950000000  0.5328520000000 1.0
C      1  0.5037260000000  0.4328060000000  0.5318370000000 1.0
C      1  0.5550870000000  0.4038370000000  0.4576710000000 1.0
C      1  0.3953570000000  0.5005760000000  0.4557320000000 1.0
C      1  0.5535390000000  0.5899630000000  0.4563820000000 1.0
C      1  0.6146990000000  0.4452460000000  0.4811370000000 1.0
C      1  0.3954630000000  0.4278890000000  0.4802880000000 1.0
C      1  0.4902900000000  0.6292940000000  0.4811080000000 1.0
C      1  0.4046110000000  0.5571440000000  0.5077590000000 1.0
C      1  0.5973500000000  0.5537570000000  0.5098910000000 1.0
C      1  0.5009240000000  0.3854810000000  0.5118040000000 1.0
C      1  0.4259360000000  0.5064340000000  0.5805060000000 1.0
C      1  0.5422640000000  0.5615110000000  0.5821080000000 1.0
C      1  0.5320600000000  0.4331880000000  0.5826310000000 1.0
C      1  0.4387600000000  0.4844900000000  0.5980350000000 1.0
C      1  0.5167180000000  0.5615740000000  0.5998960000000 1.0
C      1  0.5444290000000  0.4557790000000  0.5994020000000 1.0
C      1  0.4305660000000  0.4610540000000  0.4138400000000 1.0
C      1  0.4994020000000  0.5790420000000  0.4157280000000 1.0
C      1  0.5666080000000  0.4600120000000  0.4154720000000 1.0
C      1  0.4857740000000  0.4097890000000  0.5620090000000 1.0
C      1  0.4292180000000  0.5574040000000  0.5592970000000 1.0
C      1  0.5853590000000  0.5324280000000  0.5617570000000 1.0
C      1  0.6055190000000  0.4920640000000  0.5305510000000 1.0
C      1  0.4400360000000  0.4119160000000  0.5302220000000 1.0
C      1  0.4543380000000  0.5991940000000  0.5314110000000 1.0
C      1  0.4679130000000  0.5387510000000  0.5913430000000 1.0
C      1  0.5483970000000  0.5082620000000  0.5914240000000 1.0
C      1  0.4827500000000  0.4544340000000  0.5911450000000 1.0
C      1  0.4635100000000  0.5409480000000  0.4314040000000 1.0
C      1  0.5524990000000  0.5113510000000  0.4273110000000 1.0
C      1  0.4798700000000  0.4497700000000  0.4262030000000 1.0
C      1  0.5061690000000  0.5188740000000  0.4733890000000 1.0
C      1  0.5112740000000  0.4747520000000  0.4633490000000 1.0
C      1  0.4871230000000  0.4965180000000  0.4640970000000 1.0
C      1  0.4341300000000  0.4725010000000  0.4761580000000 1.0
C      1  0.5098260000000  0.5726000000000  0.4794170000000 1.0
C      1  0.5564070000000  0.4518120000000  0.4779280000000 1.0
C      1  0.5618360000000  0.5347530000000  0.5817870000000 1.0
C      1  0.4991630000000  0.4294400000000  0.5819370000000 1.0
C      1  0.4387000000000  0.5365110000000  0.5801610000000 1.0
C      1  0.5574430000000  0.4788470000000  0.5832670000000 1.0
C      1  0.4527760000000  0.4610910000000  0.5828570000000 1.0
C      1  0.4888850000000  0.5621630000000  0.5849580000000 1.0
C      1  0.5252070000000  0.5979240000000  0.5463750000000 1.0
C      1  0.5724580000000  0.4294700000000  0.5474060000000 1.0
C      1  0.4045470000000  0.4733810000000  0.5446560000000 1.0
C      1  0.5487360000000  0.5571820000000  0.4084160000000 1.0
C      1  0.5223810000000  0.4289740000000  0.4097260000000 1.0
C      1  0.4247730000000  0.5162150000000  0.4109990000000 1.0
C      1  0.5301680000000  0.5288450000000  0.4582500000000 1.0
C      1  0.5121630000000  0.4466310000000  0.4528020000000 1.0
C      1  0.4586390000000  0.5040330000000  0.4507820000000 1.0
C      1  0.4594060000000  0.3852710000000  0.4597830000000 1.0
C      1  0.4207540000000  0.5946520000000  0.4632890000000 1.0
C      1  0.6178140000000  0.5222270000000  0.4599340000000 1.0
C      1  0.4190780000000  0.4047140000000  0.4432280000000 1.0
C      1  0.4578650000000  0.6186160000000  0.4444210000000 1.0
C      1  0.6214010000000  0.4773560000000  0.4429520000000 1.0
C      1  0.4417490000000  0.5729570000000  0.4963260000000 1.0
C      1  0.5862450000000  0.5149440000000  0.4935810000000 1.0
C      1  0.4699010000000  0.4149600000000  0.4937530000000 1.0
C      1  0.4024290000000  0.4311180000000  0.4464880000000 1.0
C      1  0.4892740000000  0.6193720000000  0.4474050000000 1.0
C      1  0.6075520000000  0.4490460000000  0.4462910000000 1.0
C      1  0.4738150000000  0.5510170000000  0.4804500000000 1.0
C      1  0.5521850000000  0.4977920000000  0.4759970000000 1.0
C      1  0.4713730000000  0.4530970000000  0.4762380000000 1.0
C      1  0.4643360000000  0.5906050000000  0.4907530000000 1.0
C      1  0.5910330000000  0.4866420000000  0.4874170000000 1.0
C      1  0.4427430000000  0.4252220000000  0.4891200000000 1.0
C      1  0.3963090000000  0.5225500000000  0.5443280000000 1.0
C      1  0.5723000000000  0.5796230000000  0.5469380000000 1.0
C      1  0.5335160000000  0.3973750000000  0.5488750000000 1.0
C      1  0.5836000000000  0.4776840000000  0.5701490000000 1.0
C      1  0.4388310000000  0.4391700000000  0.5691700000000 1.0
C      1  0.4774170000000  0.5851910000000  0.5704080000000 1.0
C      1  0.5808970000000  0.5534530000000  0.5361500000000 1.0
C      1  0.5067820000000  0.4021630000000  0.5372870000000 1.0
C      1  0.4145310000000  0.5429640000000  0.5333030000000 1.0
C      1  0.4357540000000  0.5205140000000  0.4646930000000 1.0
C      1  0.5526280000000  0.5459980000000  0.4702660000000 1.0
C      1  0.5148340000000  0.4223600000000  0.4695620000000 1.0
C      1  0.4418330000000  0.4906630000000  0.4095390000000 1.0
C      1  0.5183020000000  0.5550380000000  0.4106480000000 1.0
C      1  0.5360170000000  0.4561870000000  0.4113030000000 1.0
C      1  0.5463190000000  0.5897830000000  0.4982970000000 1.0
C      1  0.5550590000000  0.4120440000000  0.5005490000000 1.0
C      1  0.4018130000000  0.4967620000000  0.4970570000000 1.0
C      1  0.3919410000000  0.5443990000000  0.4827440000000 1.0
C      1  0.5930210000000  0.5721280000000  0.4855600000000 1.0
C      1  0.5212460000000  0.3783830000000  0.4896950000000 1.0
C      1  0.5455820000000  0.4661670000000  0.5552010000000 1.0
C      1  0.4472010000000  0.4777130000000  0.5547410000000 1.0
C      1  0.5069930000000  0.5577560000000  0.5587880000000 1.0
C      1  0.5466490000000  0.5603780000000  0.4953490000000 1.0
C      1  0.5289680000000  0.4250070000000  0.4948680000000 1.0
C      1  0.4276360000000  0.5109090000000  0.4917040000000 1.0
C      1  0.4803480000000  0.5224200000000  0.4174050000000 1.0
C      1  0.5267660000000  0.5060430000000  0.4166710000000 1.0
C      1  0.4889940000000  0.4741440000000  0.4150660000000 1.0
C      1  0.6281860000000  0.5060220000000  0.4848410000000 1.0
C      1  0.4403170000000  0.3835120000000  0.4851000000000 1.0
C      1  0.4293200000000  0.6134790000000  0.4871640000000 1.0
C      1  0.4810280000000  0.6146640000000  0.5317530000000 1.0
C      1  0.6069570000000  0.4612190000000  0.5308070000000 1.0
C      1  0.4130120000000  0.4269660000000  0.5298630000000 1.0
C      1  0.4121680000000  0.4764440000000  0.4568480000000 1.0
C      1  0.5238660000000  0.5877940000000  0.4582810000000 1.0
C      1  0.5645710000000  0.4321660000000  0.4576630000000 1.0
C      1  0.4714350000000  0.4951430000000  0.5640310000000 1.0
C      1  0.5098110000000  0.5276430000000  0.5646510000000 1.0
C      1  0.5185040000000  0.4784220000000  0.5641360000000 1.0
C      1  0.5629230000000  0.4967990000000  0.4496890000000 1.0
C      1  0.4626220000000  0.4489910000000  0.4492680000000 1.0
C      1  0.4734510000000  0.5580050000000  0.4525550000000 1.0
C      1  0.4819610000000  0.4470030000000  0.5429770000000 1.0
C      1  0.4648960000000  0.5429890000000  0.5426080000000 1.0
C      1  0.5545860000000  0.5105550000000  0.5433940000000 1.0
C      1  0.5918850000000  0.4520670000000  0.5562850000000 1.0
C      1  0.4129140000000  0.4452690000000  0.5547570000000 1.0
C      1  0.4964750000000  0.6046280000000  0.5564870000000 1.0
C      1  0.5279940000000  0.6048610000000  0.5165110000000 1.0
C      1  0.5765470000000  0.4237660000000  0.5176610000000 1.0
C      1  0.3986810000000  0.4727380000000  0.5148530000000 1.0
C      1  0.6194770000000  0.4776530000000  0.4745880000000 1.0
C      1  0.4199570000000  0.4058270000000  0.4750570000000 1.0
C      1  0.4587260000000  0.6195010000000  0.4761990000000 1.0
C      1  0.5724450000000  0.5678830000000  0.4630980000000 1.0
C      1  0.5272180000000  0.3956600000000  0.4648850000000 1.0
C      1  0.4054820000000  0.5280060000000  0.4604380000000 1.0
C      1  0.4924090000000  0.5844350000000  0.5010250000000 1.0
C      1  0.5737990000000  0.4647760000000  0.4991040000000 1.0
C      1  0.4342220000000  0.4527600000000  0.4989710000000 1.0
C      1  0.4904510000000  0.4735830000000  0.5545740000000 1.0
C      1  0.4821750000000  0.5222680000000  0.5553840000000 1.0
C      1  0.5276010000000  0.5052870000000  0.5550640000000 1.0
C      1  0.4769720000000  0.4787180000000  0.4871870000000 1.0
C      1  0.4940910000000  0.5354960000000  0.4925320000000 1.0
C      1  0.5294640000000  0.4833380000000  0.4843570000000 1.0
C      1  0.4472140000000  0.5114660000000  0.5102880000000 1.0
C      1  0.5362130000000  0.5450210000000  0.5147870000000 1.0
C      1  0.5190120000000  0.4438020000000  0.5117090000000 1.0
C      1  0.5067650000000  0.5980040000000  0.4376790000000 1.0
C      1  0.5805810000000  0.4431930000000  0.4363420000000 1.0
C      1  0.4111410000000  0.4570670000000  0.4361140000000 1.0
C      1  0.4470030000000  0.3982720000000  0.4346870000000 1.0
C      1  0.4378910000000  0.5971320000000  0.4379320000000 1.0
C      1  0.6130080000000  0.5051140000000  0.4348140000000 1.0
C      1  0.5293390000000  0.4705140000000  0.5104730000000 1.0
C      1  0.4641520000000  0.4880970000000  0.5117560000000 1.0
C      1  0.5077590000000  0.5435290000000  0.5165480000000 1.0
C      1  0.4449480000000  0.5760270000000  0.4177410000000 1.0
C      1  0.5920640000000  0.5083560000000  0.4136630000000 1.0
C      1  0.4602360000000  0.4149340000000  0.4134870000000 1.0
C      1  0.5154450000000  0.5366650000000  0.6158190000000 1.0
C      1  0.5237140000000  0.4693520000000  0.6156290000000 1.0
C      1  0.4597350000000  0.4957050000000  0.6157580000000 1.0
C      1  0.5175090000000  0.4790290000000  0.4129940000000 1.0
C      1  0.4706480000000  0.4957140000000  0.4114150000000 1.0
C      1  0.5081970000000  0.5278850000000  0.4136370000000 1.0
C      1  0.5485030000000  0.4182090000000  0.5623230000000 1.0
C      1  0.4058620000000  0.4995870000000  0.5592300000000 1.0
C      1  0.5470010000000  0.5828160000000  0.5610670000000 1.0
C      1  0.5693290000000  0.5332680000000  0.4152900000000 1.0
C      1  0.4916900000000  0.4238390000000  0.4164560000000 1.0
C      1  0.4353270000000  0.5445520000000  0.4217410000000 1.0
C      1  0.5548420000000  0.4726470000000  0.5255300000000 1.0
C      1  0.4492360000000  0.4663380000000  0.5254000000000 1.0
C      1  0.4964790000000  0.5673650000000  0.5300670000000 1.0
C      1  0.4298960000000  0.6078170000000  0.5165120000000 1.0
C      1  0.6227150000000  0.5100180000000  0.5138160000000 1.0
C      1  0.4462360000000  0.3870550000000  0.5143690000000 1.0
C      1  0.5196060000000  0.5166060000000  0.5946940000000 1.0
C      1  0.5043460000000  0.4752620000000  0.5941590000000 1.0
C      1  0.4753850000000  0.5095680000000  0.5948110000000 1.0
C      1  0.4054020000000  0.4439480000000  0.5048470000000 1.0
C      1  0.4997090000000  0.6139140000000  0.5063800000000 1.0
C      1  0.5961470000000  0.4453350000000  0.5064010000000 1.0
C      1  0.4583680000000  0.4241900000000  0.5515310000000 1.0
C      1  0.4553950000000  0.5757070000000  0.5514660000000 1.0
C      1  0.5860960000000  0.5016340000000  0.5518570000000 1.0
END
