TITL C-862503-991-792 0.000226792014886533 125000 -1016.1105458058 0 0 180 (C1) n - 1
REM
REM in /home/nfs/bkarasulu/CARBON/AIRSS/Generating-Clusters/TERSOFF/Higher-Symm/FIRE-HFTN
REM
REM
REM
REM
REM
REM ./C.cell (b20cbc046b6831c77cfcea5457e17084)
REM AIRSS Version 0.9.1 bugfix July 2018 build 013d7b7c2542+ Fri, 06 Jul 2018 19:26:36 +0100
REM compiler GCC version 9.2.1 20190827 (Red Hat 9.2.1-1)
REM options -cpp -mtune=generic -march=x86-64 -g -O0 -fpre-include=/usr/include/finclude/math-vector-fortran.h
REM seed -1712437168 -406736357 -71665316 352013398 -422483536 -8002590 -1823573601 805024624 848503391 797767297 -367982291 43859052 1776647344 1282971554 256118761 1583157022 316005707 1925277950 -335823847 -717337512 99997906 326760833 2018909340 1318592253 965526646 -1782892139 -53696481 2125559862 -1830932539 983090583 -2011866519 -188727657 -240099748
REM
CELL 1.54180   50.00000   50.00000   50.00000   90.00000   90.00000   90.00000
LATT -1
SFAC C  
C      1  0.4590120000000  0.4109110000000  0.4399260000000 1.0
C      1  0.4141710000000  0.4404390000000  0.4580840000000 1.0
C      1  0.4436580000000  0.4588820000000  0.4130550000000 1.0
C      1  0.5381880000000  0.4186250000000  0.5646680000000 1.0
C      1  0.5409590000000  0.5891890000000  0.4411460000000 1.0
C      1  0.4619600000000  0.5804140000000  0.5649730000000 1.0
C      1  0.5846680000000  0.4347750000000  0.5383340000000 1.0
C      1  0.5868450000000  0.5603790000000  0.4583610000000 1.0
C      1  0.4158650000000  0.5642380000000  0.5380650000000 1.0
C      1  0.5671190000000  0.4622620000000  0.5834880000000 1.0
C      1  0.5568280000000  0.5414680000000  0.4141250000000 1.0
C      1  0.4326770000000  0.5372530000000  0.5838530000000 1.0
C      1  0.4358510000000  0.4160780000000  0.4616770000000 1.0
C      1  0.4625400000000  0.4328010000000  0.4156010000000 1.0
C      1  0.4193510000000  0.4620220000000  0.4347330000000 1.0
C      1  0.5602750000000  0.4130420000000  0.5419380000000 1.0
C      1  0.4403420000000  0.5857840000000  0.5417310000000 1.0
C      1  0.5651830000000  0.5848550000000  0.4619930000000 1.0
C      1  0.5413950000000  0.4429460000000  0.5863330000000 1.0
C      1  0.4587830000000  0.5560650000000  0.5865460000000 1.0
C      1  0.5376170000000  0.5672230000000  0.4169660000000 1.0
C      1  0.5890180000000  0.4589150000000  0.5592460000000 1.0
C      1  0.4107840000000  0.5407690000000  0.5595470000000 1.0
C      1  0.5811520000000  0.5382290000000  0.4357360000000 1.0
C      1  0.4849720000000  0.5581760000000  0.3999840000000 1.0
C      1  0.5583680000000  0.4012690000000  0.4855460000000 1.0
C      1  0.3989570000000  0.4839400000000  0.5580730000000 1.0
C      1  0.5150610000000  0.5579100000000  0.6012160000000 1.0
C      1  0.5157430000000  0.4417760000000  0.3988670000000 1.0
C      1  0.4852500000000  0.4416640000000  0.6004960000000 1.0
C      1  0.4425770000000  0.3982280000000  0.5157110000000 1.0
C      1  0.4415010000000  0.5988990000000  0.4855700000000 1.0
C      1  0.5577010000000  0.6019970000000  0.5162000000000 1.0
C      1  0.6002290000000  0.4854860000000  0.4420560000000 1.0
C      1  0.6009490000000  0.5156420000000  0.5582700000000 1.0
C      1  0.4001540000000  0.5143240000000  0.4416030000000 1.0
C      1  0.3979530000000  0.5575810000000  0.4840360000000 1.0
C      1  0.4854400000000  0.3995030000000  0.5581720000000 1.0
C      1  0.5581730000000  0.4853780000000  0.3997890000000 1.0
C      1  0.5987720000000  0.5583420000000  0.5146760000000 1.0
C      1  0.4013490000000  0.4414840000000  0.5142660000000 1.0
C      1  0.6016600000000  0.4424710000000  0.4842490000000 1.0
C      1  0.5157640000000  0.3996250000000  0.4418970000000 1.0
C      1  0.4841930000000  0.6014180000000  0.4418090000000 1.0
C      1  0.5142320000000  0.5993970000000  0.5581960000000 1.0
C      1  0.4418710000000  0.4843900000000  0.6003880000000 1.0
C      1  0.5582350000000  0.5151090000000  0.6005890000000 1.0
C      1  0.4419490000000  0.5151840000000  0.3987220000000 1.0
C      1  0.4776840000000  0.5059100000000  0.5445490000000 1.0
C      1  0.5039470000000  0.5427780000000  0.4764030000000 1.0
C      1  0.5397550000000  0.4735100000000  0.5005430000000 1.0
C      1  0.5195670000000  0.4969760000000  0.4586600000000 1.0
C      1  0.5232840000000  0.4988040000000  0.5417010000000 1.0
C      1  0.4777590000000  0.5004990000000  0.4582300000000 1.0
C      1  0.5044560000000  0.5418330000000  0.5183780000000 1.0
C      1  0.4923220000000  0.4552660000000  0.4773550000000 1.0
C      1  0.4967780000000  0.4593220000000  0.5228210000000 1.0
C      1  0.4567690000000  0.4837420000000  0.5023120000000 1.0
C      1  0.4591340000000  0.5256110000000  0.5005760000000 1.0
C      1  0.5452950000000  0.5188350000000  0.4969050000000 1.0
C      1  0.5407200000000  0.4953880000000  0.4788910000000 1.0
C      1  0.4816300000000  0.5438720000000  0.4994090000000 1.0
C      1  0.4991460000000  0.4809240000000  0.5423880000000 1.0
C      1  0.4561510000000  0.5073150000000  0.5250820000000 1.0
C      1  0.5434810000000  0.4962280000000  0.5207870000000 1.0
C      1  0.4578600000000  0.5026970000000  0.4792640000000 1.0
C      1  0.5273380000000  0.5415910000000  0.4964330000000 1.0
C      1  0.4745340000000  0.4603370000000  0.5018360000000 1.0
C      1  0.5162730000000  0.4559040000000  0.5004550000000 1.0
C      1  0.4949930000000  0.4755520000000  0.4566160000000 1.0
C      1  0.5019190000000  0.5214800000000  0.4568550000000 1.0
C      1  0.5028490000000  0.5226910000000  0.5405050000000 1.0
C      1  0.5149800000000  0.5416100000000  0.5625780000000 1.0
C      1  0.5435760000000  0.5625670000000  0.5143220000000 1.0
C      1  0.5629170000000  0.5126100000000  0.5408580000000 1.0
C      1  0.4835650000000  0.5348740000000  0.4348650000000 1.0
C      1  0.4855860000000  0.4609650000000  0.5632460000000 1.0
C      1  0.5150820000000  0.4623350000000  0.4354270000000 1.0
C      1  0.4662440000000  0.5651050000000  0.4828160000000 1.0
C      1  0.4567830000000  0.4376780000000  0.5149600000000 1.0
C      1  0.5338290000000  0.4353050000000  0.4841940000000 1.0
C      1  0.4348460000000  0.5178420000000  0.4649680000000 1.0
C      1  0.4371890000000  0.4869260000000  0.5411240000000 1.0
C      1  0.5639900000000  0.4822450000000  0.4629780000000 1.0
C      1  0.5649040000000  0.5335940000000  0.5163630000000 1.0
C      1  0.5175270000000  0.5645870000000  0.5349640000000 1.0
C      1  0.5364930000000  0.5160870000000  0.5647120000000 1.0
C      1  0.4374590000000  0.5436910000000  0.4860190000000 1.0
C      1  0.5623020000000  0.4568890000000  0.4855910000000 1.0
C      1  0.4354930000000  0.4658200000000  0.5163160000000 1.0
C      1  0.4871790000000  0.5626620000000  0.4575120000000 1.0
C      1  0.5125620000000  0.4372930000000  0.4600720000000 1.0
C      1  0.4823790000000  0.4359070000000  0.5375190000000 1.0
C      1  0.4579100000000  0.5140760000000  0.4374830000000 1.0
C      1  0.5390430000000  0.4848040000000  0.4371280000000 1.0
C      1  0.4638350000000  0.4851860000000  0.5646390000000 1.0
C      1  0.5068780000000  0.5943190000000  0.5296080000000 1.0
C      1  0.5948940000000  0.5295850000000  0.5072110000000 1.0
C      1  0.5297090000000  0.5069570000000  0.5949840000000 1.0
C      1  0.4927490000000  0.5953010000000  0.4706390000000 1.0
C      1  0.4929870000000  0.4057420000000  0.5296980000000 1.0
C      1  0.5074710000000  0.4052880000000  0.4706440000000 1.0
C      1  0.4051370000000  0.5290520000000  0.4924740000000 1.0
C      1  0.4055060000000  0.4702480000000  0.5068330000000 1.0
C      1  0.5943290000000  0.4708140000000  0.4926990000000 1.0
C      1  0.4708020000000  0.5072480000000  0.4050000000000 1.0
C      1  0.4704700000000  0.4926630000000  0.5953980000000 1.0
C      1  0.5293890000000  0.4928220000000  0.4055060000000 1.0
C      1  0.5292250000000  0.5949200000000  0.5075620000000 1.0
C      1  0.5073790000000  0.5290470000000  0.5949020000000 1.0
C      1  0.5949130000000  0.5073250000000  0.5295290000000 1.0
C      1  0.4703880000000  0.5948310000000  0.4928540000000 1.0
C      1  0.5296730000000  0.4053120000000  0.4931080000000 1.0
C      1  0.4709770000000  0.4056080000000  0.5075020000000 1.0
C      1  0.4929250000000  0.5295950000000  0.4049240000000 1.0
C      1  0.5072980000000  0.4703590000000  0.4045940000000 1.0
C      1  0.4929110000000  0.4704580000000  0.5948810000000 1.0
C      1  0.4052520000000  0.5068900000000  0.4702370000000 1.0
C      1  0.5941840000000  0.4929130000000  0.4705620000000 1.0
C      1  0.4050410000000  0.4923900000000  0.5292670000000 1.0
C      1  0.5098560000000  0.4028790000000  0.5749970000000 1.0
C      1  0.4010460000000  0.5745040000000  0.5086250000000 1.0
C      1  0.5735160000000  0.5108870000000  0.4047870000000 1.0
C      1  0.4910900000000  0.4035590000000  0.4252740000000 1.0
C      1  0.4900180000000  0.5960510000000  0.5751170000000 1.0
C      1  0.5093100000000  0.5969900000000  0.4257110000000 1.0
C      1  0.5945870000000  0.5749830000000  0.4903000000000 1.0
C      1  0.5990130000000  0.4251580000000  0.5085290000000 1.0
C      1  0.4058620000000  0.4251850000000  0.4896260000000 1.0
C      1  0.4239540000000  0.5078820000000  0.5977280000000 1.0
C      1  0.4267940000000  0.4894270000000  0.4037920000000 1.0
C      1  0.5760170000000  0.4914890000000  0.5977980000000 1.0
C      1  0.5749820000000  0.4053500000000  0.5099850000000 1.0
C      1  0.5085080000000  0.5759910000000  0.4026860000000 1.0
C      1  0.4032150000000  0.5088330000000  0.5744630000000 1.0
C      1  0.4256570000000  0.4011510000000  0.4911210000000 1.0
C      1  0.5749500000000  0.5991680000000  0.4918490000000 1.0
C      1  0.4251980000000  0.5942060000000  0.5101700000000 1.0
C      1  0.4892600000000  0.5729680000000  0.5960060000000 1.0
C      1  0.5107560000000  0.4262840000000  0.5955310000000 1.0
C      1  0.4921130000000  0.4239340000000  0.4016760000000 1.0
C      1  0.5969000000000  0.5099510000000  0.4253160000000 1.0
C      1  0.4036540000000  0.4901350000000  0.4246410000000 1.0
C      1  0.5967470000000  0.4906430000000  0.5745150000000 1.0
C      1  0.5860640000000  0.5426490000000  0.5646680000000 1.0
C      1  0.5420500000000  0.5646290000000  0.5867490000000 1.0
C      1  0.5641000000000  0.5868900000000  0.5429720000000 1.0
C      1  0.4136450000000  0.5417170000000  0.4349460000000 1.0
C      1  0.4139850000000  0.4569660000000  0.5643490000000 1.0
C      1  0.5867110000000  0.4582490000000  0.4351270000000 1.0
C      1  0.4576510000000  0.5645630000000  0.4138360000000 1.0
C      1  0.4581000000000  0.4349510000000  0.5863160000000 1.0
C      1  0.5428790000000  0.4356370000000  0.4135320000000 1.0
C      1  0.4349430000000  0.5854980000000  0.4580480000000 1.0
C      1  0.4358490000000  0.4128020000000  0.5425830000000 1.0
C      1  0.5650320000000  0.4146850000000  0.4580430000000 1.0
C      1  0.5645490000000  0.5424020000000  0.5865110000000 1.0
C      1  0.5854030000000  0.5649180000000  0.5421740000000 1.0
C      1  0.5416120000000  0.5861810000000  0.5650940000000 1.0
C      1  0.4353300000000  0.5421390000000  0.4133960000000 1.0
C      1  0.5650210000000  0.4582010000000  0.4136450000000 1.0
C      1  0.4356220000000  0.4572010000000  0.5861440000000 1.0
C      1  0.4130020000000  0.5641200000000  0.4572340000000 1.0
C      1  0.5870590000000  0.4358720000000  0.4573540000000 1.0
C      1  0.4146260000000  0.4347940000000  0.5418120000000 1.0
C      1  0.4572390000000  0.5862090000000  0.4355580000000 1.0
C      1  0.5428290000000  0.4142040000000  0.4355080000000 1.0
C      1  0.4581700000000  0.4131540000000  0.5649300000000 1.0
C      1  0.6008660000000  0.4802800000000  0.5197260000000 1.0
C      1  0.4796030000000  0.5995030000000  0.5202640000000 1.0
C      1  0.5202920000000  0.4003660000000  0.5204050000000 1.0
C      1  0.4003380000000  0.4795490000000  0.4795410000000 1.0
C      1  0.3987480000000  0.5194210000000  0.5195290000000 1.0
C      1  0.5996480000000  0.5202140000000  0.4798650000000 1.0
C      1  0.5197640000000  0.6013970000000  0.4804820000000 1.0
C      1  0.4804590000000  0.3992060000000  0.4804400000000 1.0
C      1  0.4802150000000  0.5196630000000  0.6011930000000 1.0
C      1  0.5200730000000  0.5200720000000  0.3996690000000 1.0
C      1  0.5201660000000  0.4798530000000  0.6006370000000 1.0
C      1  0.4802560000000  0.4800730000000  0.3987470000000 1.0
END
