TITL C-862134-6730-209 -0.038483322329986 125000 -551.629001058192 0 0 102 (C1) n - 1
REM
REM in /home/nfs/bkarasulu/CARBON/AIRSS/Generating-Clusters/TERSOFF/Higher-Symm/FIRE-HFTN
REM
REM
REM
REM
REM
REM ./C.cell (b20cbc046b6831c77cfcea5457e17084)
REM AIRSS Version 0.9.1 bugfix July 2018 build 013d7b7c2542+ Fri, 06 Jul 2018 19:26:36 +0100
REM compiler GCC version 9.2.1 20190827 (Red Hat 9.2.1-1)
REM options -cpp -mtune=generic -march=x86-64 -g -O0 -fpre-include=/usr/include/finclude/math-vector-fortran.h
REM seed -357899438 1748793581 -1918479124 -1201699243 -2101331220 139585652 -1742256097 1232941019 -1797101781 623019804 -673190279 25580620 -376110952 -1546983634 -1888335208 1914476598 616529519 -429821375 -1261150609 -374340911 1993700220 2066713487 -395014588 1786342207 934577233 -1860067398 -252116992 -1074950038 -79719415 475304237 982341066 1409010538 -430420082
REM
CELL 1.54180   50.00000   50.00000   50.00000   90.00000   90.00000   90.00000
LATT -1
SFAC C  
C      1  0.4453710000000  0.5495160000000  0.4674140000000 1.0
C      1  0.5081300000000  0.4478640000000  0.4946100000000 1.0
C      1  0.4851660000000  0.5297400000000  0.4856900000000 1.0
C      1  0.4958900000000  0.5309890000000  0.4572640000000 1.0
C      1  0.4613390000000  0.5714420000000  0.4557320000000 1.0
C      1  0.5193440000000  0.4799070000000  0.4180390000000 1.0
C      1  0.4879430000000  0.4928320000000  0.5976860000000 1.0
C      1  0.4816370000000  0.5224390000000  0.5953600000000 1.0
C      1  0.5418650000000  0.5501940000000  0.4324850000000 1.0
C      1  0.4863480000000  0.4440260000000  0.4236280000000 1.0
C      1  0.5510780000000  0.5014230000000  0.4883310000000 1.0
C      1  0.5076190000000  0.4824390000000  0.5464390000000 1.0
C      1  0.5742980000000  0.4957060000000  0.5136360000000 1.0
C      1  0.5375960000000  0.5750730000000  0.5072370000000 1.0
C      1  0.5365900000000  0.4941830000000  0.5444490000000 1.0
C      1  0.5844220000000  0.4721120000000  0.4675060000000 1.0
C      1  0.5393290000000  0.5446160000000  0.5105740000000 1.0
C      1  0.5837510000000  0.5314760000000  0.4709420000000 1.0
C      1  0.4627310000000  0.5560180000000  0.5516880000000 1.0
C      1  0.5436520000000  0.5293350000000  0.5393950000000 1.0
C      1  0.5611140000000  0.4915030000000  0.4597000000000 1.0
C      1  0.5001240000000  0.5093930000000  0.5586110000000 1.0
C      1  0.4529330000000  0.5341550000000  0.4965720000000 1.0
C      1  0.5050880000000  0.4234880000000  0.4374990000000 1.0
C      1  0.4688500000000  0.5145990000000  0.5545590000000 1.0
C      1  0.5523890000000  0.4151630000000  0.4673730000000 1.0
C      1  0.4803050000000  0.5364100000000  0.4160130000000 1.0
C      1  0.4597110000000  0.4638030000000  0.4633570000000 1.0
C      1  0.5412060000000  0.5498720000000  0.5619710000000 1.0
C      1  0.4724060000000  0.5237860000000  0.5250890000000 1.0
C      1  0.4495800000000  0.4441270000000  0.5407300000000 1.0
C      1  0.4857740000000  0.5023980000000  0.4398170000000 1.0
C      1  0.4378820000000  0.5139140000000  0.5850250000000 1.0
C      1  0.4867400000000  0.4701210000000  0.4763510000000 1.0
C      1  0.5207170000000  0.5141760000000  0.5823940000000 1.0
C      1  0.5447280000000  0.4513970000000  0.4476940000000 1.0
C      1  0.4974190000000  0.5677110000000  0.5168980000000 1.0
C      1  0.4606100000000  0.4210900000000  0.4959050000000 1.0
C      1  0.4128100000000  0.4999570000000  0.5043460000000 1.0
C      1  0.4580130000000  0.4467230000000  0.4385170000000 1.0
C      1  0.5159590000000  0.5315190000000  0.4178430000000 1.0
C      1  0.5268740000000  0.4721590000000  0.4441330000000 1.0
C      1  0.4791420000000  0.4478730000000  0.5460040000000 1.0
C      1  0.5292330000000  0.4304640000000  0.5399560000000 1.0
C      1  0.5191400000000  0.5159320000000  0.4652740000000 1.0
C      1  0.4396070000000  0.5225780000000  0.4527960000000 1.0
C      1  0.5581460000000  0.5058810000000  0.4324660000000 1.0
C      1  0.4534960000000  0.4905250000000  0.5083990000000 1.0
C      1  0.5928430000000  0.4999640000000  0.4858110000000 1.0
C      1  0.4388660000000  0.5486030000000  0.5265730000000 1.0
C      1  0.5367650000000  0.5747170000000  0.4773860000000 1.0
C      1  0.5329150000000  0.4046020000000  0.4865100000000 1.0
C      1  0.4595540000000  0.4675120000000  0.5798930000000 1.0
C      1  0.5152380000000  0.4511110000000  0.5853720000000 1.0
C      1  0.5353850000000  0.4244200000000  0.4385620000000 1.0
C      1  0.4791310000000  0.4796630000000  0.5034080000000 1.0
C      1  0.4624160000000  0.4218980000000  0.4640880000000 1.0
C      1  0.5098410000000  0.5800290000000  0.4641560000000 1.0
C      1  0.5561860000000  0.4777600000000  0.5641900000000 1.0
C      1  0.4208640000000  0.4642960000000  0.5027060000000 1.0
C      1  0.5064820000000  0.4171690000000  0.4875950000000 1.0
C      1  0.4594260000000  0.5343640000000  0.5775710000000 1.0
C      1  0.5163430000000  0.5930110000000  0.5226860000000 1.0
C      1  0.5136060000000  0.4853890000000  0.4664020000000 1.0
C      1  0.5592990000000  0.4497030000000  0.4744650000000 1.0
C      1  0.5252370000000  0.4879990000000  0.4960100000000 1.0
C      1  0.4901560000000  0.4754920000000  0.4160360000000 1.0
C      1  0.5000010000000  0.5584430000000  0.4457990000000 1.0
C      1  0.5120760000000  0.5275170000000  0.5375330000000 1.0
C      1  0.4948750000000  0.5542630000000  0.5429770000000 1.0
C      1  0.4677830000000  0.5881170000000  0.5528150000000 1.0
C      1  0.5032230000000  0.5135860000000  0.5090560000000 1.0
C      1  0.5682850000000  0.4689610000000  0.5338170000000 1.0
C      1  0.4565590000000  0.4787040000000  0.4212470000000 1.0
C      1  0.4573420000000  0.5126180000000  0.4304680000000 1.0
C      1  0.5534240000000  0.5499030000000  0.4640710000000 1.0
C      1  0.4358850000000  0.5060000000000  0.4816660000000 1.0
C      1  0.5714880000000  0.5193740000000  0.5309500000000 1.0
C      1  0.4428180000000  0.4961990000000  0.5401780000000 1.0
C      1  0.4947520000000  0.4654320000000  0.5238380000000 1.0
C      1  0.5676770000000  0.5333630000000  0.4282180000000 1.0
C      1  0.4877190000000  0.4124870000000  0.5103360000000 1.0
C      1  0.5475720000000  0.5016180000000  0.5842620000000 1.0
C      1  0.4827950000000  0.6045300000000  0.5302170000000 1.0
C      1  0.5320280000000  0.5052980000000  0.4166390000000 1.0
C      1  0.4451790000000  0.5735350000000  0.5089420000000 1.0
C      1  0.5436090000000  0.4532350000000  0.5772400000000 1.0
C      1  0.5408140000000  0.5294580000000  0.4841120000000 1.0
C      1  0.4232920000000  0.5178900000000  0.5289000000000 1.0
C      1  0.4754120000000  0.5653460000000  0.4279310000000 1.0
C      1  0.5154900000000  0.5634230000000  0.5635460000000 1.0
C      1  0.4921770000000  0.4678280000000  0.5734130000000 1.0
C      1  0.4401210000000  0.4350080000000  0.5115430000000 1.0
C      1  0.5468320000000  0.4497700000000  0.5231590000000 1.0
C      1  0.4348640000000  0.4747730000000  0.4743340000000 1.0
C      1  0.4915450000000  0.4146980000000  0.4618470000000 1.0
C      1  0.4405240000000  0.4882520000000  0.5708570000000 1.0
C      1  0.4727090000000  0.5837380000000  0.5040410000000 1.0
C      1  0.4305070000000  0.4681100000000  0.5353990000000 1.0
C      1  0.5375440000000  0.4574310000000  0.4969570000000 1.0
C      1  0.4801820000000  0.5859340000000  0.4749540000000 1.0
C      1  0.4982490000000  0.4254100000000  0.5359210000000 1.0
END
