TITL C-862507-1800-1317 0.0351251331767083 125000 -337.221662670367 0 0 61 (C1) n - 1
REM
REM in /home/nfs/bkarasulu/CARBON/AIRSS/Generating-Clusters/TERSOFF/Higher-Symm/FIRE-HFTN
REM
REM
REM
REM
REM
REM ./C.cell (b20cbc046b6831c77cfcea5457e17084)
REM AIRSS Version 0.9.1 bugfix July 2018 build 013d7b7c2542+ Fri, 06 Jul 2018 19:26:36 +0100
REM compiler GCC version 9.2.1 20190827 (Red Hat 9.2.1-1)
REM options -cpp -mtune=generic -march=x86-64 -g -O0 -fpre-include=/usr/include/finclude/math-vector-fortran.h
REM seed -447741248 1314033153 348115569 635448308 -1420067351 -526633789 -1462629859 -908744412 -559205095 7877128 -1780002605 2020283711 1883236280 1091905096 574596298 -449693550 -1665145473 1648477690 -1203629556 -1016956256 -1335548158 -1050129409 -151469444 -1975010822 -1546461007 271021618 -1745642652 -1959972523 1339420951 -802081847 650756764 -1003667607 1846593599
REM
CELL 1.54180   50.00000   50.00000   50.00000   90.00000   90.00000   90.00000
LATT -1
SFAC C  
C      1  0.4639450000000  0.5626000000000  0.4916090000000 1.0
C      1  0.4576620000000  0.4863750000000  0.5464030000000 1.0
C      1  0.4894980000000  0.5190310000000  0.5228750000000 1.0
C      1  0.4789860000000  0.4361630000000  0.5323420000000 1.0
C      1  0.5456800000000  0.5363820000000  0.5478990000000 1.0
C      1  0.5623730000000  0.4915450000000  0.4880050000000 1.0
C      1  0.4860420000000  0.5221230000000  0.4637910000000 1.0
C      1  0.4231350000000  0.4636040000000  0.4882730000000 1.0
C      1  0.5137560000000  0.5288900000000  0.5479150000000 1.0
C      1  0.4762180000000  0.4582940000000  0.5130390000000 1.0
C      1  0.4945450000000  0.4871030000000  0.5786900000000 1.0
C      1  0.4848620000000  0.5570670000000  0.4707390000000 1.0
C      1  0.4845680000000  0.4967700000000  0.4234180000000 1.0
C      1  0.5117850000000  0.4784290000000  0.5225940000000 1.0
C      1  0.5615090000000  0.4990470000000  0.5167540000000 1.0
C      1  0.5213870000000  0.4517110000000  0.5324520000000 1.0
C      1  0.5430730000000  0.5043890000000  0.4693870000000 1.0
C      1  0.5295180000000  0.5485850000000  0.4494610000000 1.0
C      1  0.4709320000000  0.5208720000000  0.4360540000000 1.0
C      1  0.5301050000000  0.5003600000000  0.5330060000000 1.0
C      1  0.4449940000000  0.5399170000000  0.4914520000000 1.0
C      1  0.5500510000000  0.5294510000000  0.4567530000000 1.0
C      1  0.5361250000000  0.4579010000000  0.5590560000000 1.0
C      1  0.5130360000000  0.5019220000000  0.4763280000000 1.0
C      1  0.4770350000000  0.5454100000000  0.5354250000000 1.0
C      1  0.4412350000000  0.4765260000000  0.4689480000000 1.0
C      1  0.4797180000000  0.4867900000000  0.5266470000000 1.0
C      1  0.4416790000000  0.5218780000000  0.4420730000000 1.0
C      1  0.4873320000000  0.4394560000000  0.5606490000000 1.0
C      1  0.4690920000000  0.5051360000000  0.4819460000000 1.0
C      1  0.5694300000000  0.4633550000000  0.4870460000000 1.0
C      1  0.4661040000000  0.4900640000000  0.5735820000000 1.0
C      1  0.4836350000000  0.5471540000000  0.4243880000000 1.0
C      1  0.5129860000000  0.5203460000000  0.5002990000000 1.0
C      1  0.5400940000000  0.5033990000000  0.5829510000000 1.0
C      1  0.5645160000000  0.4494660000000  0.5124690000000 1.0
C      1  0.5061240000000  0.4605040000000  0.5705670000000 1.0
C      1  0.5531410000000  0.4962470000000  0.5576730000000 1.0
C      1  0.4956910000000  0.4468680000000  0.4265080000000 1.0
C      1  0.4686700000000  0.4677840000000  0.4627630000000 1.0
C      1  0.4804540000000  0.4701770000000  0.4353220000000 1.0
C      1  0.5075850000000  0.4768770000000  0.4921890000000 1.0
C      1  0.4987750000000  0.4310560000000  0.4740560000000 1.0
C      1  0.5122450000000  0.5109970000000  0.5771640000000 1.0
C      1  0.4719230000000  0.5682340000000  0.5187910000000 1.0
C      1  0.5117610000000  0.5096030000000  0.4182630000000 1.0
C      1  0.4298730000000  0.5337760000000  0.4666040000000 1.0
C      1  0.4302480000000  0.4554860000000  0.5155820000000 1.0
C      1  0.5363280000000  0.5377530000000  0.5033780000000 1.0
C      1  0.5144260000000  0.5629650000000  0.4732770000000 1.0
C      1  0.5579520000000  0.5297490000000  0.5219490000000 1.0
C      1  0.5040810000000  0.4269840000000  0.4458270000000 1.0
C      1  0.4865180000000  0.4563140000000  0.4838240000000 1.0
C      1  0.5274020000000  0.5658750000000  0.5016810000000 1.0
C      1  0.5384250000000  0.4361480000000  0.5147530000000 1.0
C      1  0.4774710000000  0.5678490000000  0.4437820000000 1.0
C      1  0.5158160000000  0.5610490000000  0.5316690000000 1.0
C      1  0.4328230000000  0.4736570000000  0.5384520000000 1.0
C      1  0.5641770000000  0.4704670000000  0.5397310000000 1.0
C      1  0.5131840000000  0.5393990000000  0.4250480000000 1.0
C      1  0.4582660000000  0.5166700000000  0.5064250000000 1.0
END
