TITL C-862131-2149-1476 0.0156132873415735 125000 -747.625025036132 0 0 133 (C1) n - 1
REM
REM in /home/nfs/bkarasulu/CARBON/AIRSS/Generating-Clusters/TERSOFF/Higher-Symm/FIRE-HFTN
REM
REM
REM
REM
REM
REM ./C.cell (b20cbc046b6831c77cfcea5457e17084)
REM AIRSS Version 0.9.1 bugfix July 2018 build 013d7b7c2542+ Fri, 06 Jul 2018 19:26:36 +0100
REM compiler GCC version 9.2.1 20190827 (Red Hat 9.2.1-1)
REM options -cpp -mtune=generic -march=x86-64 -g -O0 -fpre-include=/usr/include/finclude/math-vector-fortran.h
REM seed -125814364 1688206984 1113823710 -688375436 -565330872 1101353736 1290183857 1028696524 -688162124 -560340 -671263264 -1151254575 -109375502 -694787994 817416369 1293459879 -822962630 -1187145834 247093113 -478061222 1661100138 -1477077089 -146204501 1156159287 -1666530891 1168080666 -632327396 799552397 -113260604 -1231452114 -1369125697 -957557162 44065038
REM
CELL 1.54180   50.00000   50.00000   50.00000   90.00000   90.00000   90.00000
LATT -1
SFAC C  
C      1  0.4143050000000  0.5422240000000  0.4399750000000 1.0
C      1  0.4898890000000  0.5388600000000  0.6073600000000 1.0
C      1  0.5972330000000  0.5414570000000  0.4510560000000 1.0
C      1  0.4100380000000  0.4598180000000  0.5617310000000 1.0
C      1  0.4910650000000  0.4579550000000  0.3957350000000 1.0
C      1  0.5984330000000  0.4624130000000  0.5423950000000 1.0
C      1  0.5376870000000  0.5409910000000  0.4260100000000 1.0
C      1  0.4207410000000  0.5405430000000  0.5038560000000 1.0
C      1  0.5446610000000  0.5418290000000  0.5689190000000 1.0
C      1  0.5376750000000  0.4577340000000  0.5740910000000 1.0
C      1  0.4162800000000  0.4594490000000  0.4950240000000 1.0
C      1  0.5436120000000  0.4584990000000  0.4323240000000 1.0
C      1  0.4720410000000  0.4949330000000  0.5769520000000 1.0
C      1  0.5769270000000  0.5003340000000  0.4824450000000 1.0
C      1  0.4495970000000  0.4979880000000  0.4434530000000 1.0
C      1  0.4767610000000  0.5020680000000  0.4281740000000 1.0
C      1  0.5770060000000  0.5056440000000  0.5146080000000 1.0
C      1  0.4460480000000  0.5013150000000  0.5578310000000 1.0
C      1  0.5607930000000  0.4399430000000  0.4495360000000 1.0
C      1  0.4241380000000  0.4403380000000  0.4723870000000 1.0
C      1  0.5137220000000  0.4376150000000  0.5765130000000 1.0
C      1  0.5592690000000  0.5619530000000  0.5500430000000 1.0
C      1  0.4264060000000  0.5590600000000  0.5275000000000 1.0
C      1  0.5143280000000  0.5601780000000  0.4205120000000 1.0
C      1  0.4645170000000  0.4649520000000  0.5486120000000 1.0
C      1  0.5570940000000  0.4689600000000  0.5017910000000 1.0
C      1  0.4742330000000  0.4648260000000  0.4507800000000 1.0
C      1  0.4712900000000  0.5355840000000  0.4528160000000 1.0
C      1  0.5607490000000  0.5376080000000  0.4928890000000 1.0
C      1  0.4729440000000  0.5325170000000  0.5502450000000 1.0
C      1  0.5086990000000  0.4461630000000  0.4654680000000 1.0
C      1  0.4586830000000  0.4460930000000  0.5117310000000 1.0
C      1  0.5298350000000  0.4522210000000  0.5287720000000 1.0
C      1  0.5098250000000  0.5489820000000  0.5391270000000 1.0
C      1  0.4661980000000  0.5539920000000  0.4900530000000 1.0
C      1  0.5299830000000  0.5561820000000  0.4714080000000 1.0
C      1  0.4968120000000  0.4861250000000  0.4614500000000 1.0
C      1  0.4746320000000  0.4840380000000  0.5195360000000 1.0
C      1  0.5349070000000  0.4919000000000  0.5160060000000 1.0
C      1  0.4949890000000  0.5102130000000  0.5452860000000 1.0
C      1  0.4682480000000  0.5140910000000  0.4774610000000 1.0
C      1  0.5382140000000  0.5166130000000  0.4822720000000 1.0
C      1  0.4770490000000  0.4084340000000  0.5133960000000 1.0
C      1  0.5235380000000  0.4179350000000  0.5053850000000 1.0
C      1  0.4979140000000  0.4107010000000  0.4883960000000 1.0
C      1  0.4907930000000  0.5902500000000  0.4919760000000 1.0
C      1  0.5229120000000  0.5945020000000  0.4867950000000 1.0
C      1  0.4925900000000  0.5836840000000  0.5230170000000 1.0
C      1  0.5783030000000  0.5028460000000  0.5635120000000 1.0
C      1  0.5162630000000  0.5012420000000  0.4007730000000 1.0
C      1  0.4049800000000  0.5013300000000  0.5331720000000 1.0
C      1  0.5773440000000  0.4982440000000  0.4337540000000 1.0
C      1  0.5167010000000  0.4973840000000  0.6011320000000 1.0
C      1  0.4059990000000  0.4992290000000  0.4641810000000 1.0
C      1  0.5859590000000  0.5484190000000  0.5071860000000 1.0
C      1  0.4658310000000  0.5451830000000  0.4246700000000 1.0
C      1  0.4516020000000  0.5421630000000  0.5688660000000 1.0
C      1  0.5831480000000  0.4565290000000  0.4921560000000 1.0
C      1  0.4633320000000  0.4508530000000  0.5759390000000 1.0
C      1  0.4521840000000  0.4549190000000  0.4324000000000 1.0
C      1  0.4885990000000  0.4453130000000  0.5903280000000 1.0
C      1  0.5843360000000  0.4508440000000  0.4633750000000 1.0
C      1  0.4260940000000  0.4505730000000  0.4449730000000 1.0
C      1  0.4897260000000  0.5497840000000  0.4083470000000 1.0
C      1  0.5843630000000  0.5540820000000  0.5362190000000 1.0
C      1  0.4262300000000  0.5481000000000  0.5549510000000 1.0
C      1  0.4791070000000  0.5559040000000  0.5298050000000 1.0
C      1  0.5403130000000  0.5663730000000  0.5010340000000 1.0
C      1  0.4887100000000  0.5628220000000  0.4683550000000 1.0
C      1  0.4783990000000  0.4377420000000  0.4742200000000 1.0
C      1  0.5363510000000  0.4450600000000  0.4969110000000 1.0
C      1  0.4808460000000  0.4353600000000  0.5347670000000 1.0
C      1  0.5153970000000  0.5904800000000  0.5419630000000 1.0
C      1  0.5303930000000  0.5955400000000  0.4568960000000 1.0
C      1  0.4557030000000  0.5938830000000  0.4972980000000 1.0
C      1  0.5195670000000  0.4060070000000  0.4606710000000 1.0
C      1  0.5285880000000  0.4106020000000  0.5340930000000 1.0
C      1  0.4477770000000  0.4061280000000  0.5050530000000 1.0
C      1  0.5041160000000  0.5109450000000  0.4457470000000 1.0
C      1  0.4520500000000  0.5071290000000  0.5244620000000 1.0
C      1  0.5482160000000  0.5157310000000  0.5283410000000 1.0
C      1  0.5008940000000  0.4838200000000  0.5600770000000 1.0
C      1  0.4508930000000  0.4889100000000  0.4756450000000 1.0
C      1  0.5461880000000  0.4910580000000  0.4683500000000 1.0
C      1  0.5501500000000  0.5513040000000  0.4517160000000 1.0
C      1  0.4385470000000  0.5515080000000  0.4818220000000 1.0
C      1  0.5155240000000  0.5477560000000  0.5669190000000 1.0
C      1  0.5510050000000  0.4525960000000  0.5476760000000 1.0
C      1  0.4315610000000  0.4499170000000  0.5194350000000 1.0
C      1  0.5154960000000  0.4480030000000  0.4373000000000 1.0
C      1  0.5217540000000  0.4716660000000  0.4793140000000 1.0
C      1  0.4687100000000  0.4674570000000  0.4921790000000 1.0
C      1  0.5044360000000  0.4601350000000  0.5372320000000 1.0
C      1  0.5297660000000  0.5409610000000  0.5208840000000 1.0
C      1  0.4723290000000  0.5286840000000  0.5084350000000 1.0
C      1  0.5090590000000  0.5326560000000  0.4707150000000 1.0
C      1  0.5442020000000  0.4242750000000  0.4693850000000 1.0
C      1  0.4474110000000  0.4224880000000  0.4789720000000 1.0
C      1  0.5070630000000  0.4209530000000  0.5519930000000 1.0
C      1  0.5417210000000  0.5795280000000  0.5322900000000 1.0
C      1  0.4514250000000  0.5754010000000  0.5229100000000 1.0
C      1  0.5080710000000  0.5785770000000  0.4435980000000 1.0
C      1  0.4655460000000  0.5635420000000  0.5836530000000 1.0
C      1  0.5896980000000  0.5694130000000  0.4855380000000 1.0
C      1  0.4467890000000  0.5669660000000  0.4301650000000 1.0
C      1  0.4662720000000  0.4330200000000  0.4186940000000 1.0
C      1  0.5889580000000  0.4353850000000  0.5116800000000 1.0
C      1  0.4420930000000  0.4307730000000  0.5700990000000 1.0
C      1  0.5497650000000  0.5112970000000  0.5620780000000 1.0
C      1  0.5289690000000  0.5106380000000  0.4259410000000 1.0
C      1  0.4227860000000  0.5097070000000  0.5107000000000 1.0
C      1  0.5490590000000  0.4894150000000  0.4372660000000 1.0
C      1  0.5291540000000  0.4882890000000  0.5757030000000 1.0
C      1  0.4215850000000  0.4893230000000  0.4873340000000 1.0
C      1  0.5574250000000  0.4112430000000  0.5436310000000 1.0
C      1  0.5090270000000  0.4067050000000  0.4319100000000 1.0
C      1  0.4260330000000  0.4088030000000  0.5259760000000 1.0
C      1  0.5595960000000  0.5921340000000  0.4490560000000 1.0
C      1  0.5090260000000  0.5892280000000  0.5717000000000 1.0
C      1  0.4359730000000  0.5928970000000  0.4739360000000 1.0
C      1  0.4292650000000  0.5659920000000  0.4560750000000 1.0
C      1  0.4968290000000  0.5629860000000  0.5870450000000 1.0
C      1  0.5779990000000  0.5656570000000  0.4567370000000 1.0
C      1  0.4223590000000  0.4349250000000  0.5458600000000 1.0
C      1  0.4974830000000  0.4337600000000  0.4166080000000 1.0
C      1  0.5774770000000  0.4371920000000  0.5409650000000 1.0
C      1  0.4205800000000  0.5129760000000  0.4426250000000 1.0
C      1  0.4903820000000  0.5100560000000  0.6002360000000 1.0
C      1  0.5904110000000  0.5127860000000  0.4558090000000 1.0
C      1  0.4169860000000  0.4884290000000  0.5566710000000 1.0
C      1  0.4904020000000  0.4872500000000  0.4026890000000 1.0
C      1  0.5907830000000  0.4910490000000  0.5398400000000 1.0
C      1  0.5032920000000  0.4977610000000  0.5177560000000 1.0
END
