TITL C-862506-1665-1161 -22.7394260447393 125000 -499.533559446277 0 0 96 (C2) n - 1
REM
REM in /home/nfs/bkarasulu/CARBON/AIRSS/Generating-Clusters/TERSOFF/Higher-Symm/FIRE-HFTN
REM
REM
REM
REM
REM
REM ./C.cell (b20cbc046b6831c77cfcea5457e17084)
REM AIRSS Version 0.9.1 bugfix July 2018 build 013d7b7c2542+ Fri, 06 Jul 2018 19:26:36 +0100
REM compiler GCC version 9.2.1 20190827 (Red Hat 9.2.1-1)
REM options -cpp -mtune=generic -march=x86-64 -g -O0 -fpre-include=/usr/include/finclude/math-vector-fortran.h
REM seed -1767598361 -1398878569 -76551523 1903487772 703196123 74827468 1772679014 1273460795 -1771046574 -491290281 -202969 -269620643 514672345 -1599458515 -1958983665 -772453226 584576841 675062589 406725367 273243103 -288001222 201937095 966529503 -1758866485 -843983257 621340324 308709837 -936740401 -1439380994 805802255 899153044 444701356 -508877919
REM
CELL 1.54180   50.00000   50.00000   50.00000   90.00000   90.00000   90.00000
LATT -1
SFAC C  
C      1  0.5395310000000  0.4318480000000  0.5018640000000 1.0
C      1  0.4604690000000  0.4318480000000  0.4981360000000 1.0
C      1  0.5168910000000  0.5042590000000  0.5004730000000 1.0
C      1  0.4831090000000  0.5042590000000  0.4995270000000 1.0
C      1  0.4610910000000  0.5944100000000  0.4722390000000 1.0
C      1  0.5389090000000  0.5944100000000  0.5277610000000 1.0
C      1  0.5768350000000  0.4656650000000  0.4880980000000 1.0
C      1  0.4231650000000  0.4656650000000  0.5119020000000 1.0
C      1  0.5758630000000  0.5024630000000  0.5183870000000 1.0
C      1  0.4241370000000  0.5024630000000  0.4816130000000 1.0
C      1  0.5772330000000  0.5171800000000  0.5467060000000 1.0
C      1  0.4227670000000  0.5171800000000  0.4532940000000 1.0
C      1  0.5556740000000  0.4922180000000  0.5537040000000 1.0
C      1  0.4443260000000  0.4922180000000  0.4462960000000 1.0
C      1  0.4396150000000  0.5465730000000  0.5076870000000 1.0
C      1  0.5603850000000  0.5465730000000  0.4923120000000 1.0
C      1  0.5160290000000  0.4477130000000  0.4490320000000 1.0
C      1  0.4839710000000  0.4477130000000  0.5509680000000 1.0
C      1  0.5800020000000  0.5031430000000  0.4660780000000 1.0
C      1  0.4199980000000  0.5031430000000  0.5339220000000 1.0
C      1  0.5501950000000  0.5523950000000  0.4651360000000 1.0
C      1  0.4498050000000  0.5523950000000  0.5348640000000 1.0
C      1  0.4926830000000  0.4320360000000  0.4601510000000 1.0
C      1  0.5073170000000  0.4320360000000  0.5398490000000 1.0
C      1  0.4859880000000  0.4996920000000  0.5926860000000 1.0
C      1  0.5140120000000  0.4996920000000  0.4073140000000 1.0
C      1  0.4768800000000  0.5387820000000  0.5806810000000 1.0
C      1  0.5231200000000  0.5387810000000  0.4193190000000 1.0
C      1  0.5180850000000  0.4659030000000  0.5175100000000 1.0
C      1  0.4819150000000  0.4659030000000  0.4824910000000 1.0
C      1  0.5396830000000  0.4527120000000  0.5759830000000 1.0
C      1  0.4603170000000  0.4527120000000  0.4240170000000 1.0
C      1  0.5558370000000  0.5688460000000  0.5399460000000 1.0
C      1  0.4441630000000  0.5688460000000  0.4600540000000 1.0
C      1  0.5026100000000  0.5361910000000  0.4558280000000 1.0
C      1  0.4973900000000  0.5361910000000  0.5441720000000 1.0
C      1  0.5235100000000  0.5249340000000  0.5226900000000 1.0
C      1  0.4764900000000  0.5249340000000  0.4773090000000 1.0
C      1  0.5733610000000  0.4704010000000  0.5169830000000 1.0
C      1  0.4266390000000  0.4704010000000  0.4830170000000 1.0
C      1  0.5155410000000  0.4738190000000  0.4859790000000 1.0
C      1  0.4844590000000  0.4738190000000  0.5140210000000 1.0
C      1  0.5485390000000  0.4506000000000  0.4517850000000 1.0
C      1  0.4514610000000  0.4506000000000  0.5482150000000 1.0
C      1  0.5088620000000  0.5226740000000  0.5757030000000 1.0
C      1  0.4911380000000  0.5226740000000  0.4242970000000 1.0
C      1  0.5306340000000  0.5832760000000  0.4988680000000 1.0
C      1  0.4693660000000  0.5832760000000  0.5011320000000 1.0
C      1  0.4647700000000  0.5452110000000  0.4144450000000 1.0
C      1  0.5352300000000  0.5452110000000  0.5855550000000 1.0
C      1  0.4826210000000  0.4784770000000  0.5454710000000 1.0
C      1  0.5173790000000  0.4784770000000  0.4545290000000 1.0
C      1  0.5350250000000  0.4402970000000  0.5494790000000 1.0
C      1  0.4649750000000  0.4402970000000  0.4505210000000 1.0
C      1  0.4923860000000  0.5860610000000  0.5195710000000 1.0
C      1  0.5076140000000  0.5860610000000  0.4804290000000 1.0
C      1  0.5693060000000  0.5171830000000  0.4931140000000 1.0
C      1  0.4306940000000  0.5171830000000  0.5068860000000 1.0
C      1  0.5191440000000  0.4705870000000  0.5890850000000 1.0
C      1  0.4808560000000  0.4705870000000  0.4109150000000 1.0
C      1  0.4909090000000  0.5637300000000  0.4708400000000 1.0
C      1  0.5090910000000  0.5637300000000  0.5291600000000 1.0
C      1  0.5280570000000  0.4809830000000  0.5418510000000 1.0
C      1  0.4719430000000  0.4809830000000  0.4581490000000 1.0
C      1  0.4459030000000  0.4456670000000  0.4750820000000 1.0
C      1  0.5540970000000  0.4456670000000  0.5249180000000 1.0
C      1  0.5572650000000  0.5446630000000  0.5590840000000 1.0
C      1  0.4427350000000  0.5446630000000  0.4409150000000 1.0
C      1  0.4603190000000  0.5547320000000  0.4858690000000 1.0
C      1  0.5396810000000  0.5547320000000  0.5141300000000 1.0
C      1  0.5506480000000  0.4288940000000  0.4743910000000 1.0
C      1  0.4493520000000  0.4288940000000  0.5256090000000 1.0
C      1  0.4721040000000  0.4988870000000  0.4090750000000 1.0
C      1  0.5278960000000  0.4988870000000  0.5909250000000 1.0
C      1  0.5358330000000  0.5209700000000  0.5514780000000 1.0
C      1  0.4641670000000  0.5209700000000  0.4485220000000 1.0
C      1  0.5129060000000  0.4684160000000  0.4116620000000 1.0
C      1  0.4870940000000  0.4684160000000  0.5883380000000 1.0
C      1  0.4410380000000  0.4780640000000  0.5333090000000 1.0
C      1  0.5589620000000  0.4780640000000  0.4666910000000 1.0
C      1  0.4890170000000  0.4252940000000  0.4903590000000 1.0
C      1  0.5109830000000  0.4252940000000  0.5096410000000 1.0
C      1  0.4600950000000  0.5068820000000  0.5221700000000 1.0
C      1  0.5399050000000  0.5068820000000  0.4778300000000 1.0
C      1  0.4375450000000  0.4715160000000  0.4260990000000 1.0
C      1  0.5624550000000  0.4715160000000  0.5739010000000 1.0
C      1  0.4424960000000  0.4916660000000  0.5822950000000 1.0
C      1  0.5575040000000  0.4916660000000  0.4177050000000 1.0
C      1  0.5053190000000  0.4925790000000  0.5560920000000 1.0
C      1  0.4946810000000  0.4925790000000  0.4439080000000 1.0
C      1  0.5433850000000  0.4660980000000  0.4230750000000 1.0
C      1  0.4566150000000  0.4660980000000  0.5769250000000 1.0
C      1  0.4582970000000  0.5151510000000  0.5932400000000 1.0
C      1  0.5417030000000  0.5151510000000  0.4067600000000 1.0
C      1  0.4685280000000  0.5302560000000  0.5400560000000 1.0
C      1  0.5314720000000  0.5302560000000  0.4599440000000 1.0
END
