TITL C-862500-986-1426 -0.0012785075512831 125000 -345.857870967007 0 0 65 (C4) n - 1
REM
REM in /home/nfs/bkarasulu/CARBON/AIRSS/Generating-Clusters/TERSOFF/Higher-Symm/FIRE-HFTN
REM
REM
REM
REM
REM
REM ./C.cell (b20cbc046b6831c77cfcea5457e17084)
REM AIRSS Version 0.9.1 bugfix July 2018 build 013d7b7c2542+ Fri, 06 Jul 2018 19:26:36 +0100
REM compiler GCC version 9.2.1 20190827 (Red Hat 9.2.1-1)
REM options -cpp -mtune=generic -march=x86-64 -g -O0 -fpre-include=/usr/include/finclude/math-vector-fortran.h
REM seed -134395651 408480321 -2130533525 282008195 -682287854 2147049310 405039089 -1019120290 -93958412 -1406107464 -213103410 392085550 -215642661 1541717878 -847741836 780032249 1207515422 145692146 1977772947 267840795 1368991693 770783751 -777462039 -1250071421 -1703722049 1328119025 827580803 132914351 -293997790 -1385310242 -135405885 -1337989685 1870425575
REM
CELL 1.54180   50.00000   50.00000   50.00000   90.00000   90.00000   90.00000
LATT -1
SFAC C  
C      1  0.5541080000000  0.5570940000000  0.4848790000000 1.0
C      1  0.5148530000000  0.5570940000000  0.5542120000000 1.0
C      1  0.4455200000000  0.5570940000000  0.5149560000000 1.0
C      1  0.4847760000000  0.5570940000000  0.4456240000000 1.0
C      1  0.5255520000000  0.5660850000000  0.5004160000000 1.0
C      1  0.4993160000000  0.5660850000000  0.5256560000000 1.0
C      1  0.4740760000000  0.5660850000000  0.4994200000000 1.0
C      1  0.5003120000000  0.5660850000000  0.4741800000000 1.0
C      1  0.4359310000000  0.5278350000000  0.5188960000000 1.0
C      1  0.4808350000000  0.5278350000000  0.4360340000000 1.0
C      1  0.5636980000000  0.5278350000000  0.4809390000000 1.0
C      1  0.5187930000000  0.5278350000000  0.5638010000000 1.0
C      1  0.5245950000000  0.4940510000000  0.4733140000000 1.0
C      1  0.5264180000000  0.4940510000000  0.5246990000000 1.0
C      1  0.4750330000000  0.4940510000000  0.5265210000000 1.0
C      1  0.4732100000000  0.4940510000000  0.4751360000000 1.0
C      1  0.4689180000000  0.5304500000000  0.5582170000000 1.0
C      1  0.4415150000000  0.5304500000000  0.4690220000000 1.0
C      1  0.5307100000000  0.5304500000000  0.4416180000000 1.0
C      1  0.5581130000000  0.5304500000000  0.5308130000000 1.0
C      1  0.5238030000000  0.4550080000000  0.5662310000000 1.0
C      1  0.4335000000000  0.4550080000000  0.5239070000000 1.0
C      1  0.4758250000000  0.4550080000000  0.4336040000000 1.0
C      1  0.5661280000000  0.4550080000000  0.4759290000000 1.0
C      1  0.5162460000000  0.5182570000000  0.5139010000000 1.0
C      1  0.4858310000000  0.5182570000000  0.5163490000000 1.0
C      1  0.4833830000000  0.5182570000000  0.4859340000000 1.0
C      1  0.5137980000000  0.5182570000000  0.4834860000000 1.0
C      1  0.5583340000000  0.4693050000000  0.4991350000000 1.0
C      1  0.5005960000000  0.4693050000000  0.5584380000000 1.0
C      1  0.4412940000000  0.4693050000000  0.5007000000000 1.0
C      1  0.4990320000000  0.4693050000000  0.4413980000000 1.0
C      1  0.5752780000000  0.4865470000000  0.5150050000000 1.0
C      1  0.4847270000000  0.4865470000000  0.5753820000000 1.0
C      1  0.4243500000000  0.4865470000000  0.4848300000000 1.0
C      1  0.5149020000000  0.4865470000000  0.4244540000000 1.0
C      1  0.5723880000000  0.5158100000000  0.5085490000000 1.0
C      1  0.4911830000000  0.5158100000000  0.5724920000000 1.0
C      1  0.4272400000000  0.5158100000000  0.4912870000000 1.0
C      1  0.5084450000000  0.5158100000000  0.4273440000000 1.0
C      1  0.4691740000000  0.4698340000000  0.4918080000000 1.0
C      1  0.5079240000000  0.4698340000000  0.4692770000000 1.0
C      1  0.5304540000000  0.4698340000000  0.5080270000000 1.0
C      1  0.4917050000000  0.4698340000000  0.5305580000000 1.0
C      1  0.4502240000000  0.5113540000000  0.4447020000000 1.0
C      1  0.5550290000000  0.5113540000000  0.4503280000000 1.0
C      1  0.5494040000000  0.5113540000000  0.5551330000000 1.0
C      1  0.4445990000000  0.5113540000000  0.5495080000000 1.0
C      1  0.4382500000000  0.4796610000000  0.4569930000000 1.0
C      1  0.5427390000000  0.4796610000000  0.4383530000000 1.0
C      1  0.5613790000000  0.4796610000000  0.5428420000000 1.0
C      1  0.4568900000000  0.4796610000000  0.5614820000000 1.0
C      1  0.4831660000000  0.4402900000000  0.5199740000000 1.0
C      1  0.4797580000000  0.4402900000000  0.4832700000000 1.0
C      1  0.5164620000000  0.4402900000000  0.4798610000000 1.0
C      1  0.5198710000000  0.4402900000000  0.5165660000000 1.0
C      1  0.5419520000000  0.4512720000000  0.5437030000000 1.0
C      1  0.4560280000000  0.4512720000000  0.5420550000000 1.0
C      1  0.4576770000000  0.4512720000000  0.4561320000000 1.0
C      1  0.5436000000000  0.4512720000000  0.4577800000000 1.0
C      1  0.4801210000000  0.5410970000000  0.5325730000000 1.0
C      1  0.4671590000000  0.5410970000000  0.4802240000000 1.0
C      1  0.5195080000000  0.5410970000000  0.4672620000000 1.0
C      1  0.5324700000000  0.5410970000000  0.5196110000000 1.0
C      1  0.4998140000000  0.4730840000000  0.4999180000000 1.0
END
