TITL C-862500-986-52 -0.00929755708445497 125000 -338.838537577706 0 0 63 (C1) n - 1
REM
REM in /home/nfs/bkarasulu/CARBON/AIRSS/Generating-Clusters/TERSOFF/Higher-Symm/FIRE-HFTN
REM
REM
REM
REM
REM
REM ./C.cell (b20cbc046b6831c77cfcea5457e17084)
REM AIRSS Version 0.9.1 bugfix July 2018 build 013d7b7c2542+ Fri, 06 Jul 2018 19:26:36 +0100
REM compiler GCC version 9.2.1 20190827 (Red Hat 9.2.1-1)
REM options -cpp -mtune=generic -march=x86-64 -g -O0 -fpre-include=/usr/include/finclude/math-vector-fortran.h
REM seed 1432393761 -857151135 1348254463 1049702009 1536015408 446552134 -1034009514 571963162 -1502375079 -589828763 988907969 1089884180 -530984733 454020164 -1247889002 684318194 1529445314 1592231150 -683061264 1275479717 -1935364553 1354206424 1684573166 -1171516141 -148171681 -433080445 597564455 -1401608164 -520508122 1370564308 1433860237 817197256 -242117238
REM
CELL 1.54180   50.00000   50.00000   50.00000   90.00000   90.00000   90.00000
LATT -1
SFAC C  
C      1  0.5802600000000  0.5135290000000  0.4593360000000 1.0
C      1  0.4426160000000  0.5604100000000  0.4636100000000 1.0
C      1  0.4712910000000  0.4203180000000  0.4568830000000 1.0
C      1  0.5770170000000  0.5150410000000  0.5322230000000 1.0
C      1  0.4461130000000  0.5609200000000  0.5390070000000 1.0
C      1  0.4714750000000  0.4251550000000  0.5394760000000 1.0
C      1  0.5805660000000  0.4839140000000  0.4591040000000 1.0
C      1  0.4486600000000  0.4384090000000  0.4602330000000 1.0
C      1  0.4674640000000  0.5771910000000  0.4650290000000 1.0
C      1  0.5776550000000  0.4854820000000  0.5323160000000 1.0
C      1  0.4466230000000  0.4403290000000  0.5397630000000 1.0
C      1  0.4711480000000  0.5762410000000  0.5412060000000 1.0
C      1  0.5250480000000  0.5163810000000  0.5461690000000 1.0
C      1  0.4706970000000  0.5173640000000  0.5490920000000 1.0
C      1  0.4976810000000  0.4674420000000  0.5522880000000 1.0
C      1  0.5310550000000  0.5149030000000  0.4445170000000 1.0
C      1  0.4704740000000  0.5166020000000  0.4496050000000 1.0
C      1  0.5037240000000  0.4641370000000  0.4491910000000 1.0
C      1  0.5253090000000  0.4830150000000  0.5459010000000 1.0
C      1  0.4722420000000  0.4855730000000  0.5449820000000 1.0
C      1  0.4976780000000  0.5338270000000  0.5511530000000 1.0
C      1  0.5313750000000  0.4819450000000  0.4446720000000 1.0
C      1  0.4770140000000  0.4817370000000  0.4574060000000 1.0
C      1  0.5012210000000  0.5341580000000  0.4488310000000 1.0
C      1  0.4244020000000  0.5152180000000  0.5185860000000 1.0
C      1  0.5219140000000  0.4271670000000  0.5184190000000 1.0
C      1  0.5471470000000  0.5555630000000  0.5153390000000 1.0
C      1  0.4246990000000  0.5134890000000  0.4821750000000 1.0
C      1  0.5215170000000  0.4199890000000  0.4828500000000 1.0
C      1  0.5512680000000  0.5570710000000  0.4795810000000 1.0
C      1  0.4281320000000  0.4831380000000  0.5173320000000 1.0
C      1  0.5214680000000  0.5747510000000  0.5210060000000 1.0
C      1  0.5496360000000  0.4428660000000  0.5161930000000 1.0
C      1  0.4306530000000  0.4815210000000  0.4838420000000 1.0
C      1  0.5206730000000  0.5755740000000  0.4847860000000 1.0
C      1  0.5518740000000  0.4393610000000  0.4802730000000 1.0
C      1  0.4509610000000  0.4672290000000  0.4654400000000 1.0
C      1  0.5561870000000  0.4670120000000  0.4576260000000 1.0
C      1  0.4953410000000  0.5672010000000  0.4622470000000 1.0
C      1  0.4453810000000  0.4695390000000  0.5379750000000 1.0
C      1  0.5539400000000  0.4681670000000  0.5348120000000 1.0
C      1  0.4978700000000  0.5635630000000  0.5406360000000 1.0
C      1  0.4420420000000  0.5307520000000  0.4618840000000 1.0
C      1  0.5555580000000  0.5300560000000  0.4578450000000 1.0
C      1  0.4991970000000  0.4289280000000  0.4564830000000 1.0
C      1  0.4449260000000  0.5313550000000  0.5388070000000 1.0
C      1  0.5525390000000  0.5313470000000  0.5343580000000 1.0
C      1  0.4980090000000  0.4376420000000  0.5400420000000 1.0
C      1  0.5172250000000  0.4765070000000  0.5163440000000 1.0
C      1  0.5011840000000  0.5420770000000  0.5047230000000 1.0
C      1  0.4684190000000  0.4941580000000  0.5129840000000 1.0
C      1  0.5371080000000  0.4760840000000  0.4939030000000 1.0
C      1  0.5159530000000  0.5345440000000  0.4783060000000 1.0
C      1  0.4929900000000  0.4944590000000  0.4871840000000 1.0
C      1  0.5165930000000  0.5184100000000  0.5170110000000 1.0
C      1  0.4956590000000  0.4553990000000  0.5021340000000 1.0
C      1  0.4603380000000  0.5258130000000  0.5002080000000 1.0
C      1  0.5376580000000  0.5203370000000  0.4945380000000 1.0
C      1  0.5159690000000  0.4609200000000  0.4775350000000 1.0
C      1  0.4777900000000  0.5174580000000  0.4793330000000 1.0
C      1  0.4737580000000  0.5486600000000  0.5096530000000 1.0
C      1  0.4685800000000  0.4644430000000  0.5033860000000 1.0
C      1  0.5510390000000  0.4982110000000  0.4853220000000 1.0
END
