TITL C-862130-1496-763 0.420401008899739 125000 -921.606336849226 0 0 154 (C1) n - 1
REM
REM in /home/nfs/bkarasulu/CARBON/AIRSS/Generating-Clusters/TERSOFF/Higher-Symm/FIRE-HFTN
REM
REM
REM
REM
REM
REM ./C.cell (b20cbc046b6831c77cfcea5457e17084)
REM AIRSS Version 0.9.1 bugfix July 2018 build 013d7b7c2542+ Fri, 06 Jul 2018 19:26:36 +0100
REM compiler GCC version 9.2.1 20190827 (Red Hat 9.2.1-1)
REM options -cpp -mtune=generic -march=x86-64 -g -O0 -fpre-include=/usr/include/finclude/math-vector-fortran.h
REM seed 1641134951 1773048304 1140496553 -1488592644 -2020394404 81912100 888943598 -187804002 -587193126 -2137933880 613602625 -1529398156 1846897136 1833964520 726099873 -176600858 2094363080 -737371594 -427728936 -316382528 994114614 928154999 553235510 1931507831 2143376195 -2086044890 1003278667 -628832325 1461346082 1252101288 1134098238 1461789153 2067337106
REM
CELL 1.54180   50.00000   50.00000   50.00000   90.00000   90.00000   90.00000
LATT -1
SFAC C  
C      1  0.4779350000000  0.5291140000000  0.3915980000000 1.0
C      1  0.5416070000000  0.5275880000000  0.3926590000000 1.0
C      1  0.5918890000000  0.5234570000000  0.4323660000000 1.0
C      1  0.6134950000000  0.5210190000000  0.4929900000000 1.0
C      1  0.5990600000000  0.5292620000000  0.5559320000000 1.0
C      1  0.5494100000000  0.5336290000000  0.5974960000000 1.0
C      1  0.4877380000000  0.5298060000000  0.6163340000000 1.0
C      1  0.4243310000000  0.5246940000000  0.5982900000000 1.0
C      1  0.3862090000000  0.5170500000000  0.5448590000000 1.0
C      1  0.3909060000000  0.5176210000000  0.4776980000000 1.0
C      1  0.4211280000000  0.5245450000000  0.4192690000000 1.0
C      1  0.4912970000000  0.5680400000000  0.5337420000000 1.0
C      1  0.4647710000000  0.5567510000000  0.5296120000000 1.0
C      1  0.4502580000000  0.5526740000000  0.5026590000000 1.0
C      1  0.4603730000000  0.5477590000000  0.4766100000000 1.0
C      1  0.4796950000000  0.5655480000000  0.4638990000000 1.0
C      1  0.5043820000000  0.5540000000000  0.4528190000000 1.0
C      1  0.5294600000000  0.5670540000000  0.4606740000000 1.0
C      1  0.5453430000000  0.5524890000000  0.4807540000000 1.0
C      1  0.5459020000000  0.5648460000000  0.5076300000000 1.0
C      1  0.5383810000000  0.5484970000000  0.5307300000000 1.0
C      1  0.5119160000000  0.5493950000000  0.5427750000000 1.0
C      1  0.5446430000000  0.6072160000000  0.5345060000000 1.0
C      1  0.5191250000000  0.6079160000000  0.5476720000000 1.0
C      1  0.4945960000000  0.5970290000000  0.5365270000000 1.0
C      1  0.4734050000000  0.6150000000000  0.5276890000000 1.0
C      1  0.4526000000000  0.6080080000000  0.5087080000000 1.0
C      1  0.4559810000000  0.6074400000000  0.4799190000000 1.0
C      1  0.4779980000000  0.5945890000000  0.4661080000000 1.0
C      1  0.5024490000000  0.6089720000000  0.4598470000000 1.0
C      1  0.5287370000000  0.5968650000000  0.4634690000000 1.0
C      1  0.5459650000000  0.6077200000000  0.4842780000000 1.0
C      1  0.5494390000000  0.5937450000000  0.5094730000000 1.0
C      1  0.6063770000000  0.5030190000000  0.5143480000000 1.0
C      1  0.5809420000000  0.5147810000000  0.5717440000000 1.0
C      1  0.5300860000000  0.5127310000000  0.5979010000000 1.0
C      1  0.4675050000000  0.5092610000000  0.6125800000000 1.0
C      1  0.4177360000000  0.5041990000000  0.5790890000000 1.0
C      1  0.3943980000000  0.5002990000000  0.5220590000000 1.0
C      1  0.4074360000000  0.5028570000000  0.4597930000000 1.0
C      1  0.4406310000000  0.5095090000000  0.4040120000000 1.0
C      1  0.4978710000000  0.5079050000000  0.3934180000000 1.0
C      1  0.5578170000000  0.5076510000000  0.4051880000000 1.0
C      1  0.5938440000000  0.5034170000000  0.4527250000000 1.0
C      1  0.4575700000000  0.5645720000000  0.5883480000000 1.0
C      1  0.4086160000000  0.5610190000000  0.5652450000000 1.0
C      1  0.4091990000000  0.5495420000000  0.5135450000000 1.0
C      1  0.4152600000000  0.5597330000000  0.4600740000000 1.0
C      1  0.4577290000000  0.5623340000000  0.4266330000000 1.0
C      1  0.5088050000000  0.5649330000000  0.4118670000000 1.0
C      1  0.5599040000000  0.5640650000000  0.4255610000000 1.0
C      1  0.5935780000000  0.5621200000000  0.4660210000000 1.0
C      1  0.5960330000000  0.5642090000000  0.5180560000000 1.0
C      1  0.5620570000000  0.5676750000000  0.5596170000000 1.0
C      1  0.5121330000000  0.5663420000000  0.5830460000000 1.0
C      1  0.5413020000000  0.4310440000000  0.4176500000000 1.0
C      1  0.5771600000000  0.4345990000000  0.4541620000000 1.0
C      1  0.5904220000000  0.4355730000000  0.5037070000000 1.0
C      1  0.5709820000000  0.4350970000000  0.5511770000000 1.0
C      1  0.5293490000000  0.4357420000000  0.5811410000000 1.0
C      1  0.4780860000000  0.4340190000000  0.5819710000000 1.0
C      1  0.4316780000000  0.4280540000000  0.5609400000000 1.0
C      1  0.4068610000000  0.4317900000000  0.5161990000000 1.0
C      1  0.4240120000000  0.4329260000000  0.4677420000000 1.0
C      1  0.4393090000000  0.4283450000000  0.4188700000000 1.0
C      1  0.4902110000000  0.4308910000000  0.4130350000000 1.0
C      1  0.4727650000000  0.4313840000000  0.4682510000000 1.0
C      1  0.4984890000000  0.4435630000000  0.4595600000000 1.0
C      1  0.5228750000000  0.4332450000000  0.4719250000000 1.0
C      1  0.5447320000000  0.4496990000000  0.4816270000000 1.0
C      1  0.5511080000000  0.4482850000000  0.5112440000000 1.0
C      1  0.5340860000000  0.4316230000000  0.5277660000000 1.0
C      1  0.5112130000000  0.4441150000000  0.5417940000000 1.0
C      1  0.4847360000000  0.4307310000000  0.5378030000000 1.0
C      1  0.4605660000000  0.4462390000000  0.5349340000000 1.0
C      1  0.4463690000000  0.4545060000000  0.5059180000000 1.0
C      1  0.4488000000000  0.4482880000000  0.4755550000000 1.0
C      1  0.3961880000000  0.5455480000000  0.5414450000000 1.0
C      1  0.4009980000000  0.5446260000000  0.4834800000000 1.0
C      1  0.4314520000000  0.5484340000000  0.4350840000000 1.0
C      1  0.4813690000000  0.5518010000000  0.4098960000000 1.0
C      1  0.5366670000000  0.5519580000000  0.4097820000000 1.0
C      1  0.5817180000000  0.5495970000000  0.4412760000000 1.0
C      1  0.6004490000000  0.5485030000000  0.4924450000000 1.0
C      1  0.5862980000000  0.5536140000000  0.5443990000000 1.0
C      1  0.5417980000000  0.5564110000000  0.5810100000000 1.0
C      1  0.4859130000000  0.5533640000000  0.5965370000000 1.0
C      1  0.4298790000000  0.5504970000000  0.5849110000000 1.0
C      1  0.5126950000000  0.5167280000000  0.6199680000000 1.0
C      1  0.4409060000000  0.5162540000000  0.6197490000000 1.0
C      1  0.3907470000000  0.5045240000000  0.5699950000000 1.0
C      1  0.3784970000000  0.5029640000000  0.4986450000000 1.0
C      1  0.4022090000000  0.5081600000000  0.4324720000000 1.0
C      1  0.4516690000000  0.5227290000000  0.3807450000000 1.0
C      1  0.5203910000000  0.5159860000000  0.3778510000000 1.0
C      1  0.5853430000000  0.5139860000000  0.4065810000000 1.0
C      1  0.6168700000000  0.5070660000000  0.4686870000000 1.0
C      1  0.6151370000000  0.5121610000000  0.5398530000000 1.0
C      1  0.5762100000000  0.5248720000000  0.5977700000000 1.0
C      1  0.5185030000000  0.5053770000000  0.5709440000000 1.0
C      1  0.4718210000000  0.5024450000000  0.5840340000000 1.0
C      1  0.4388910000000  0.5023970000000  0.5579760000000 1.0
C      1  0.4239190000000  0.5029840000000  0.5162820000000 1.0
C      1  0.4365590000000  0.4989750000000  0.4670600000000 1.0
C      1  0.4629170000000  0.5001590000000  0.4211190000000 1.0
C      1  0.5048050000000  0.4987810000000  0.4219140000000 1.0
C      1  0.5458990000000  0.4973160000000  0.4302160000000 1.0
C      1  0.5679340000000  0.4961990000000  0.4664770000000 1.0
C      1  0.5787140000000  0.4906980000000  0.5101260000000 1.0
C      1  0.5573460000000  0.5077260000000  0.5553220000000 1.0
C      1  0.5589540000000  0.5114400000000  0.5058480000000 1.0
C      1  0.5515490000000  0.5234670000000  0.5308610000000 1.0
C      1  0.5019470000000  0.5262770000000  0.5578040000000 1.0
C      1  0.4746350000000  0.5242940000000  0.5657000000000 1.0
C      1  0.4515090000000  0.5320480000000  0.5475560000000 1.0
C      1  0.4333660000000  0.5311300000000  0.5187390000000 1.0
C      1  0.4558780000000  0.5225200000000  0.4629160000000 1.0
C      1  0.4731990000000  0.5189100000000  0.4408220000000 1.0
C      1  0.5046640000000  0.5243140000000  0.4442130000000 1.0
C      1  0.5340920000000  0.5150800000000  0.4501130000000 1.0
C      1  0.5497390000000  0.5217290000000  0.4775880000000 1.0
C      1  0.4844150000000  0.4020060000000  0.5318520000000 1.0
C      1  0.4608550000000  0.3898550000000  0.5201020000000 1.0
C      1  0.4542190000000  0.3907430000000  0.4919780000000 1.0
C      1  0.4711650000000  0.4022770000000  0.4713030000000 1.0
C      1  0.4882590000000  0.3850580000000  0.4552310000000 1.0
C      1  0.5172210000000  0.3845530000000  0.4566160000000 1.0
C      1  0.5326580000000  0.3671290000000  0.4738980000000 1.0
C      1  0.5567890000000  0.3749240000000  0.4879660000000 1.0
C      1  0.5573470000000  0.3888600000000  0.5133500000000 1.0
C      1  0.5346820000000  0.4025030000000  0.5252200000000 1.0
C      1  0.5099760000000  0.3885130000000  0.5305370000000 1.0
C      1  0.4432090000000  0.4819150000000  0.5213720000000 1.0
C      1  0.4501620000000  0.4729170000000  0.4587880000000 1.0
C      1  0.4671290000000  0.4735880000000  0.4335300000000 1.0
C      1  0.5003730000000  0.4655450000000  0.4352240000000 1.0
C      1  0.5361770000000  0.4692730000000  0.4344560000000 1.0
C      1  0.5533970000000  0.4697700000000  0.4610210000000 1.0
C      1  0.5641260000000  0.4695950000000  0.5259070000000 1.0
C      1  0.5491870000000  0.4797180000000  0.5514540000000 1.0
C      1  0.5150800000000  0.4717020000000  0.5599040000000 1.0
C      1  0.4813540000000  0.4764800000000  0.5716200000000 1.0
C      1  0.4557770000000  0.4743960000000  0.5522650000000 1.0
C      1  0.4658000000000  0.4166950000000  0.4193860000000 1.0
C      1  0.5162510000000  0.4185570000000  0.4102840000000 1.0
C      1  0.5608510000000  0.4195120000000  0.4356110000000 1.0
C      1  0.5903170000000  0.4234680000000  0.4774160000000 1.0
C      1  0.5827000000000  0.4220910000000  0.5281280000000 1.0
C      1  0.5523680000000  0.4226170000000  0.5694950000000 1.0
C      1  0.5042170000000  0.4227190000000  0.5871880000000 1.0
C      1  0.4542310000000  0.4185950000000  0.5764200000000 1.0
C      1  0.4241740000000  0.4180050000000  0.5348540000000 1.0
C      1  0.4045710000000  0.4254870000000  0.4880430000000 1.0
C      1  0.4196530000000  0.4256150000000  0.4399400000000 1.0
END
