TITL C-862503-991-1202 0.00164266384823747 125000 -413.332965256207 0 0 77 (C1) n - 1
REM
REM in /home/nfs/bkarasulu/CARBON/AIRSS/Generating-Clusters/TERSOFF/Higher-Symm/FIRE-HFTN
REM
REM
REM
REM
REM
REM ./C.cell (b20cbc046b6831c77cfcea5457e17084)
REM AIRSS Version 0.9.1 bugfix July 2018 build 013d7b7c2542+ Fri, 06 Jul 2018 19:26:36 +0100
REM compiler GCC version 9.2.1 20190827 (Red Hat 9.2.1-1)
REM options -cpp -mtune=generic -march=x86-64 -g -O0 -fpre-include=/usr/include/finclude/math-vector-fortran.h
REM seed -2097968304 -667342337 -1999123918 -1072661507 1392839644 -1488010719 -81576466 -14772924 -1743719837 213285535 -1786029789 251922537 2102366762 611814836 1939615278 -1106266529 -1179382040 -1705767103 -1459894493 826304102 373926123 371770400 -1890374987 336345617 -1857662967 589456375 1195621041 1482952630 1649180693 -796135730 889727563 604829591 1425951165
REM
CELL 1.54180   50.00000   50.00000   50.00000   90.00000   90.00000   90.00000
LATT -1
SFAC C  
C      1  0.4348030000000  0.5172950000000  0.5436930000000 1.0
C      1  0.5154710000000  0.5513990000000  0.4264550000000 1.0
C      1  0.5468170000000  0.4238610000000  0.5118590000000 1.0
C      1  0.4394970000000  0.4806020000000  0.4559780000000 1.0
C      1  0.5713290000000  0.5164100000000  0.4499240000000 1.0
C      1  0.5640650000000  0.4808000000000  0.5442700000000 1.0
C      1  0.5106380000000  0.4495510000000  0.5634380000000 1.0
C      1  0.4851330000000  0.5499690000000  0.5736890000000 1.0
C      1  0.4885860000000  0.4575990000000  0.4418470000000 1.0
C      1  0.5437160000000  0.5708940000000  0.4828770000000 1.0
C      1  0.4516000000000  0.4260500000000  0.4885490000000 1.0
C      1  0.4540150000000  0.5707690000000  0.5179470000000 1.0
C      1  0.5747310000000  0.5065060000000  0.5128900000000 1.0
C      1  0.5083330000000  0.5136540000000  0.5832960000000 1.0
C      1  0.5133220000000  0.5813100000000  0.5099040000000 1.0
C      1  0.5782170000000  0.4891780000000  0.4854070000000 1.0
C      1  0.4250220000000  0.5065900000000  0.4854860000000 1.0
C      1  0.4219380000000  0.4904730000000  0.5140880000000 1.0
C      1  0.5057500000000  0.4867100000000  0.4169470000000 1.0
C      1  0.4883100000000  0.5146640000000  0.4155600000000 1.0
C      1  0.4893830000000  0.4870800000000  0.5851000000000 1.0
C      1  0.5134680000000  0.4095830000000  0.4906960000000 1.0
C      1  0.4849500000000  0.5810010000000  0.4915360000000 1.0
C      1  0.4859470000000  0.4081140000000  0.5080410000000 1.0
C      1  0.4993040000000  0.5325420000000  0.4612270000000 1.0
C      1  0.5273230000000  0.4666000000000  0.5153370000000 1.0
C      1  0.4729560000000  0.4866230000000  0.5212670000000 1.0
C      1  0.4952010000000  0.4919280000000  0.5406330000000 1.0
C      1  0.4875370000000  0.5313490000000  0.5283460000000 1.0
C      1  0.5134220000000  0.4880190000000  0.4717840000000 1.0
C      1  0.5263940000000  0.5341760000000  0.4935900000000 1.0
C      1  0.4774960000000  0.4692550000000  0.4952960000000 1.0
C      1  0.4630640000000  0.5085410000000  0.5031510000000 1.0
C      1  0.4791660000000  0.5120980000000  0.4748780000000 1.0
C      1  0.5323840000000  0.5069040000000  0.4622980000000 1.0
C      1  0.5087770000000  0.5169770000000  0.5097880000000 1.0
C      1  0.5552940000000  0.5233060000000  0.4778080000000 1.0
C      1  0.5160840000000  0.4761340000000  0.5546440000000 1.0
C      1  0.4795860000000  0.5612690000000  0.5281900000000 1.0
C      1  0.5562730000000  0.4693600000000  0.5189790000000 1.0
C      1  0.4436420000000  0.5262020000000  0.5176130000000 1.0
C      1  0.4456670000000  0.4691690000000  0.4819130000000 1.0
C      1  0.5239180000000  0.5229720000000  0.4360330000000 1.0
C      1  0.4873380000000  0.4845870000000  0.4545240000000 1.0
C      1  0.4784440000000  0.5267000000000  0.5569520000000 1.0
C      1  0.4763130000000  0.4404990000000  0.4831910000000 1.0
C      1  0.5162750000000  0.5584890000000  0.4750140000000 1.0
C      1  0.5221270000000  0.4382630000000  0.5200570000000 1.0
C      1  0.4359450000000  0.5374720000000  0.4779280000000 1.0
C      1  0.5349430000000  0.4792030000000  0.4309370000000 1.0
C      1  0.4774220000000  0.4276910000000  0.5337090000000 1.0
C      1  0.4319460000000  0.4617370000000  0.5208760000000 1.0
C      1  0.5610170000000  0.5342520000000  0.5179010000000 1.0
C      1  0.5654550000000  0.4617640000000  0.4787430000000 1.0
C      1  0.5335410000000  0.5180250000000  0.5637310000000 1.0
C      1  0.4637360000000  0.4802070000000  0.5658190000000 1.0
C      1  0.4631180000000  0.5221450000000  0.4343450000000 1.0
C      1  0.4776560000000  0.5684900000000  0.4622000000000 1.0
C      1  0.5195590000000  0.4300500000000  0.4662800000000 1.0
C      1  0.5202320000000  0.5664130000000  0.5371580000000 1.0
C      1  0.4296870000000  0.4452900000000  0.4949350000000 1.0
C      1  0.4608560000000  0.4934430000000  0.4420530000000 1.0
C      1  0.4919670000000  0.4359330000000  0.4593840000000 1.0
C      1  0.4351680000000  0.5520570000000  0.5056120000000 1.0
C      1  0.5684970000000  0.4440150000000  0.5045030000000 1.0
C      1  0.5643210000000  0.5520670000000  0.4922850000000 1.0
C      1  0.4558090000000  0.5091370000000  0.5615950000000 1.0
C      1  0.5415480000000  0.4894760000000  0.5600300000000 1.0
C      1  0.5540820000000  0.5058770000000  0.4265340000000 1.0
C      1  0.4941700000000  0.5716400000000  0.5547980000000 1.0
C      1  0.5054050000000  0.4310870000000  0.5425230000000 1.0
C      1  0.5049280000000  0.5711550000000  0.4459060000000 1.0
C      1  0.4551200000000  0.4547710000000  0.5418040000000 1.0
C      1  0.4579930000000  0.5437890000000  0.4572750000000 1.0
C      1  0.5410300000000  0.4569960000000  0.4587070000000 1.0
C      1  0.5383120000000  0.5398280000000  0.5397170000000 1.0
C      1  0.5093920000000  0.4851460000000  0.5006670000000 1.0
END
