TITL C-862127-1500-989 3674953.09430098 125000 -1178.64315250248 0 0 198 (D2) n - 1
REM
REM in /home/nfs/bkarasulu/CARBON/AIRSS/Generating-Clusters/TERSOFF/Higher-Symm/FIRE-HFTN
REM
REM
REM
REM
REM
REM ./C.cell (b20cbc046b6831c77cfcea5457e17084)
REM AIRSS Version 0.9.1 bugfix July 2018 build 013d7b7c2542+ Fri, 06 Jul 2018 19:26:36 +0100
REM compiler GCC version 9.2.1 20190827 (Red Hat 9.2.1-1)
REM options -cpp -mtune=generic -march=x86-64 -g -O0 -fpre-include=/usr/include/finclude/math-vector-fortran.h
REM seed 1190090506 -1169254712 -419559808 -990915044 1010744470 -1381511747 -1411271429 -39311581 1016135058 -1033095145 601728421 357897846 696364692 -1810153856 -756039066 -893345796 -1380546486 -596718798 1827429244 -509423638 50514906 -1528604350 909303363 688971526 1437516634 -1559000272 1337450435 1190948774 -1413958560 55240132 210679124 1709528817 -1115269675
REM
CELL 1.54180   50.00000   50.00000   50.00000   90.00000   90.00000   90.00000
LATT -1
SFAC C  
C      1  0.4593840000000  0.4055490000000  0.5400990000000 1.0
C      1  0.5406150000000  0.5944500000000  0.5401000000000 1.0
C      1  0.5407090000000  0.4054950000000  0.4602160000000 1.0
C      1  0.4592920000000  0.5945050000000  0.4602160000000 1.0
C      1  0.4135100000000  0.5581910000000  0.4767220000000 1.0
C      1  0.5864910000000  0.4418080000000  0.4767230000000 1.0
C      1  0.5864430000000  0.5582410000000  0.5234650000000 1.0
C      1  0.4135570000000  0.4417580000000  0.5234620000000 1.0
C      1  0.5338660000000  0.5193380000000  0.5978540000000 1.0
C      1  0.4661320000000  0.4806620000000  0.5978530000000 1.0
C      1  0.4661850000000  0.5193450000000  0.4024660000000 1.0
C      1  0.5338160000000  0.4806550000000  0.4024660000000 1.0
C      1  0.4146150000000  0.4874060000000  0.4606370000000 1.0
C      1  0.5853860000000  0.5125940000000  0.4606400000000 1.0
C      1  0.5854050000000  0.4874500000000  0.5394840000000 1.0
C      1  0.4145940000000  0.5125490000000  0.5394810000000 1.0
C      1  0.4743810000000  0.5785520000000  0.5379530000000 1.0
C      1  0.5256180000000  0.4214470000000  0.5379520000000 1.0
C      1  0.5254640000000  0.5785910000000  0.4624850000000 1.0
C      1  0.4745380000000  0.4214090000000  0.4624860000000 1.0
C      1  0.4308580000000  0.5123400000000  0.4004880000000 1.0
C      1  0.5691440000000  0.4876610000000  0.4004910000000 1.0
C      1  0.5691990000000  0.5123110000000  0.5996630000000 1.0
C      1  0.4307990000000  0.4876890000000  0.5996600000000 1.0
C      1  0.5758180000000  0.5640340000000  0.4610350000000 1.0
C      1  0.4241840000000  0.4359670000000  0.4610390000000 1.0
C      1  0.4240080000000  0.5640290000000  0.5396420000000 1.0
C      1  0.5759910000000  0.4359710000000  0.5396400000000 1.0
C      1  0.6036830000000  0.4873550000000  0.4650230000000 1.0
C      1  0.3963170000000  0.5126440000000  0.4650200000000 1.0
C      1  0.3963090000000  0.4873000000000  0.5350950000000 1.0
C      1  0.6036910000000  0.5127000000000  0.5350990000000 1.0
C      1  0.5827120000000  0.5652470000000  0.5519410000000 1.0
C      1  0.4172870000000  0.4347520000000  0.5519390000000 1.0
C      1  0.4172590000000  0.5652450000000  0.4482600000000 1.0
C      1  0.5827420000000  0.4347550000000  0.4482610000000 1.0
C      1  0.4580650000000  0.4553190000000  0.5267720000000 1.0
C      1  0.5419350000000  0.5446800000000  0.5267730000000 1.0
C      1  0.5420290000000  0.4552890000000  0.4735020000000 1.0
C      1  0.4579720000000  0.5447100000000  0.4735010000000 1.0
C      1  0.4967420000000  0.5401670000000  0.5623190000000 1.0
C      1  0.5032570000000  0.4598330000000  0.5623180000000 1.0
C      1  0.5031920000000  0.5402390000000  0.4380330000000 1.0
C      1  0.4968090000000  0.4597610000000  0.4380330000000 1.0
C      1  0.5268260000000  0.4311730000000  0.4655620000000 1.0
C      1  0.4731750000000  0.5688270000000  0.4655620000000 1.0
C      1  0.4732870000000  0.4312160000000  0.5347220000000 1.0
C      1  0.5267120000000  0.5687830000000  0.5347220000000 1.0
C      1  0.5398490000000  0.5882270000000  0.4078430000000 1.0
C      1  0.4601490000000  0.4117740000000  0.4078450000000 1.0
C      1  0.4603270000000  0.5882360000000  0.5926820000000 1.0
C      1  0.5396740000000  0.4117650000000  0.5926810000000 1.0
C      1  0.4027430000000  0.4673770000000  0.5142010000000 1.0
C      1  0.5972570000000  0.5326220000000  0.5142040000000 1.0
C      1  0.5972690000000  0.4674560000000  0.4859390000000 1.0
C      1  0.4027320000000  0.5325430000000  0.4859360000000 1.0
C      1  0.5882090000000  0.4096210000000  0.5388170000000 1.0
C      1  0.4117890000000  0.5903780000000  0.5388220000000 1.0
C      1  0.4120960000000  0.4095800000000  0.4621860000000 1.0
C      1  0.5879080000000  0.5904200000000  0.4621780000000 1.0
C      1  0.4042830000000  0.4508820000000  0.5728180000000 1.0
C      1  0.5957160000000  0.5491170000000  0.5728210000000 1.0
C      1  0.5956970000000  0.4508760000000  0.4273410000000 1.0
C      1  0.4043040000000  0.5491240000000  0.4273390000000 1.0
C      1  0.4994110000000  0.4354540000000  0.5460300000000 1.0
C      1  0.5005880000000  0.5645450000000  0.5460310000000 1.0
C      1  0.5007080000000  0.4353780000000  0.4542820000000 1.0
C      1  0.4992940000000  0.5646220000000  0.4542820000000 1.0
C      1  0.4676000000000  0.3811130000000  0.4948170000000 1.0
C      1  0.5324010000000  0.6188860000000  0.4948170000000 1.0
C      1  0.5325060000000  0.3811310000000  0.5055810000000 1.0
C      1  0.4674940000000  0.6188680000000  0.5055810000000 1.0
C      1  0.5932480000000  0.5419810000000  0.4648240000000 1.0
C      1  0.4067520000000  0.4580200000000  0.4648190000000 1.0
C      1  0.4067560000000  0.5419490000000  0.5352460000000 1.0
C      1  0.5932440000000  0.4580500000000  0.5352490000000 1.0
C      1  0.5521340000000  0.5635480000000  0.3973170000000 1.0
C      1  0.4478630000000  0.4364530000000  0.3973210000000 1.0
C      1  0.4481060000000  0.5635950000000  0.6033550000000 1.0
C      1  0.5518960000000  0.4364050000000  0.6033530000000 1.0
C      1  0.4817170000000  0.3889530000000  0.5523070000000 1.0
C      1  0.5182820000000  0.6110470000000  0.5523080000000 1.0
C      1  0.5183230000000  0.3889200000000  0.4480460000000 1.0
C      1  0.4816770000000  0.6110810000000  0.4480460000000 1.0
C      1  0.4703740000000  0.4040520000000  0.5975790000000 1.0
C      1  0.5296250000000  0.5959490000000  0.5975800000000 1.0
C      1  0.5295570000000  0.4040230000000  0.4027440000000 1.0
C      1  0.4704430000000  0.5959790000000  0.4027440000000 1.0
C      1  0.5383930000000  0.4854810000000  0.6093460000000 1.0
C      1  0.4616050000000  0.5145180000000  0.6093470000000 1.0
C      1  0.4616960000000  0.4854220000000  0.3911590000000 1.0
C      1  0.5383060000000  0.5145780000000  0.3911570000000 1.0
C      1  0.5229730000000  0.5230900000000  0.5685900000000 1.0
C      1  0.4770260000000  0.4769100000000  0.5685890000000 1.0
C      1  0.4770240000000  0.5231320000000  0.4317290000000 1.0
C      1  0.5229770000000  0.4768690000000  0.4317300000000 1.0
C      1  0.4530090000000  0.5598990000000  0.5461410000000 1.0
C      1  0.5469900000000  0.4401020000000  0.5461390000000 1.0
C      1  0.5468480000000  0.5598660000000  0.4544850000000 1.0
C      1  0.4531540000000  0.4401350000000  0.4544880000000 1.0
C      1  0.4574030000000  0.4894390000000  0.4902550000000 1.0
C      1  0.5425970000000  0.5105610000000  0.4902570000000 1.0
C      1  0.5426030000000  0.4894250000000  0.5099940000000 1.0
C      1  0.4573970000000  0.5105750000000  0.5099920000000 1.0
C      1  0.4549000000000  0.4628860000000  0.4083060000000 1.0
C      1  0.5451000000000  0.5371150000000  0.4083030000000 1.0
C      1  0.5450360000000  0.4628430000000  0.5922940000000 1.0
C      1  0.4549630000000  0.5371580000000  0.5922960000000 1.0
C      1  0.4180200000000  0.4600980000000  0.5969530000000 1.0
C      1  0.5819780000000  0.5399020000000  0.5969560000000 1.0
C      1  0.5819080000000  0.4600630000000  0.4032210000000 1.0
C      1  0.4180930000000  0.5399380000000  0.4032190000000 1.0
C      1  0.5458800000000  0.6223470000000  0.4436280000000 1.0
C      1  0.4541210000000  0.3776530000000  0.4436280000000 1.0
C      1  0.4539890000000  0.6222860000000  0.5568330000000 1.0
C      1  0.5460100000000  0.3777140000000  0.5568330000000 1.0
C      1  0.3997350000000  0.6033050000000  0.5615340000000 1.0
C      1  0.6002640000000  0.3966930000000  0.5615270000000 1.0
C      1  0.6001390000000  0.6035240000000  0.4396650000000 1.0
C      1  0.3998620000000  0.3964740000000  0.4396760000000 1.0
C      1  0.4983100000000  0.3781010000000  0.4663880000000 1.0
C      1  0.5016900000000  0.6218980000000  0.4663880000000 1.0
C      1  0.5017950000000  0.3781640000000  0.5340140000000 1.0
C      1  0.4982040000000  0.6218350000000  0.5340150000000 1.0
C      1  0.5541760000000  0.5042100000000  0.4639380000000 1.0
C      1  0.4458250000000  0.4957900000000  0.4639360000000 1.0
C      1  0.4458190000000  0.5042200000000  0.5363010000000 1.0
C      1  0.5541800000000  0.4957800000000  0.5363030000000 1.0
C      1  0.5845600000000  0.3904140000000  0.5844560000000 1.0
C      1  0.4154400000000  0.6095870000000  0.5844600000000 1.0
C      1  0.4152980000000  0.3904170000000  0.4164930000000 1.0
C      1  0.5847000000000  0.6095840000000  0.4164860000000 1.0
C      1  0.4883810000000  0.4503200000000  0.4915350000000 1.0
C      1  0.5116190000000  0.5496800000000  0.4915350000000 1.0
C      1  0.5116440000000  0.4502990000000  0.5087080000000 1.0
C      1  0.4883560000000  0.5497010000000  0.5087080000000 1.0
C      1  0.5138330000000  0.4158140000000  0.5802090000000 1.0
C      1  0.4861670000000  0.5841870000000  0.5802100000000 1.0
C      1  0.4861010000000  0.4158020000000  0.4201450000000 1.0
C      1  0.5138980000000  0.5841990000000  0.4201450000000 1.0
C      1  0.4398250000000  0.5821870000000  0.4394780000000 1.0
C      1  0.5601760000000  0.4178130000000  0.4394790000000 1.0
C      1  0.5601390000000  0.5821520000000  0.5607790000000 1.0
C      1  0.4398600000000  0.4178470000000  0.5607780000000 1.0
C      1  0.5501630000000  0.3929210000000  0.4852720000000 1.0
C      1  0.4498370000000  0.6070780000000  0.4852720000000 1.0
C      1  0.4499420000000  0.3929300000000  0.5150820000000 1.0
C      1  0.5500580000000  0.6070690000000  0.5150820000000 1.0
C      1  0.4704420000000  0.3913710000000  0.4644370000000 1.0
C      1  0.5295590000000  0.6086290000000  0.4644370000000 1.0
C      1  0.5296810000000  0.3914210000000  0.5359990000000 1.0
C      1  0.4703180000000  0.6085790000000  0.5360000000000 1.0
C      1  0.4157270000000  0.4865100000000  0.4943370000000 1.0
C      1  0.5842730000000  0.5134880000000  0.4943400000000 1.0
C      1  0.5842730000000  0.4865980000000  0.5057860000000 1.0
C      1  0.4157270000000  0.5134010000000  0.5057830000000 1.0
C      1  0.5365940000000  0.5375480000000  0.4989360000000 1.0
C      1  0.4634070000000  0.4624520000000  0.4989340000000 1.0
C      1  0.4633750000000  0.5375680000000  0.5013230000000 1.0
C      1  0.5366250000000  0.4624320000000  0.5013240000000 1.0
C      1  0.4035140000000  0.5165590000000  0.5685420000000 1.0
C      1  0.5964850000000  0.4834420000000  0.5685460000000 1.0
C      1  0.5964720000000  0.5165400000000  0.4315620000000 1.0
C      1  0.4035280000000  0.4834610000000  0.4315580000000 1.0
C      1  0.5432120000000  0.5220420000000  0.5464060000000 1.0
C      1  0.4567870000000  0.4779580000000  0.5464050000000 1.0
C      1  0.4567560000000  0.5220660000000  0.4538640000000 1.0
C      1  0.5432450000000  0.4779340000000  0.4538650000000 1.0
C      1  0.5085960000000  0.6028930000000  0.5794880000000 1.0
C      1  0.4914040000000  0.3971070000000  0.5794880000000 1.0
C      1  0.4914500000000  0.6029280000000  0.4208650000000 1.0
C      1  0.5085490000000  0.3970740000000  0.4208650000000 1.0
C      1  0.5346920000000  0.5379210000000  0.4353920000000 1.0
C      1  0.4653090000000  0.4620810000000  0.4353950000000 1.0
C      1  0.4652350000000  0.5379460000000  0.5651590000000 1.0
C      1  0.5347640000000  0.4620540000000  0.5651580000000 1.0
C      1  0.5524700000000  0.5507130000000  0.6014100000000 1.0
C      1  0.4475280000000  0.4492870000000  0.6014090000000 1.0
C      1  0.4476110000000  0.5507370000000  0.3988690000000 1.0
C      1  0.5523910000000  0.4492640000000  0.3988700000000 1.0
C      1  0.5489600000000  0.4227220000000  0.4120810000000 1.0
C      1  0.4510410000000  0.5772790000000  0.4120810000000 1.0
C      1  0.4509890000000  0.4227480000000  0.5882060000000 1.0
C      1  0.5490100000000  0.5772520000000  0.5882070000000 1.0
C      1  0.4926670000000  0.5130290000000  0.3846520000000 1.0
C      1  0.5073340000000  0.4869710000000  0.3846530000000 1.0
C      1  0.5073240000000  0.5130340000000  0.6156080000000 1.0
C      1  0.4926740000000  0.4869650000000  0.6156070000000 1.0
C      1  0.4185490000000  0.4876580000000  0.4077340000000 1.0
C      1  0.5814520000000  0.5123440000000  0.4077370000000 1.0
C      1  0.5814720000000  0.4876220000000  0.5923780000000 1.0
C      1  0.4185260000000  0.5123780000000  0.5923750000000 1.0
C      1  0.5559340000000  0.3903620000000  0.5813350000000 1.0
C      1  0.4440660000000  0.6096380000000  0.5813370000000 1.0
C      1  0.4439650000000  0.3903480000000  0.4192760000000 1.0
C      1  0.5560340000000  0.6096530000000  0.4192730000000 1.0
C      1  0.4999490000000  0.6285450000000  0.5002190000000 1.0
C      1  0.5000520000000  0.3714540000000  0.5002190000000 1.0
END
