TITL C-862503-991-713 0.000568302164390815 125000 -544.805862043231 0 0 102 (D3h) n - 1
REM
REM in /home/nfs/bkarasulu/CARBON/AIRSS/Generating-Clusters/TERSOFF/Higher-Symm/FIRE-HFTN
REM
REM
REM
REM
REM
REM ./C.cell (b20cbc046b6831c77cfcea5457e17084)
REM AIRSS Version 0.9.1 bugfix July 2018 build 013d7b7c2542+ Fri, 06 Jul 2018 19:26:36 +0100
REM compiler GCC version 9.2.1 20190827 (Red Hat 9.2.1-1)
REM options -cpp -mtune=generic -march=x86-64 -g -O0 -fpre-include=/usr/include/finclude/math-vector-fortran.h
REM seed 1775758630 -1691756482 -1349308999 -838961957 -1759539972 1104101214 1878660541 -1668177366 -148029666 -1945126107 -984071487 1160410907 279891673 -2100418520 797338126 -1132850384 919229777 1339428500 -1110564074 -1361205536 -1046605853 1801420823 627105078 1703721110 -1384467058 747786546 -440655723 -1374762896 -835693922 1255228494 -431214025 -218333103 1212396296
REM
CELL 1.54180   50.00000   50.00000   50.00000   90.00000   90.00000   90.00000
LATT -1
SFAC C  
C      1  0.4435370000000  0.5202830000000  0.4857570000000 1.0
C      1  0.5412300000000  0.5202830000000  0.4583370000000 1.0
C      1  0.5161300000000  0.5202830000000  0.5566520000000 1.0
C      1  0.4435370000000  0.4783380000000  0.4857570000000 1.0
C      1  0.5412300000000  0.4783380000000  0.4583370000000 1.0
C      1  0.5161300000000  0.4783380000000  0.5566520000000 1.0
C      1  0.4435370000000  0.5202830000000  0.5147400000000 1.0
C      1  0.5412300000000  0.5202830000000  0.5421600000000 1.0
C      1  0.5161300000000  0.5202830000000  0.4438450000000 1.0
C      1  0.4435370000000  0.4783380000000  0.5147400000000 1.0
C      1  0.5412300000000  0.4783380000000  0.5421600000000 1.0
C      1  0.5161300000000  0.4783380000000  0.4438450000000 1.0
C      1  0.5476820000000  0.5496900000000  0.4682460000000 1.0
C      1  0.5043220000000  0.5496900000000  0.5572850000000 1.0
C      1  0.4488920000000  0.5496900000000  0.4752150000000 1.0
C      1  0.5476820000000  0.4489310000000  0.4682460000000 1.0
C      1  0.5043220000000  0.4489310000000  0.5572850000000 1.0
C      1  0.4488920000000  0.4489310000000  0.4752150000000 1.0
C      1  0.5476820000000  0.5496900000000  0.5322510000000 1.0
C      1  0.5043220000000  0.5496900000000  0.4432120000000 1.0
C      1  0.4488920000000  0.5496900000000  0.5252820000000 1.0
C      1  0.5476820000000  0.4489310000000  0.5322510000000 1.0
C      1  0.5043220000000  0.4489310000000  0.4432120000000 1.0
C      1  0.4488920000000  0.4489310000000  0.5252820000000 1.0
C      1  0.4343090000000  0.4734250000000  0.5676560000000 1.0
C      1  0.4749170000000  0.4734250000000  0.4093970000000 1.0
C      1  0.5916700000000  0.4734250000000  0.5236940000000 1.0
C      1  0.4343090000000  0.5251960000000  0.5676560000000 1.0
C      1  0.4749170000000  0.5251960000000  0.4093970000000 1.0
C      1  0.5916700000000  0.5251960000000  0.5236940000000 1.0
C      1  0.4343090000000  0.4734250000000  0.4328420000000 1.0
C      1  0.4749170000000  0.4734250000000  0.5911010000000 1.0
C      1  0.5916700000000  0.4734250000000  0.4768040000000 1.0
C      1  0.4343090000000  0.5251960000000  0.4328420000000 1.0
C      1  0.4749170000000  0.5251960000000  0.5911010000000 1.0
C      1  0.5916700000000  0.5251960000000  0.4768040000000 1.0
C      1  0.5164300000000  0.5491810000000  0.5871120000000 1.0
C      1  0.4170070000000  0.5491810000000  0.4707870000000 1.0
C      1  0.5674590000000  0.5491810000000  0.4428470000000 1.0
C      1  0.5164300000000  0.4494400000000  0.5871120000000 1.0
C      1  0.4170070000000  0.4494400000000  0.4707870000000 1.0
C      1  0.5674590000000  0.4494400000000  0.4428470000000 1.0
C      1  0.5164300000000  0.5491810000000  0.4133850000000 1.0
C      1  0.4170070000000  0.5491810000000  0.5297100000000 1.0
C      1  0.5674590000000  0.5491810000000  0.5576500000000 1.0
C      1  0.5164300000000  0.4494400000000  0.4133850000000 1.0
C      1  0.4170070000000  0.4494400000000  0.5297100000000 1.0
C      1  0.5674590000000  0.4494400000000  0.5576500000000 1.0
C      1  0.4764220000000  0.4524140000000  0.4308270000000 1.0
C      1  0.5723580000000  0.4524140000000  0.5142810000000 1.0
C      1  0.4521160000000  0.4524140000000  0.5556370000000 1.0
C      1  0.4764220000000  0.5462060000000  0.4308270000000 1.0
C      1  0.5723580000000  0.5462060000000  0.5142810000000 1.0
C      1  0.4521160000000  0.5462060000000  0.5556370000000 1.0
C      1  0.4764220000000  0.4524140000000  0.5696700000000 1.0
C      1  0.5723580000000  0.4524140000000  0.4862160000000 1.0
C      1  0.4521160000000  0.4524140000000  0.4448600000000 1.0
C      1  0.4764220000000  0.5462060000000  0.5696700000000 1.0
C      1  0.5723580000000  0.5462060000000  0.4862160000000 1.0
C      1  0.4521160000000  0.5462060000000  0.4448600000000 1.0
C      1  0.5831050000000  0.4752900000000  0.5526240000000 1.0
C      1  0.4135370000000  0.4752900000000  0.5457730000000 1.0
C      1  0.5042540000000  0.4752900000000  0.4023490000000 1.0
C      1  0.5831050000000  0.5233310000000  0.5526240000000 1.0
C      1  0.4135370000000  0.5233310000000  0.5457730000000 1.0
C      1  0.5042540000000  0.5233310000000  0.4023490000000 1.0
C      1  0.5831050000000  0.4752900000000  0.4478730000000 1.0
C      1  0.4135370000000  0.4752900000000  0.4547240000000 1.0
C      1  0.5042540000000  0.4752900000000  0.5981480000000 1.0
C      1  0.5831050000000  0.5233310000000  0.4478730000000 1.0
C      1  0.4135370000000  0.5233310000000  0.4547240000000 1.0
C      1  0.5042540000000  0.5233310000000  0.5981480000000 1.0
C      1  0.4722890000000  0.5915480000000  0.5002490000000 1.0
C      1  0.5143040000000  0.5915480000000  0.4759910000000 1.0
C      1  0.5143040000000  0.5915480000000  0.5245060000000 1.0
C      1  0.4722890000000  0.4070720000000  0.5002490000000 1.0
C      1  0.5143040000000  0.4070720000000  0.4759910000000 1.0
C      1  0.5143040000000  0.4070720000000  0.5245060000000 1.0
C      1  0.5169030000000  0.4366360000000  0.4714880000000 1.0
C      1  0.4670890000000  0.5619840000000  0.5002490000000 1.0
C      1  0.5169030000000  0.5619840000000  0.4714880000000 1.0
C      1  0.4670890000000  0.4366360000000  0.5002490000000 1.0
C      1  0.5169030000000  0.4366360000000  0.5290090000000 1.0
C      1  0.5169030000000  0.5619840000000  0.5290090000000 1.0
C      1  0.5177480000000  0.4993100000000  0.4163570000000 1.0
C      1  0.5177480000000  0.4993100000000  0.5841400000000 1.0
C      1  0.4189220000000  0.4993100000000  0.5270830000000 1.0
C      1  0.4189220000000  0.4993100000000  0.4734150000000 1.0
C      1  0.5642260000000  0.4993100000000  0.5573060000000 1.0
C      1  0.5642260000000  0.4993100000000  0.4431910000000 1.0
C      1  0.5973750000000  0.4993100000000  0.5002490000000 1.0
C      1  0.4517600000000  0.4993100000000  0.4161780000000 1.0
C      1  0.4517600000000  0.4993100000000  0.5843190000000 1.0
C      1  0.5487430000000  0.4993100000000  0.4163410000000 1.0
C      1  0.5487430000000  0.4993100000000  0.5841560000000 1.0
C      1  0.4034110000000  0.4993100000000  0.5002490000000 1.0
C      1  0.5002990000000  0.3977610000000  0.5002490000000 1.0
C      1  0.5002990000000  0.6008600000000  0.5002490000000 1.0
C      1  0.5002990000000  0.5498660000000  0.5002490000000 1.0
C      1  0.5002990000000  0.4487540000000  0.5002490000000 1.0
C      1  0.5002990000000  0.4783120000000  0.5002490000000 1.0
C      1  0.5002990000000  0.5203090000000  0.5002490000000 1.0
END
