TITL C-862503-991-126 -3253.65906464935 125000 -882.346198884233 0 0 154 (C1) n - 1
REM
REM in /home/nfs/bkarasulu/CARBON/AIRSS/Generating-Clusters/TERSOFF/Higher-Symm/FIRE-HFTN
REM
REM
REM
REM
REM
REM ./C.cell (b20cbc046b6831c77cfcea5457e17084)
REM AIRSS Version 0.9.1 bugfix July 2018 build 013d7b7c2542+ Fri, 06 Jul 2018 19:26:36 +0100
REM compiler GCC version 9.2.1 20190827 (Red Hat 9.2.1-1)
REM options -cpp -mtune=generic -march=x86-64 -g -O0 -fpre-include=/usr/include/finclude/math-vector-fortran.h
REM seed 282276506 515572386 -1773030414 352174524 775948165 -354174516 42880075 231831791 16018876 563929528 749469134 -912386587 1125055054 -1290733545 344775718 2147135073 876086026 502357750 1542760554 184309781 -900520637 1691985658 -729626421 1359066658 892613070 2053339141 -900532892 1243752835 784380000 -997132451 -2075935718 -1828388973 1018218103
REM
CELL 1.54180   50.00000   50.00000   50.00000   90.00000   90.00000   90.00000
LATT -1
SFAC C  
C      1  0.5732850000000  0.5726160000000  0.4779910000000 1.0
C      1  0.5750740000000  0.4272620000000  0.4810810000000 1.0
C      1  0.5584300000000  0.5442200000000  0.4897040000000 1.0
C      1  0.5601730000000  0.4535720000000  0.4925270000000 1.0
C      1  0.5511540000000  0.5543720000000  0.4343590000000 1.0
C      1  0.5511970000000  0.4448040000000  0.4370980000000 1.0
C      1  0.5297030000000  0.4660880000000  0.5337120000000 1.0
C      1  0.5289850000000  0.5256520000000  0.5307320000000 1.0
C      1  0.5860560000000  0.5483810000000  0.4584190000000 1.0
C      1  0.5876910000000  0.4518300000000  0.4609520000000 1.0
C      1  0.4791460000000  0.5335560000000  0.4744040000000 1.0
C      1  0.4825460000000  0.4615270000000  0.4751590000000 1.0
C      1  0.4649400000000  0.5641450000000  0.4493960000000 1.0
C      1  0.4675560000000  0.4318890000000  0.4494730000000 1.0
C      1  0.4577760000000  0.5467540000000  0.5360620000000 1.0
C      1  0.4560270000000  0.4490020000000  0.5382480000000 1.0
C      1  0.4756550000000  0.4663550000000  0.4118160000000 1.0
C      1  0.4739130000000  0.5300890000000  0.4115430000000 1.0
C      1  0.4098640000000  0.4531410000000  0.4762550000000 1.0
C      1  0.4070750000000  0.5406360000000  0.4767910000000 1.0
C      1  0.4807790000000  0.5360400000000  0.5488590000000 1.0
C      1  0.4793950000000  0.4582860000000  0.5520540000000 1.0
C      1  0.4573390000000  0.4536940000000  0.4314010000000 1.0
C      1  0.4551140000000  0.5423820000000  0.4312730000000 1.0
C      1  0.5389750000000  0.5271730000000  0.4449860000000 1.0
C      1  0.5397300000000  0.4717810000000  0.4482250000000 1.0
C      1  0.5147280000000  0.5318760000000  0.3829960000000 1.0
C      1  0.5166090000000  0.4661960000000  0.3836050000000 1.0
C      1  0.4540500000000  0.4276520000000  0.4760950000000 1.0
C      1  0.4518220000000  0.5685080000000  0.4763340000000 1.0
C      1  0.3925230000000  0.4744870000000  0.5291790000000 1.0
C      1  0.3981990000000  0.5257070000000  0.5257600000000 1.0
C      1  0.4763600000000  0.5365940000000  0.5780100000000 1.0
C      1  0.4737820000000  0.4608120000000  0.5809360000000 1.0
C      1  0.5113720000000  0.5601730000000  0.4925240000000 1.0
C      1  0.5142190000000  0.4340130000000  0.4939770000000 1.0
C      1  0.4420400000000  0.4650300000000  0.5172230000000 1.0
C      1  0.4412910000000  0.5313140000000  0.5169190000000 1.0
C      1  0.5629110000000  0.5266760000000  0.4647790000000 1.0
C      1  0.5639080000000  0.4739940000000  0.4674110000000 1.0
C      1  0.5858190000000  0.4248120000000  0.5546880000000 1.0
C      1  0.5835130000000  0.5484920000000  0.5231190000000 1.0
C      1  0.5030700000000  0.4196060000000  0.5568060000000 1.0
C      1  0.5052630000000  0.5767790000000  0.5552260000000 1.0
C      1  0.4397310000000  0.4736870000000  0.4437340000000 1.0
C      1  0.4373970000000  0.5225140000000  0.4432220000000 1.0
C      1  0.5333420000000  0.5437420000000  0.5035470000000 1.0
C      1  0.5351940000000  0.4507530000000  0.5064190000000 1.0
C      1  0.5164610000000  0.5878580000000  0.5283680000000 1.0
C      1  0.5155620000000  0.4080670000000  0.5299160000000 1.0
C      1  0.5077020000000  0.4297080000000  0.4189870000000 1.0
C      1  0.5041810000000  0.5679860000000  0.4181850000000 1.0
C      1  0.4457480000000  0.4725580000000  0.5894360000000 1.0
C      1  0.4480200000000  0.5275450000000  0.5877660000000 1.0
C      1  0.4872760000000  0.4417500000000  0.4974390000000 1.0
C      1  0.4842820000000  0.5527270000000  0.4977040000000 1.0
C      1  0.5045460000000  0.4585660000000  0.6196000000000 1.0
C      1  0.5090110000000  0.5442610000000  0.6175360000000 1.0
C      1  0.4508470000000  0.4059300000000  0.5196840000000 1.0
C      1  0.4510370000000  0.5903410000000  0.5205380000000 1.0
C      1  0.4972570000000  0.5972460000000  0.5063100000000 1.0
C      1  0.4972410000000  0.3981900000000  0.5078260000000 1.0
C      1  0.4959960000000  0.4237350000000  0.4454220000000 1.0
C      1  0.4928830000000  0.5726720000000  0.4449590000000 1.0
C      1  0.5201440000000  0.4424440000000  0.5728040000000 1.0
C      1  0.5227540000000  0.5544990000000  0.5688730000000 1.0
C      1  0.5137770000000  0.4651260000000  0.5927620000000 1.0
C      1  0.5161620000000  0.5349300000000  0.5909550000000 1.0
C      1  0.5065220000000  0.5316150000000  0.4504610000000 1.0
C      1  0.5070730000000  0.4713770000000  0.4563750000000 1.0
C      1  0.5144340000000  0.4170270000000  0.4681320000000 1.0
C      1  0.5114180000000  0.5780760000000  0.4674000000000 1.0
C      1  0.5599410000000  0.5610730000000  0.5361870000000 1.0
C      1  0.5586600000000  0.4286510000000  0.5453690000000 1.0
C      1  0.5414670000000  0.4498560000000  0.5549070000000 1.0
C      1  0.5414010000000  0.5436580000000  0.5498960000000 1.0
C      1  0.4082480000000  0.5236890000000  0.4528730000000 1.0
C      1  0.4103160000000  0.4712340000000  0.4531780000000 1.0
C      1  0.5596010000000  0.4213680000000  0.4542150000000 1.0
C      1  0.5571450000000  0.5781060000000  0.4518950000000 1.0
C      1  0.4372480000000  0.4521740000000  0.4880970000000 1.0
C      1  0.4341470000000  0.5443700000000  0.4887050000000 1.0
C      1  0.5466030000000  0.5835300000000  0.5226800000000 1.0
C      1  0.5460540000000  0.4115640000000  0.5255300000000 1.0
C      1  0.4692060000000  0.5828450000000  0.4988370000000 1.0
C      1  0.4701750000000  0.4127940000000  0.4987220000000 1.0
C      1  0.5001210000000  0.4720740000000  0.5363090000000 1.0
C      1  0.5000380000000  0.5200590000000  0.5336700000000 1.0
C      1  0.4964140000000  0.5453340000000  0.4017610000000 1.0
C      1  0.4989610000000  0.4520830000000  0.4025210000000 1.0
C      1  0.3997980000000  0.4742760000000  0.5581920000000 1.0
C      1  0.4030690000000  0.5279490000000  0.5553240000000 1.0
C      1  0.4224670000000  0.4588160000000  0.5724860000000 1.0
C      1  0.4262920000000  0.5422270000000  0.5697670000000 1.0
C      1  0.5382310000000  0.4036580000000  0.4604270000000 1.0
C      1  0.5343450000000  0.5929820000000  0.4601000000000 1.0
C      1  0.5597780000000  0.5923250000000  0.4981580000000 1.0
C      1  0.5606180000000  0.4053010000000  0.5001320000000 1.0
C      1  0.4765780000000  0.5815680000000  0.5621030000000 1.0
C      1  0.4744190000000  0.4136940000000  0.5625950000000 1.0
C      1  0.4546850000000  0.4729880000000  0.4718300000000 1.0
C      1  0.4495490000000  0.5241350000000  0.4717870000000 1.0
C      1  0.4536310000000  0.5745620000000  0.5439590000000 1.0
C      1  0.4519980000000  0.4207060000000  0.5438530000000 1.0
C      1  0.5503650000000  0.4918860000000  0.5066020000000 1.0
C      1  0.4581280000000  0.4990620000000  0.5736950000000 1.0
C      1  0.6024460000000  0.4909830000000  0.5627130000000 1.0
C      1  0.5518530000000  0.4997350000000  0.3838660000000 1.0
C      1  0.4068000000000  0.5026310000000  0.5991710000000 1.0
C      1  0.4335520000000  0.4990810000000  0.5553360000000 1.0
C      1  0.6249150000000  0.4945990000000  0.5440370000000 1.0
C      1  0.6045990000000  0.4779320000000  0.5884750000000 1.0
C      1  0.4882000000000  0.4977870000000  0.5672030000000 1.0
C      1  0.5896590000000  0.4854710000000  0.6121240000000 1.0
C      1  0.4939820000000  0.5074250000000  0.6309990000000 1.0
C      1  0.5773780000000  0.5040390000000  0.5524560000000 1.0
C      1  0.4932720000000  0.4951900000000  0.5211040000000 1.0
C      1  0.5634620000000  0.4988820000000  0.4116290000000 1.0
C      1  0.6182980000000  0.5095760000000  0.5193170000000 1.0
C      1  0.4482500000000  0.4974710000000  0.3756230000000 1.0
C      1  0.3945260000000  0.4992920000000  0.5106680000000 1.0
C      1  0.4972140000000  0.4986690000000  0.4444560000000 1.0
C      1  0.4003460000000  0.4967010000000  0.3989540000000 1.0
C      1  0.5021280000000  0.4936170000000  0.4937960000000 1.0
C      1  0.4162940000000  0.4924620000000  0.4892770000000 1.0
C      1  0.5925770000000  0.5018790000000  0.4225520000000 1.0
C      1  0.4445340000000  0.4981510000000  0.4845590000000 1.0
C      1  0.5500680000000  0.5086400000000  0.5714040000000 1.0
C      1  0.5176520000000  0.4991490000000  0.3801340000000 1.0
C      1  0.5405440000000  0.4987420000000  0.4303260000000 1.0
C      1  0.5173970000000  0.4999630000000  0.5841130000000 1.0
C      1  0.5297600000000  0.4879030000000  0.4876110000000 1.0
C      1  0.4407220000000  0.4980190000000  0.4278240000000 1.0
C      1  0.5751150000000  0.5021960000000  0.4999080000000 1.0
C      1  0.5884710000000  0.5187490000000  0.5214940000000 1.0
C      1  0.5769000000000  0.5012250000000  0.4704360000000 1.0
C      1  0.4810620000000  0.4981290000000  0.3761650000000 1.0
C      1  0.3759190000000  0.4988410000000  0.4798640000000 1.0
C      1  0.5420250000000  0.4918470000000  0.6301960000000 1.0
C      1  0.6338700000000  0.5067090000000  0.4932600000000 1.0
C      1  0.5632060000000  0.4757170000000  0.6187710000000 1.0
C      1  0.3822410000000  0.4967470000000  0.4229020000000 1.0
C      1  0.4039780000000  0.5015440000000  0.5700500000000 1.0
C      1  0.5177890000000  0.4997560000000  0.6161850000000 1.0
C      1  0.3921720000000  0.4970320000000  0.4521510000000 1.0
C      1  0.4859410000000  0.5033540000000  0.4734880000000 1.0
C      1  0.4361940000000  0.4986040000000  0.5256950000000 1.0
C      1  0.5412690000000  0.4958370000000  0.5326470000000 1.0
C      1  0.6255510000000  0.5110910000000  0.4643750000000 1.0
C      1  0.5999150000000  0.5024710000000  0.4527000000000 1.0
C      1  0.4301760000000  0.4973010000000  0.4003480000000 1.0
C      1  0.4775460000000  0.4982700000000  0.4076380000000 1.0
C      1  0.5117090000000  0.4982340000000  0.4142290000000 1.0
C      1  0.4351440000000  0.5011650000000  0.6085860000000 1.0
END
