TITL C-862127-1500-535 0.730568378052157 125000 -1065.587657188 0 0 185 (C3) n - 1
REM
REM in /home/nfs/bkarasulu/CARBON/AIRSS/Generating-Clusters/TERSOFF/Higher-Symm/FIRE-HFTN
REM
REM
REM
REM
REM
REM ./C.cell (b20cbc046b6831c77cfcea5457e17084)
REM AIRSS Version 0.9.1 bugfix July 2018 build 013d7b7c2542+ Fri, 06 Jul 2018 19:26:36 +0100
REM compiler GCC version 9.2.1 20190827 (Red Hat 9.2.1-1)
REM options -cpp -mtune=generic -march=x86-64 -g -O0 -fpre-include=/usr/include/finclude/math-vector-fortran.h
REM seed 833332073 449921310 -573263124 1798397971 1355592364 -436019764 -1348550421 -780426164 -1209881145 1738577038 -1686312758 -1588991180 89791210 1687102526 1216599437 -2116328822 385114340 1265746626 -2137976665 203363843 -885794877 1614322403 1177703403 -43662466 1823016657 526183748 -61513925 -435066593 891736076 -1244113731 648420331 1103903406 1615901466
REM
CELL 1.54180   50.00000   50.00000   50.00000   90.00000   90.00000   90.00000
LATT -1
SFAC C  
C      1  0.4907660000000  0.5250690000000  0.4695270000000 1.0
C      1  0.4907670000000  0.5132730000000  0.5366500000000 1.0
C      1  0.4907660000000  0.4610400000000  0.4928720000000 1.0
C      1  0.4357840000000  0.6008980000000  0.4760710000000 1.0
C      1  0.4357840000000  0.4696910000000  0.5990480000000 1.0
C      1  0.4357840000000  0.4287930000000  0.4239310000000 1.0
C      1  0.5335630000000  0.4478510000000  0.6109530000000 1.0
C      1  0.5335630000000  0.4294020000000  0.3990640000000 1.0
C      1  0.5335640000000  0.6221280000000  0.4890320000000 1.0
C      1  0.4325610000000  0.5189890000000  0.5249810000000 1.0
C      1  0.4325610000000  0.4682880000000  0.5036580000000 1.0
C      1  0.4325610000000  0.5121050000000  0.4704100000000 1.0
C      1  0.5694160000000  0.4490490000000  0.5151120000000 1.0
C      1  0.5694160000000  0.5118030000000  0.4480220000000 1.0
C      1  0.5694170000000  0.5385280000000  0.5359130000000 1.0
C      1  0.4949930000000  0.6043230000000  0.5694450000000 1.0
C      1  0.4949920000000  0.3871140000000  0.5553270000000 1.0
C      1  0.4949920000000  0.5079450000000  0.3742770000000 1.0
C      1  0.5528130000000  0.5302130000000  0.4976170000000 1.0
C      1  0.5528130000000  0.4863730000000  0.5270600000000 1.0
C      1  0.5528130000000  0.4827950000000  0.4743720000000 1.0
C      1  0.5187520000000  0.5073980000000  0.6098910000000 1.0
C      1  0.5187510000000  0.4005480000000  0.4511650000000 1.0
C      1  0.5187510000000  0.5914340000000  0.4379930000000 1.0
C      1  0.5196500000000  0.5153430000000  0.5516920000000 1.0
C      1  0.5196500000000  0.4469770000000  0.4871450000000 1.0
C      1  0.5196500000000  0.5370600000000  0.4602120000000 1.0
C      1  0.4687520000000  0.5975260000000  0.5549140000000 1.0
C      1  0.4687510000000  0.4030960000000  0.5567060000000 1.0
C      1  0.4687510000000  0.4987590000000  0.3874290000000 1.0
C      1  0.4818800000000  0.4030980000000  0.5168120000000 1.0
C      1  0.4818810000000  0.5333080000000  0.4073780000000 1.0
C      1  0.4818810000000  0.5629760000000  0.5748590000000 1.0
C      1  0.5056050000000  0.5771170000000  0.4955350000000 1.0
C      1  0.5056040000000  0.4647240000000  0.5687210000000 1.0
C      1  0.5056040000000  0.4575400000000  0.4347930000000 1.0
C      1  0.4951290000000  0.4903910000000  0.4304800000000 1.0
C      1  0.4951300000000  0.5644270000000  0.5261420000000 1.0
C      1  0.4951300000000  0.4445630000000  0.5424270000000 1.0
C      1  0.5636650000000  0.5265420000000  0.4023380000000 1.0
C      1  0.5636660000000  0.5707230000000  0.5715200000000 1.0
C      1  0.5636650000000  0.4021160000000  0.5251900000000 1.0
C      1  0.6159020000000  0.4658460000000  0.5279600000000 1.0
C      1  0.6159010000000  0.4922780000000  0.4561450000000 1.0
C      1  0.6159020000000  0.5412560000000  0.5149430000000 1.0
C      1  0.4290850000000  0.4492600000000  0.4024780000000 1.0
C      1  0.4290860000000  0.6092430000000  0.5045220000000 1.0
C      1  0.4290860000000  0.4408790000000  0.5920500000000 1.0
C      1  0.4286770000000  0.5864650000000  0.5244160000000 1.0
C      1  0.4286770000000  0.4350400000000  0.5623760000000 1.0
C      1  0.4286760000000  0.4778770000000  0.4122580000000 1.0
C      1  0.4913530000000  0.3985250000000  0.4676220000000 1.0
C      1  0.4913530000000  0.5781930000000  0.4280120000000 1.0
C      1  0.4913540000000  0.5226630000000  0.6034150000000 1.0
C      1  0.4722440000000  0.6112830000000  0.5266900000000 1.0
C      1  0.4722430000000  0.4206610000000  0.5827320000000 1.0
C      1  0.4722430000000  0.4674380000000  0.3896280000000 1.0
C      1  0.4938970000000  0.4491480000000  0.6246560000000 1.0
C      1  0.4938960000000  0.4168870000000  0.3933360000000 1.0
C      1  0.4938980000000  0.6333470000000  0.4810570000000 1.0
C      1  0.4484490000000  0.5592300000000  0.4549130000000 1.0
C      1  0.4484490000000  0.5088480000000  0.5735420000000 1.0
C      1  0.4484480000000  0.4313030000000  0.4705950000000 1.0
C      1  0.4870170000000  0.4306050000000  0.4188990000000 1.0
C      1  0.4870180000000  0.6043490000000  0.4801560000000 1.0
C      1  0.4870180000000  0.4644270000000  0.5999940000000 1.0
C      1  0.5910680000000  0.4622550000000  0.5539070000000 1.0
C      1  0.5910680000000  0.4716030000000  0.4400620000000 1.0
C      1  0.5910690000000  0.5655220000000  0.5050790000000 1.0
C      1  0.6144940000000  0.4546410000000  0.4997350000000 1.0
C      1  0.6144950000000  0.5223240000000  0.4605530000000 1.0
C      1  0.6144950000000  0.5224150000000  0.5387590000000 1.0
C      1  0.4738970000000  0.5361070000000  0.4927790000000 1.0
C      1  0.4738970000000  0.4876160000000  0.5345830000000 1.0
C      1  0.4738970000000  0.4756580000000  0.4716870000000 1.0
C      1  0.5771290000000  0.5439260000000  0.4846560000000 1.0
C      1  0.5771290000000  0.4907400000000  0.5454160000000 1.0
C      1  0.5771280000000  0.4647140000000  0.4689760000000 1.0
C      1  0.4072660000000  0.4604480000000  0.4523120000000 1.0
C      1  0.4072670000000  0.5604920000000  0.4892940000000 1.0
C      1  0.4072670000000  0.4784420000000  0.5574430000000 1.0
C      1  0.4852840000000  0.4988150000000  0.4578470000000 1.0
C      1  0.4852840000000  0.5365140000000  0.5197540000000 1.0
C      1  0.4852840000000  0.4640520000000  0.5214480000000 1.0
C      1  0.4657910000000  0.5093710000000  0.5988830000000 1.0
C      1  0.4657900000000  0.4090960000000  0.4583770000000 1.0
C      1  0.4657910000000  0.5809150000000  0.4417890000000 1.0
C      1  0.4939820000000  0.4141360000000  0.6014590000000 1.0
C      1  0.4939810000000  0.4544820000000  0.3746130000000 1.0
C      1  0.4939820000000  0.6307630000000  0.5229770000000 1.0
C      1  0.4543120000000  0.3967570000000  0.5264670000000 1.0
C      1  0.4543120000000  0.5281160000000  0.3970590000000 1.0
C      1  0.4543130000000  0.5745080000000  0.5755230000000 1.0
C      1  0.4573330000000  0.5651390000000  0.4988790000000 1.0
C      1  0.4573330000000  0.4678180000000  0.5566750000000 1.0
C      1  0.4573320000000  0.4664250000000  0.4434950000000 1.0
C      1  0.4599090000000  0.4940040000000  0.4207120000000 1.0
C      1  0.4599100000000  0.5710790000000  0.5341540000000 1.0
C      1  0.4599090000000  0.4342980000000  0.5441830000000 1.0
C      1  0.4358450000000  0.4161530000000  0.5146070000000 1.0
C      1  0.4358450000000  0.5286900000000  0.4197860000000 1.0
C      1  0.4358450000000  0.5545390000000  0.5646560000000 1.0
C      1  0.4628250000000  0.6027700000000  0.4608540000000 1.0
C      1  0.4628250000000  0.4819330000000  0.6082770000000 1.0
C      1  0.4628240000000  0.4146790000000  0.4299180000000 1.0
C      1  0.5229530000000  0.5118160000000  0.4345490000000 1.0
C      1  0.5229540000000  0.5501900000000  0.5426610000000 1.0
C      1  0.5229530000000  0.4373750000000  0.5218380000000 1.0
C      1  0.5825910000000  0.5215180000000  0.4237970000000 1.0
C      1  0.5825910000000  0.5546500000000  0.5564400000000 1.0
C      1  0.5825910000000  0.4232120000000  0.5188110000000 1.0
C      1  0.5216990000000  0.4535170000000  0.3840860000000 1.0
C      1  0.5217000000000  0.6230420000000  0.5174050000000 1.0
C      1  0.5216990000000  0.4228220000000  0.5975580000000 1.0
C      1  0.5460360000000  0.5496440000000  0.5214380000000 1.0
C      1  0.5460350000000  0.4560280000000  0.5319770000000 1.0
C      1  0.5460350000000  0.4937090000000  0.4456340000000 1.0
C      1  0.5265890000000  0.6008930000000  0.4672630000000 1.0
C      1  0.5265890000000  0.4773210000000  0.6034470000000 1.0
C      1  0.5265880000000  0.4211680000000  0.4283390000000 1.0
C      1  0.3916530000000  0.4607740000000  0.4767830000000 1.0
C      1  0.3916530000000  0.5391370000000  0.4773410000000 1.0
C      1  0.3916530000000  0.4994720000000  0.5449260000000 1.0
C      1  0.6037140000000  0.4953470000000  0.5313890000000 1.0
C      1  0.6037140000000  0.4745580000000  0.4799780000000 1.0
C      1  0.6037140000000  0.5294750000000  0.4876800000000 1.0
C      1  0.4959100000000  0.3903150000000  0.4955470000000 1.0
C      1  0.4959100000000  0.5581150000000  0.4069400000000 1.0
C      1  0.4959110000000  0.5509510000000  0.5965620000000 1.0
C      1  0.4335540000000  0.5698460000000  0.4786980000000 1.0
C      1  0.4335540000000  0.4829420000000  0.5708430000000 1.0
C      1  0.4335530000000  0.4465940000000  0.4495090000000 1.0
C      1  0.4034380000000  0.5159120000000  0.4648150000000 1.0
C      1  0.4034390000000  0.5219320000000  0.5310760000000 1.0
C      1  0.4034380000000  0.4615380000000  0.5031590000000 1.0
C      1  0.5647370000000  0.5754610000000  0.5165680000000 1.0
C      1  0.5647370000000  0.4473370000000  0.5567700000000 1.0
C      1  0.5647360000000  0.4765830000000  0.4257100000000 1.0
C      1  0.4073310000000  0.5586500000000  0.5628260000000 1.0
C      1  0.4073300000000  0.4156830000000  0.5190820000000 1.0
C      1  0.4073300000000  0.5250500000000  0.4171410000000 1.0
C      1  0.4688090000000  0.5961760000000  0.5018610000000 1.0
C      1  0.4688090000000  0.4497170000000  0.5820630000000 1.0
C      1  0.4688080000000  0.4534890000000  0.4151250000000 1.0
C      1  0.3957040000000  0.4419820000000  0.5240430000000 1.0
C      1  0.3957040000000  0.5076040000000  0.4374360000000 1.0
C      1  0.3957040000000  0.5497960000000  0.5375700000000 1.0
C      1  0.5986840000000  0.5309060000000  0.5650530000000 1.0
C      1  0.5986830000000  0.4276250000000  0.4939420000000 1.0
C      1  0.5986830000000  0.5408490000000  0.4400530000000 1.0
C      1  0.5218380000000  0.5045520000000  0.3859520000000 1.0
C      1  0.5218390000000  0.5959080000000  0.5606690000000 1.0
C      1  0.5218380000000  0.3989210000000  0.5524280000000 1.0
C      1  0.5470550000000  0.5529980000000  0.4455610000000 1.0
C      1  0.5470550000000  0.5200620000000  0.5728200000000 1.0
C      1  0.5470550000000  0.4263210000000  0.4806670000000 1.0
C      1  0.4463640000000  0.5311250000000  0.4477460000000 1.0
C      1  0.4463650000000  0.5291080000000  0.5527850000000 1.0
C      1  0.4463640000000  0.4391500000000  0.4985190000000 1.0
C      1  0.5382560000000  0.5716460000000  0.4247420000000 1.0
C      1  0.5382560000000  0.5287680000000  0.5993790000000 1.0
C      1  0.5382550000000  0.3989670000000  0.4749270000000 1.0
C      1  0.5245660000000  0.5542700000000  0.4042750000000 1.0
C      1  0.5245660000000  0.5551810000000  0.5945650000000 1.0
C      1  0.5245650000000  0.3899290000000  0.5002090000000 1.0
C      1  0.5746110000000  0.5106480000000  0.5668480000000 1.0
C      1  0.5746110000000  0.4361990000000  0.4755000000000 1.0
C      1  0.5746110000000  0.5525340000000  0.4567000000000 1.0
C      1  0.5333940000000  0.5687280000000  0.5686890000000 1.0
C      1  0.5333940000000  0.4055650000000  0.5248790000000 1.0
C      1  0.5333940000000  0.5250870000000  0.4054800000000 1.0
C      1  0.5363710000000  0.4107030000000  0.5755810000000 1.0
C      1  0.5363710000000  0.4786090000000  0.3845790000000 1.0
C      1  0.5363720000000  0.6100680000000  0.5388890000000 1.0
C      1  0.4055010000000  0.4809500000000  0.4314790000000 1.0
C      1  0.4055010000000  0.5682820000000  0.5174660000000 1.0
C      1  0.4055010000000  0.4501500000000  0.5501040000000 1.0
C      1  0.5258240000000  0.4854050000000  0.5622560000000 1.0
C      1  0.5258230000000  0.4527980000000  0.4559350000000 1.0
C      1  0.5258240000000  0.5611780000000  0.4808570000000 1.0
C      1  0.5619240000000  0.5995720000000  0.5315060000000 1.0
C      1  0.5619230000000  0.4223450000000  0.5701820000000 1.0
C      1  0.5619230000000  0.4774640000000  0.3973600000000 1.0
C      1  0.4400140000000  0.4997940000000  0.4996830000000 1.0
C      1  0.5505970000000  0.4997940000000  0.4996830000000 1.0
END
