TITL C-862134-6730-1431 -0.134638828482359 125000 -701.293004576998 0 0 120 (C2) n - 1
REM
REM in /home/nfs/bkarasulu/CARBON/AIRSS/Generating-Clusters/TERSOFF/Higher-Symm/FIRE-HFTN
REM
REM
REM
REM
REM
REM ./C.cell (b20cbc046b6831c77cfcea5457e17084)
REM AIRSS Version 0.9.1 bugfix July 2018 build 013d7b7c2542+ Fri, 06 Jul 2018 19:26:36 +0100
REM compiler GCC version 9.2.1 20190827 (Red Hat 9.2.1-1)
REM options -cpp -mtune=generic -march=x86-64 -g -O0 -fpre-include=/usr/include/finclude/math-vector-fortran.h
REM seed -1202932585 -1883769182 -1809437151 1609617539 -939052161 -1679498105 1152347094 622438541 -1542802996 -1097354738 1647094142 -341035292 975859366 -1937883683 -469680054 1837472359 998741004 -992250521 303034050 620472881 1320257043 -387134086 549626569 -467755620 264829421 198623488 -1319643779 981245172 -1863895557 -940532743 1125395363 246673552 363420321
REM
CELL 1.54180   50.00000   50.00000   50.00000   90.00000   90.00000   90.00000
LATT -1
SFAC C  
C      1  0.5095780000000  0.6043350000000  0.4889450000000 1.0
C      1  0.4904220000000  0.6043350000000  0.5110550000000 1.0
C      1  0.4601750000000  0.5741510000000  0.5514180000000 1.0
C      1  0.5398250000000  0.5741510000000  0.4485820000000 1.0
C      1  0.5610550000000  0.5026290000000  0.4159220000000 1.0
C      1  0.4389450000000  0.5026290000000  0.5840780000000 1.0
C      1  0.6069550000000  0.5021100000000  0.5516510000000 1.0
C      1  0.3930450000000  0.5021100000000  0.4483490000000 1.0
C      1  0.4186470000000  0.4819580000000  0.5368620000000 1.0
C      1  0.5813530000000  0.4819580000000  0.4631380000000 1.0
C      1  0.6044110000000  0.4894420000000  0.5255030000000 1.0
C      1  0.3955890000000  0.4894410000000  0.4744970000000 1.0
C      1  0.5058300000000  0.4622990000000  0.4870590000000 1.0
C      1  0.4941700000000  0.4622990000000  0.5129410000000 1.0
C      1  0.5765990000000  0.5642170000000  0.4778960000000 1.0
C      1  0.4234010000000  0.5642170000000  0.5221040000000 1.0
C      1  0.5364470000000  0.4803830000000  0.4152030000000 1.0
C      1  0.4635530000000  0.4803830000000  0.5847970000000 1.0
C      1  0.4158160000000  0.4944940000000  0.5650960000000 1.0
C      1  0.5841840000000  0.4944940000000  0.4349040000000 1.0
C      1  0.5580990000000  0.5559060000000  0.4293900000000 1.0
C      1  0.4419010000000  0.5559060000000  0.5706100000000 1.0
C      1  0.4970800000000  0.4411760000000  0.5847600000000 1.0
C      1  0.5029200000000  0.4411760000000  0.4152400000000 1.0
C      1  0.4622890000000  0.4704430000000  0.4621600000000 1.0
C      1  0.5377110000000  0.4704430000000  0.5378400000000 1.0
C      1  0.5079300000000  0.4139800000000  0.5366580000000 1.0
C      1  0.4920700000000  0.4139800000000  0.4633420000000 1.0
C      1  0.5351420000000  0.5881440000000  0.5301670000000 1.0
C      1  0.4648580000000  0.5881440000000  0.4698330000000 1.0
C      1  0.5778810000000  0.4936980000000  0.5144950000000 1.0
C      1  0.4221190000000  0.4936980000000  0.4855050000000 1.0
C      1  0.5434070000000  0.4786950000000  0.4454910000000 1.0
C      1  0.4565930000000  0.4786950000000  0.5545090000000 1.0
C      1  0.4962570000000  0.5918490000000  0.4662590000000 1.0
C      1  0.5037430000000  0.5918490000000  0.5337410000000 1.0
C      1  0.5138410000000  0.4005450000000  0.4842070000000 1.0
C      1  0.4861590000000  0.4005450000000  0.5157940000000 1.0
C      1  0.4218300000000  0.4397640000000  0.4541590000000 1.0
C      1  0.5781700000000  0.4397640000000  0.5458410000000 1.0
C      1  0.4460710000000  0.4939180000000  0.4693560000000 1.0
C      1  0.5539290000000  0.4939180000000  0.5306440000000 1.0
C      1  0.5756410000000  0.4397010000000  0.4975180000000 1.0
C      1  0.4243590000000  0.4397010000000  0.5024820000000 1.0
C      1  0.5388150000000  0.4294280000000  0.4444280000000 1.0
C      1  0.4611850000000  0.4294280000000  0.5555720000000 1.0
C      1  0.4547600000000  0.4371730000000  0.4970330000000 1.0
C      1  0.5452400000000  0.4371730000000  0.5029670000000 1.0
C      1  0.3864760000000  0.4623660000000  0.4786890000000 1.0
C      1  0.6135240000000  0.4623660000000  0.5213110000000 1.0
C      1  0.5157470000000  0.5246420000000  0.4134150000000 1.0
C      1  0.4842530000000  0.5246420000000  0.5865850000000 1.0
C      1  0.4340490000000  0.5306840000000  0.4505140000000 1.0
C      1  0.5659510000000  0.5306840000000  0.5494860000000 1.0
C      1  0.4929840000000  0.5451470000000  0.5346400000000 1.0
C      1  0.5070160000000  0.5451470000000  0.4653600000000 1.0
C      1  0.4897080000000  0.5652660000000  0.4286930000000 1.0
C      1  0.5102920000000  0.5652660000000  0.5713070000000 1.0
C      1  0.4736660000000  0.4549650000000  0.5967480000000 1.0
C      1  0.5263340000000  0.4549650000000  0.4032520000000 1.0
C      1  0.5256490000000  0.4144580000000  0.5082150000000 1.0
C      1  0.4743510000000  0.4144580000000  0.4917850000000 1.0
C      1  0.4554960000000  0.4536900000000  0.5415020000000 1.0
C      1  0.5445040000000  0.4536900000000  0.4584980000000 1.0
C      1  0.5087210000000  0.4735310000000  0.5357310000000 1.0
C      1  0.4912790000000  0.4735310000000  0.4642690000000 1.0
C      1  0.4668550000000  0.4544410000000  0.5158220000000 1.0
C      1  0.5331450000000  0.4544410000000  0.4841780000000 1.0
C      1  0.5703100000000  0.5733060000000  0.4084430000000 1.0
C      1  0.4296900000000  0.5733060000000  0.5915570000000 1.0
C      1  0.5195780000000  0.5355910000000  0.5282010000000 1.0
C      1  0.4804220000000  0.5355910000000  0.4717990000000 1.0
C      1  0.5789600000000  0.5497920000000  0.4520090000000 1.0
C      1  0.4210400000000  0.5497920000000  0.5479910000000 1.0
C      1  0.4892870000000  0.5703010000000  0.5495780000000 1.0
C      1  0.5107130000000  0.5703010000000  0.4504220000000 1.0
C      1  0.5363490000000  0.5941160000000  0.4973480000000 1.0
C      1  0.4636510000000  0.5941160000000  0.5026520000000 1.0
C      1  0.5050460000000  0.4950950000000  0.4503060000000 1.0
C      1  0.4949540000000  0.4950950000000  0.5496940000000 1.0
C      1  0.5078230000000  0.5421250000000  0.5890130000000 1.0
C      1  0.4921770000000  0.5421250000000  0.4109870000000 1.0
C      1  0.4068660000000  0.4417690000000  0.4787840000000 1.0
C      1  0.5931340000000  0.4417700000000  0.5212160000000 1.0
C      1  0.5325110000000  0.4221490000000  0.5535030000000 1.0
C      1  0.4674890000000  0.4221490000000  0.4464970000000 1.0
C      1  0.5497010000000  0.4447000000000  0.5476810000000 1.0
C      1  0.4502990000000  0.4447000000000  0.4523190000000 1.0
C      1  0.5846420000000  0.4525060000000  0.4708020000000 1.0
C      1  0.4153590000000  0.4525060000000  0.5291980000000 1.0
C      1  0.5322980000000  0.5026000000000  0.4616590000000 1.0
C      1  0.4677020000000  0.5026000000000  0.5383410000000 1.0
C      1  0.4161910000000  0.5139660000000  0.4349530000000 1.0
C      1  0.5838090000000  0.5139660000000  0.5650470000000 1.0
C      1  0.4637040000000  0.5730390000000  0.4421030000000 1.0
C      1  0.5362960000000  0.5730390000000  0.5578970000000 1.0
C      1  0.4715380000000  0.4789510000000  0.3962610000000 1.0
C      1  0.5284620000000  0.4789520000000  0.6037390000000 1.0
C      1  0.4474000000000  0.5811850000000  0.5247140000000 1.0
C      1  0.5526000000000  0.5811850000000  0.4752860000000 1.0
C      1  0.4891490000000  0.4969300000000  0.5788830000000 1.0
C      1  0.5108510000000  0.4969300000000  0.4211170000000 1.0
C      1  0.4888240000000  0.4233420000000  0.5616290000000 1.0
C      1  0.5111760000000  0.4233420000000  0.4383710000000 1.0
C      1  0.4563010000000  0.5036320000000  0.4033010000000 1.0
C      1  0.5436990000000  0.5036320000000  0.5966990000000 1.0
C      1  0.5293260000000  0.5282040000000  0.4772660000000 1.0
C      1  0.4706740000000  0.5282040000000  0.5227340000000 1.0
C      1  0.4846690000000  0.5206650000000  0.4971390000000 1.0
C      1  0.5153310000000  0.5206650000000  0.5028610000000 1.0
C      1  0.4680090000000  0.5308070000000  0.3977970000000 1.0
C      1  0.5319910000000  0.5308070000000  0.6022030000000 1.0
C      1  0.5373360000000  0.5275820000000  0.5494830000000 1.0
C      1  0.4626640000000  0.5275820000000  0.4505170000000 1.0
C      1  0.5721800000000  0.5016010000000  0.5888750000000 1.0
C      1  0.4278200000000  0.5016010000000  0.4111250000000 1.0
C      1  0.5461090000000  0.5305370000000  0.4169060000000 1.0
C      1  0.4538910000000  0.5305370000000  0.5830940000000 1.0
C      1  0.4771060000000  0.4558790000000  0.4142210000000 1.0
C      1  0.5228940000000  0.4558790000000  0.5857790000000 1.0
END
