TITL C-862133-5440-1071 0.0010094328177085 125000 -729.838403069879 0 0 137 (Cs) n - 1
REM
REM in /home/nfs/bkarasulu/CARBON/AIRSS/Generating-Clusters/TERSOFF/Higher-Symm/FIRE-HFTN
REM
REM
REM
REM
REM
REM ./C.cell (b20cbc046b6831c77cfcea5457e17084)
REM AIRSS Version 0.9.1 bugfix July 2018 build 013d7b7c2542+ Fri, 06 Jul 2018 19:26:36 +0100
REM compiler GCC version 9.2.1 20190827 (Red Hat 9.2.1-1)
REM options -cpp -mtune=generic -march=x86-64 -g -O0 -fpre-include=/usr/include/finclude/math-vector-fortran.h
REM seed -1436289220 1696113928 -2046758584 1415122519 -41699596 -1511894711 -479206446 -1632809567 2068803994 -246964503 -1844717654 771866221 -465941199 -1937756678 -949779040 1611805480 767382379 -1928530899 -1144893585 -1863170489 -2138800728 -991013701 -1450059196 62126225 464876152 993718447 1796170483 1631421836 2002452857 -1240420037 -1589561515 726651315 1876166122
REM
CELL 1.54180   50.00000   50.00000   50.00000   90.00000   90.00000   90.00000
LATT -1
SFAC C  
C      1  0.4823050000000  0.4666600000000  0.4352010000000 1.0
C      1  0.5190230000000  0.5336490000000  0.4336780000000 1.0
C      1  0.4823050000000  0.5333970000000  0.4352010000000 1.0
C      1  0.5190230000000  0.4664090000000  0.4336780000000 1.0
C      1  0.4578030000000  0.5164930000000  0.4493090000000 1.0
C      1  0.5438300000000  0.4832730000000  0.4473840000000 1.0
C      1  0.4578030000000  0.4835650000000  0.4493090000000 1.0
C      1  0.5438300000000  0.5167850000000  0.4473840000000 1.0
C      1  0.4849450000000  0.4197800000000  0.4600580000000 1.0
C      1  0.5158240000000  0.5805290000000  0.4597540000000 1.0
C      1  0.4849450000000  0.5802780000000  0.4600580000000 1.0
C      1  0.5158240000000  0.4195290000000  0.4597540000000 1.0
C      1  0.5289750000000  0.4728890000000  0.5774640000000 1.0
C      1  0.4721440000000  0.5264020000000  0.5767790000000 1.0
C      1  0.5289750000000  0.5271690000000  0.5774640000000 1.0
C      1  0.4721440000000  0.4736560000000  0.5767790000000 1.0
C      1  0.4678710000000  0.5146560000000  0.4986290000000 1.0
C      1  0.5351090000000  0.4856800000000  0.4947470000000 1.0
C      1  0.4678710000000  0.4854020000000  0.4986290000000 1.0
C      1  0.5351090000000  0.5143780000000  0.4947470000000 1.0
C      1  0.4202650000000  0.5171550000000  0.5117220000000 1.0
C      1  0.5812000000000  0.4828410000000  0.5094690000000 1.0
C      1  0.4202650000000  0.4829030000000  0.5117220000000 1.0
C      1  0.5812000000000  0.5172170000000  0.5094690000000 1.0
C      1  0.5157680000000  0.5903840000000  0.5116380000000 1.0
C      1  0.4837770000000  0.4089340000000  0.5117970000000 1.0
C      1  0.5157680000000  0.4096740000000  0.5116390000000 1.0
C      1  0.4837770000000  0.5911240000000  0.5117970000000 1.0
C      1  0.4850970000000  0.5584900000000  0.5072310000000 1.0
C      1  0.5153740000000  0.4424620000000  0.5060090000000 1.0
C      1  0.4850970000000  0.4415680000000  0.5072310000000 1.0
C      1  0.5153740000000  0.5575960000000  0.5060090000000 1.0
C      1  0.4399560000000  0.5868890000000  0.5290650000000 1.0
C      1  0.5589270000000  0.4140340000000  0.5298980000000 1.0
C      1  0.4399560000000  0.4131690000000  0.5290650000000 1.0
C      1  0.5589270000000  0.5860240000000  0.5298980000000 1.0
C      1  0.4869160000000  0.5291910000000  0.4767280000000 1.0
C      1  0.5148690000000  0.4709540000000  0.4751650000000 1.0
C      1  0.4869160000000  0.4708670000000  0.4767280000000 1.0
C      1  0.5148690000000  0.5291040000000  0.4751650000000 1.0
C      1  0.5729470000000  0.4846240000000  0.4331120000000 1.0
C      1  0.4288030000000  0.5152930000000  0.4351200000000 1.0
C      1  0.5729470000000  0.5154340000000  0.4331120000000 1.0
C      1  0.4288030000000  0.4847650000000  0.4351200000000 1.0
C      1  0.4843520000000  0.4469480000000  0.5841700000000 1.0
C      1  0.5163090000000  0.5536830000000  0.5841420000000 1.0
C      1  0.4843520000000  0.5531100000000  0.5841700000000 1.0
C      1  0.5163090000000  0.4463760000000  0.5841420000000 1.0
C      1  0.5929940000000  0.5675530000000  0.5044420000000 1.0
C      1  0.4068620000000  0.4320690000000  0.5024380000000 1.0
C      1  0.5929940000000  0.4325050000000  0.5044420000000 1.0
C      1  0.4068620000000  0.5679890000000  0.5024380000000 1.0
C      1  0.4717130000000  0.4371410000000  0.4369050000000 1.0
C      1  0.5292400000000  0.5634150000000  0.4359130000000 1.0
C      1  0.4717130000000  0.5629170000000  0.4369050000000 1.0
C      1  0.5292400000000  0.4366430000000  0.4359130000000 1.0
C      1  0.4425800000000  0.5661420000000  0.4339390000000 1.0
C      1  0.5583780000000  0.4331220000000  0.4327340000000 1.0
C      1  0.4425800000000  0.4339160000000  0.4339390000000 1.0
C      1  0.5583780000000  0.5669360000000  0.4327340000000 1.0
C      1  0.5275220000000  0.5569870000000  0.4773780000000 1.0
C      1  0.4736000000000  0.4430500000000  0.4784430000000 1.0
C      1  0.5275220000000  0.4430710000000  0.4773780000000 1.0
C      1  0.4736000000000  0.5570080000000  0.4784430000000 1.0
C      1  0.4350450000000  0.4146260000000  0.4976730000000 1.0
C      1  0.5650770000000  0.5849970000000  0.4982290000000 1.0
C      1  0.4350450000000  0.5854320000000  0.4976730000000 1.0
C      1  0.5650770000000  0.4150610000000  0.4982290000000 1.0
C      1  0.5165360000000  0.5164600000000  0.4059300000000 1.0
C      1  0.4845790000000  0.4838160000000  0.4077800000000 1.0
C      1  0.5165360000000  0.4835980000000  0.4059300000000 1.0
C      1  0.4845790000000  0.5162420000000  0.4077800000000 1.0
C      1  0.5154850000000  0.5154130000000  0.5537840000000 1.0
C      1  0.4844420000000  0.4838430000000  0.5511890000000 1.0
C      1  0.5154850000000  0.4846450000000  0.5537840000000 1.0
C      1  0.4844420000000  0.5162150000000  0.5511890000000 1.0
C      1  0.5301920000000  0.5902880000000  0.5374540000000 1.0
C      1  0.4685720000000  0.4094010000000  0.5372980000000 1.0
C      1  0.5301920000000  0.4097700000000  0.5374540000000 1.0
C      1  0.4685720000000  0.5906570000000  0.5372980000000 1.0
C      1  0.5334380000000  0.5975190000000  0.4862540000000 1.0
C      1  0.4668200000000  0.4023590000000  0.4859000000000 1.0
C      1  0.5334380000000  0.4025390000000  0.4862540000000 1.0
C      1  0.4668200000000  0.5976990000000  0.4859000000000 1.0
C      1  0.5764790000000  0.5582450000000  0.4543580000000 1.0
C      1  0.4248810000000  0.4423500000000  0.4558910000000 1.0
C      1  0.5764790000000  0.4418130000000  0.4543580000000 1.0
C      1  0.4248810000000  0.5577080000000  0.4558910000000 1.0
C      1  0.4534140000000  0.4551470000000  0.5440720000000 1.0
C      1  0.5431130000000  0.5446570000000  0.5420200000000 1.0
C      1  0.4534140000000  0.5449110000000  0.5440720000000 1.0
C      1  0.5431130000000  0.4554010000000  0.5420200000000 1.0
C      1  0.3927340000000  0.4818750000000  0.5298530000000 1.0
C      1  0.6058230000000  0.5181600000000  0.5313960000000 1.0
C      1  0.3927340000000  0.5181830000000  0.5298530000000 1.0
C      1  0.6058230000000  0.4818980000000  0.5313960000000 1.0
C      1  0.5229730000000  0.4706510000000  0.5213940000000 1.0
C      1  0.4741110000000  0.5322640000000  0.5237890000000 1.0
C      1  0.5229730000000  0.5294070000000  0.5213940000000 1.0
C      1  0.4741110000000  0.4677940000000  0.5237890000000 1.0
C      1  0.4285900000000  0.5626410000000  0.5411810000000 1.0
C      1  0.5697200000000  0.4386070000000  0.5423700000000 1.0
C      1  0.4285900000000  0.4374170000000  0.5411810000000 1.0
C      1  0.5697200000000  0.5614520000000  0.5423700000000 1.0
C      1  0.5898900000000  0.4686410000000  0.4518040000000 1.0
C      1  0.4121330000000  0.5308860000000  0.4540270000000 1.0
C      1  0.5898900000000  0.5314170000000  0.4518040000000 1.0
C      1  0.4121330000000  0.4691720000000  0.4540270000000 1.0
C      1  0.4031070000000  0.4483360000000  0.5282820000000 1.0
C      1  0.5954440000000  0.5509140000000  0.5300940000000 1.0
C      1  0.4031070000000  0.5517220000000  0.5282820000000 1.0
C      1  0.5954440000000  0.4491440000000  0.5300940000000 1.0
C      1  0.4045740000000  0.4843440000000  0.4793430000000 1.0
C      1  0.5971880000000  0.5158350000000  0.4772380000000 1.0
C      1  0.4045740000000  0.5157140000000  0.4793430000000 1.0
C      1  0.5971880000000  0.4842230000000  0.4772380000000 1.0
C      1  0.5566530000000  0.4732760000000  0.4769990000000 1.0
C      1  0.4452570000000  0.5260700000000  0.4793900000000 1.0
C      1  0.5566530000000  0.5267820000000  0.4769990000000 1.0
C      1  0.4452570000000  0.4739880000000  0.4793900000000 1.0
C      1  0.4417850000000  0.4421170000000  0.4807120000000 1.0
C      1  0.5594120000000  0.5583620000000  0.4794110000000 1.0
C      1  0.4417850000000  0.5579410000000  0.4807120000000 1.0
C      1  0.5594120000000  0.4416960000000  0.4794110000000 1.0
C      1  0.4332110000000  0.5165650000000  0.5458800000000 1.0
C      1  0.5653120000000  0.4834460000000  0.5423520000000 1.0
C      1  0.4332110000000  0.4834930000000  0.5458800000000 1.0
C      1  0.5653120000000  0.5166120000000  0.5423520000000 1.0
C      1  0.4805710000000  0.4332570000000  0.5547240000000 1.0
C      1  0.5170290000000  0.5666850000000  0.5543900000000 1.0
C      1  0.4805710000000  0.5668010000000  0.5547240000000 1.0
C      1  0.5170290000000  0.4333730000000  0.5543900000000 1.0
C      1  0.4430570000000  0.4790470000000  0.5769020000000 1.0
C      1  0.5583150000000  0.5225220000000  0.5742060000000 1.0
C      1  0.4430570000000  0.5210110000000  0.5769020000000 1.0
C      1  0.5583150000000  0.4775370000000  0.5742060000000 1.0
C      1  0.5026270000000  0.5000290000000  0.5170060000000 1.0
END
