TITL C-862134-6730-1167 8.41677481892657 125000 -1026.07675593834 0 0 173 (C1) n - 1
REM
REM in /home/nfs/bkarasulu/CARBON/AIRSS/Generating-Clusters/TERSOFF/Higher-Symm/FIRE-HFTN
REM
REM
REM
REM
REM
REM ./C.cell (b20cbc046b6831c77cfcea5457e17084)
REM AIRSS Version 0.9.1 bugfix July 2018 build 013d7b7c2542+ Fri, 06 Jul 2018 19:26:36 +0100
REM compiler GCC version 9.2.1 20190827 (Red Hat 9.2.1-1)
REM options -cpp -mtune=generic -march=x86-64 -g -O0 -fpre-include=/usr/include/finclude/math-vector-fortran.h
REM seed -1026066915 -2094659283 -183210276 -1683913512 794495809 -39272934 -1865851318 -1593674126 1512345292 1290437240 -1157148971 174768387 -1819014231 -1529153635 564771226 -803319071 1907274450 1892857122 -1871255086 -716495532 232598526 345284969 -1891307105 1585116973 572698243 1578096139 319204099 1776474227 1836215405 2128108636 -555744886 -1258962771 -605692774
REM
CELL 1.54180   50.00000   50.00000   50.00000   90.00000   90.00000   90.00000
LATT -1
SFAC C  
C      1  0.5302270000000  0.4773600000000  0.5627370000000 1.0
C      1  0.4719370000000  0.5216370000000  0.4374450000000 1.0
C      1  0.5016370000000  0.4479150000000  0.4215350000000 1.0
C      1  0.4986740000000  0.5523250000000  0.5787450000000 1.0
C      1  0.5331620000000  0.6201360000000  0.5166420000000 1.0
C      1  0.4653330000000  0.3784740000000  0.4813900000000 1.0
C      1  0.4180210000000  0.5603440000000  0.6045750000000 1.0
C      1  0.5820500000000  0.4400650000000  0.3963130000000 1.0
C      1  0.5133450000000  0.5292680000000  0.5663990000000 1.0
C      1  0.4868690000000  0.4705450000000  0.4341990000000 1.0
C      1  0.5728100000000  0.4506830000000  0.5531800000000 1.0
C      1  0.4275540000000  0.5490960000000  0.4472140000000 1.0
C      1  0.5498170000000  0.5712070000000  0.5532660000000 1.0
C      1  0.4490240000000  0.4276070000000  0.4448620000000 1.0
C      1  0.5537770000000  0.4286700000000  0.5109190000000 1.0
C      1  0.4464610000000  0.5708220000000  0.4892530000000 1.0
C      1  0.5229080000000  0.4314150000000  0.4358370000000 1.0
C      1  0.4770070000000  0.5686100000000  0.5644390000000 1.0
C      1  0.4689960000000  0.6016740000000  0.5236500000000 1.0
C      1  0.5303350000000  0.3980950000000  0.4765880000000 1.0
C      1  0.4868160000000  0.4916570000000  0.5908240000000 1.0
C      1  0.5129560000000  0.5088250000000  0.4105300000000 1.0
C      1  0.5213310000000  0.4487060000000  0.5921110000000 1.0
C      1  0.4787160000000  0.5514570000000  0.4086670000000 1.0
C      1  0.5425330000000  0.4763150000000  0.5226160000000 1.0
C      1  0.4582530000000  0.5231760000000  0.4770940000000 1.0
C      1  0.5898510000000  0.5081700000000  0.4709070000000 1.0
C      1  0.4105360000000  0.4912510000000  0.5292510000000 1.0
C      1  0.4945560000000  0.3893560000000  0.4414280000000 1.0
C      1  0.5053660000000  0.6105470000000  0.5579050000000 1.0
C      1  0.4511360000000  0.4732300000000  0.6223700000000 1.0
C      1  0.5488890000000  0.5266280000000  0.3785160000000 1.0
C      1  0.4918320000000  0.4113130000000  0.5791500000000 1.0
C      1  0.5081670000000  0.5890490000000  0.4212850000000 1.0
C      1  0.5337600000000  0.5607720000000  0.4523320000000 1.0
C      1  0.4664310000000  0.4408210000000  0.5477950000000 1.0
C      1  0.4509520000000  0.4120480000000  0.5407070000000 1.0
C      1  0.5494210000000  0.5890340000000  0.4597310000000 1.0
C      1  0.5509900000000  0.4406890000000  0.4366790000000 1.0
C      1  0.4487810000000  0.5593050000000  0.5639730000000 1.0
C      1  0.5158650000000  0.4257510000000  0.5470580000000 1.0
C      1  0.4839590000000  0.5750020000000  0.4531480000000 1.0
C      1  0.4502980000000  0.4451780000000  0.5779460000000 1.0
C      1  0.5499450000000  0.5553170000000  0.4226120000000 1.0
C      1  0.4115770000000  0.5162530000000  0.4826020000000 1.0
C      1  0.5890230000000  0.4836630000000  0.5179740000000 1.0
C      1  0.4072540000000  0.5225110000000  0.5116780000000 1.0
C      1  0.5925890000000  0.4772180000000  0.4887900000000 1.0
C      1  0.4520480000000  0.4682630000000  0.4026310000000 1.0
C      1  0.5485500000000  0.5317200000000  0.5973560000000 1.0
C      1  0.5959930000000  0.4627730000000  0.5381160000000 1.0
C      1  0.4044780000000  0.5370690000000  0.4624190000000 1.0
C      1  0.4002320000000  0.5532280000000  0.5104570000000 1.0
C      1  0.5995740000000  0.4465110000000  0.4892130000000 1.0
C      1  0.5427360000000  0.4857100000000  0.6175520000000 1.0
C      1  0.4576090000000  0.5144900000000  0.3830190000000 1.0
C      1  0.4377120000000  0.5027530000000  0.4794320000000 1.0
C      1  0.5627470000000  0.4969510000000  0.5208860000000 1.0
C      1  0.5211380000000  0.4226590000000  0.5771820000000 1.0
C      1  0.4786960000000  0.5778150000000  0.4230350000000 1.0
C      1  0.4036780000000  0.4464270000000  0.5043080000000 1.0
C      1  0.5964760000000  0.5531490000000  0.4958220000000 1.0
C      1  0.4299900000000  0.3818830000000  0.5038210000000 1.0
C      1  0.5706460000000  0.6174080000000  0.4978970000000 1.0
C      1  0.4666070000000  0.5082890000000  0.6052190000000 1.0
C      1  0.5328810000000  0.4919840000000  0.3960180000000 1.0
C      1  0.4419330000000  0.5168630000000  0.5933610000000 1.0
C      1  0.5576890000000  0.4832680000000  0.4075840000000 1.0
C      1  0.5697060000000  0.5933070000000  0.4819120000000 1.0
C      1  0.4306620000000  0.4066690000000  0.5187970000000 1.0
C      1  0.4323980000000  0.4229020000000  0.5649110000000 1.0
C      1  0.5681490000000  0.5778100000000  0.4352920000000 1.0
C      1  0.4414410000000  0.4899110000000  0.3849320000000 1.0
C      1  0.5590040000000  0.5102120000000  0.6154000000000 1.0
C      1  0.6233960000000  0.4545780000000  0.5429260000000 1.0
C      1  0.3770450000000  0.5452310000000  0.4577230000000 1.0
C      1  0.5066660000000  0.4724790000000  0.5440710000000 1.0
C      1  0.4948290000000  0.5284890000000  0.4571920000000 1.0
C      1  0.5120850000000  0.6055860000000  0.4474110000000 1.0
C      1  0.4878370000000  0.3950880000000  0.5528920000000 1.0
C      1  0.4141560000000  0.4994990000000  0.3906300000000 1.0
C      1  0.5863170000000  0.5004470000000  0.6100250000000 1.0
C      1  0.5083490000000  0.4676150000000  0.3721880000000 1.0
C      1  0.4923150000000  0.5323420000000  0.6281180000000 1.0
C      1  0.5075880000000  0.5290400000000  0.5109650000000 1.0
C      1  0.4920660000000  0.4678400000000  0.4862150000000 1.0
C      1  0.5004170000000  0.4967780000000  0.3698320000000 1.0
C      1  0.5001010000000  0.5031470000000  0.6300040000000 1.0
C      1  0.5641450000000  0.4420890000000  0.4625240000000 1.0
C      1  0.4352270000000  0.5579010000000  0.5383050000000 1.0
C      1  0.3994220000000  0.4429390000000  0.4756980000000 1.0
C      1  0.6008720000000  0.5566340000000  0.5243760000000 1.0
C      1  0.4945300000000  0.5058330000000  0.5667720000000 1.0
C      1  0.5051350000000  0.4946510000000  0.4345740000000 1.0
C      1  0.4103500000000  0.5178640000000  0.4131880000000 1.0
C      1  0.5903080000000  0.4819130000000  0.5875930000000 1.0
C      1  0.5371760000000  0.5790700000000  0.5807350000000 1.0
C      1  0.4625990000000  0.4204440000000  0.4178960000000 1.0
C      1  0.4501040000000  0.5502280000000  0.4678350000000 1.0
C      1  0.5504570000000  0.4494330000000  0.5322030000000 1.0
C      1  0.4322350000000  0.4936060000000  0.5505850000000 1.0
C      1  0.5675630000000  0.5058960000000  0.4503770000000 1.0
C      1  0.4958370000000  0.4462350000000  0.5431920000000 1.0
C      1  0.5044450000000  0.5550550000000  0.4570960000000 1.0
C      1  0.5942520000000  0.5717910000000  0.4485110000000 1.0
C      1  0.4060810000000  0.4284250000000  0.5518470000000 1.0
C      1  0.5509820000000  0.4985270000000  0.5611430000000 1.0
C      1  0.4500820000000  0.5010360000000  0.4393700000000 1.0
C      1  0.4038500000000  0.4876170000000  0.4528710000000 1.0
C      1  0.5970370000000  0.5124100000000  0.5480240000000 1.0
C      1  0.4804540000000  0.4787780000000  0.6316830000000 1.0
C      1  0.5195720000000  0.5215880000000  0.3693840000000 1.0
C      1  0.4338640000000  0.5325860000000  0.5248330000000 1.0
C      1  0.5654430000000  0.4672910000000  0.4762850000000 1.0
C      1  0.4644980000000  0.4576480000000  0.4855520000000 1.0
C      1  0.5349760000000  0.5404470000000  0.5125360000000 1.0
C      1  0.5352970000000  0.5926150000000  0.5073110000000 1.0
C      1  0.4620340000000  0.4057560000000  0.4908880000000 1.0
C      1  0.4661460000000  0.4426620000000  0.3954200000000 1.0
C      1  0.5342240000000  0.5573710000000  0.6039710000000 1.0
C      1  0.4843810000000  0.5929630000000  0.5481080000000 1.0
C      1  0.5152450000000  0.4070050000000  0.4519010000000 1.0
C      1  0.4414670000000  0.4763870000000  0.4918760000000 1.0
C      1  0.5587850000000  0.5227870000000  0.5078170000000 1.0
C      1  0.5108530000000  0.4582520000000  0.4668920000000 1.0
C      1  0.4885330000000  0.5390780000000  0.5301560000000 1.0
C      1  0.4300090000000  0.4932720000000  0.5794530000000 1.0
C      1  0.5696260000000  0.5066580000000  0.4215650000000 1.0
C      1  0.4118950000000  0.4603140000000  0.4555930000000 1.0
C      1  0.5883690000000  0.5394550000000  0.5445410000000 1.0
C      1  0.5056840000000  0.5393870000000  0.4047980000000 1.0
C      1  0.4942510000000  0.4608170000000  0.5963170000000 1.0
C      1  0.5705460000000  0.4589080000000  0.5833410000000 1.0
C      1  0.4297230000000  0.5410680000000  0.4172040000000 1.0
C      1  0.4951150000000  0.4923350000000  0.5270920000000 1.0
C      1  0.5099990000000  0.5100060000000  0.4733390000000 1.0
C      1  0.4565740000000  0.4741370000000  0.4314910000000 1.0
C      1  0.5438050000000  0.5253520000000  0.5686520000000 1.0
C      1  0.5497100000000  0.4868610000000  0.4623140000000 1.0
C      1  0.4493790000000  0.5131750000000  0.5388550000000 1.0
C      1  0.5310320000000  0.4106050000000  0.5039770000000 1.0
C      1  0.4687940000000  0.5893170000000  0.4962480000000 1.0
C      1  0.4801000000000  0.3976470000000  0.4180010000000 1.0
C      1  0.5203170000000  0.6022800000000  0.5809470000000 1.0
C      1  0.4749190000000  0.5218590000000  0.5488690000000 1.0
C      1  0.5247740000000  0.4776960000000  0.4510010000000 1.0
C      1  0.4550530000000  0.5373920000000  0.4016780000000 1.0
C      1  0.5451920000000  0.4626230000000  0.5991000000000 1.0
C      1  0.4765910000000  0.4372380000000  0.5891030000000 1.0
C      1  0.5234070000000  0.5629560000000  0.4116870000000 1.0
C      1  0.5807800000000  0.5297240000000  0.4898120000000 1.0
C      1  0.4195260000000  0.4697230000000  0.5102150000000 1.0
C      1  0.5636240000000  0.4546650000000  0.4134680000000 1.0
C      1  0.4362020000000  0.5455110000000  0.5873570000000 1.0
C      1  0.4600120000000  0.4294170000000  0.4736860000000 1.0
C      1  0.5381510000000  0.5690160000000  0.5246610000000 1.0
C      1  0.4378990000000  0.4537180000000  0.4435530000000 1.0
C      1  0.5618700000000  0.5456880000000  0.5557620000000 1.0
C      1  0.5804110000000  0.4936420000000  0.5619020000000 1.0
C      1  0.4205630000000  0.5062810000000  0.4388650000000 1.0
C      1  0.4821410000000  0.3707270000000  0.4594760000000 1.0
C      1  0.5176330000000  0.6285910000000  0.5392300000000 1.0
C      1  0.5936850000000  0.5759580000000  0.4780570000000 1.0
C      1  0.4063750000000  0.4237460000000  0.5222770000000 1.0
C      1  0.4875320000000  0.6000560000000  0.4716260000000 1.0
C      1  0.5119190000000  0.4007800000000  0.5285870000000 1.0
C      1  0.5589740000000  0.5307310000000  0.4072510000000 1.0
C      1  0.4409820000000  0.4693420000000  0.5936160000000 1.0
C      1  0.4192750000000  0.5747560000000  0.5019800000000 1.0
C      1  0.5806580000000  0.4248360000000  0.4976010000000 1.0
C      1  0.4964530000000  0.4473970000000  0.3914650000000 1.0
C      1  0.5038970000000  0.5528030000000  0.6088720000000 1.0
C      1  0.4998440000000  0.4962690000000  0.4979940000000 1.0
END
