TITL C-862130-1496-1088 -1.96334497506213e-05 125000 -1164.50553510429 0 0 195 (Cs) n - 1
REM
REM in /home/nfs/bkarasulu/CARBON/AIRSS/Generating-Clusters/TERSOFF/Higher-Symm/FIRE-HFTN
REM
REM
REM
REM
REM
REM ./C.cell (b20cbc046b6831c77cfcea5457e17084)
REM AIRSS Version 0.9.1 bugfix July 2018 build 013d7b7c2542+ Fri, 06 Jul 2018 19:26:36 +0100
REM compiler GCC version 9.2.1 20190827 (Red Hat 9.2.1-1)
REM options -cpp -mtune=generic -march=x86-64 -g -O0 -fpre-include=/usr/include/finclude/math-vector-fortran.h
REM seed 1893968935 -2019601938 1463098311 -1474508045 -862356556 -300517712 -1607427973 1325953517 1876541712 -215546660 988476992 -1417470472 1375880092 -1782046062 1033547636 1387259692 170245247 -1033059128 -1370414082 2046387753 -483666155 1412839208 -346909143 1397491589 -775237688 -1256633175 28018743 -1732181350 -185517180 -810094951 -59633231 -974497391 1028609846
REM
CELL 1.54180   50.00000   50.00000   50.00000   90.00000   90.00000   90.00000
LATT -1
SFAC C  
C      1  0.5544210000000  0.4850840000000  0.5958930000000 1.0
C      1  0.5556470000000  0.4848380000000  0.4051500000000 1.0
C      1  0.3897760000000  0.4851970000000  0.4992490000000 1.0
C      1  0.5543530000000  0.5159510000000  0.5955950000000 1.0
C      1  0.5558350000000  0.5157200000000  0.4049020000000 1.0
C      1  0.3898340000000  0.5160570000000  0.4991970000000 1.0
C      1  0.4455790000000  0.4850840000000  0.5958930000000 1.0
C      1  0.4443530000000  0.4848380000000  0.4051500000000 1.0
C      1  0.6102240000000  0.4851970000000  0.4992490000000 1.0
C      1  0.4456470000000  0.5159510000000  0.5955950000000 1.0
C      1  0.4441650000000  0.5157200000000  0.4049020000000 1.0
C      1  0.6101660000000  0.5160570000000  0.4991970000000 1.0
C      1  0.5295150000000  0.4207460000000  0.4008110000000 1.0
C      1  0.4004080000000  0.4211270000000  0.5229040000000 1.0
C      1  0.5700950000000  0.4207870000000  0.5739440000000 1.0
C      1  0.5294570000000  0.5799280000000  0.4028320000000 1.0
C      1  0.4000680000000  0.5803370000000  0.5242360000000 1.0
C      1  0.5704750000000  0.5799860000000  0.5753740000000 1.0
C      1  0.4704850000000  0.4207460000000  0.4008110000000 1.0
C      1  0.5995920000000  0.4211270000000  0.5229040000000 1.0
C      1  0.4299050000000  0.4207870000000  0.5739440000000 1.0
C      1  0.4705430000000  0.5799280000000  0.4028320000000 1.0
C      1  0.5999320000000  0.5803370000000  0.5242360000000 1.0
C      1  0.4295250000000  0.5799860000000  0.5753740000000 1.0
C      1  0.3988500000000  0.4236800000000  0.4928510000000 1.0
C      1  0.5448740000000  0.4232060000000  0.5902900000000 1.0
C      1  0.5562330000000  0.4233230000000  0.4147550000000 1.0
C      1  0.3987950000000  0.5778330000000  0.4941470000000 1.0
C      1  0.5450880000000  0.5773440000000  0.5916070000000 1.0
C      1  0.5562630000000  0.5774400000000  0.4163730000000 1.0
C      1  0.6011500000000  0.4236800000000  0.4928510000000 1.0
C      1  0.4551260000000  0.4232060000000  0.5902900000000 1.0
C      1  0.4437670000000  0.4233230000000  0.4147550000000 1.0
C      1  0.6012050000000  0.5778330000000  0.4941470000000 1.0
C      1  0.4549120000000  0.5773440000000  0.5916070000000 1.0
C      1  0.4437370000000  0.5774400000000  0.4163730000000 1.0
C      1  0.4686110000000  0.4403200000000  0.5037820000000 1.0
C      1  0.5156980000000  0.4406730000000  0.5306630000000 1.0
C      1  0.5155830000000  0.4400170000000  0.4766680000000 1.0
C      1  0.4686540000000  0.5607360000000  0.4963060000000 1.0
C      1  0.5157120000000  0.5610290000000  0.5232340000000 1.0
C      1  0.5155660000000  0.5603300000000  0.4691980000000 1.0
C      1  0.5313890000000  0.4403200000000  0.5037820000000 1.0
C      1  0.4843020000000  0.4406730000000  0.5306630000000 1.0
C      1  0.4844170000000  0.4400170000000  0.4766680000000 1.0
C      1  0.5313460000000  0.5607360000000  0.4963060000000 1.0
C      1  0.4842880000000  0.5610290000000  0.5232340000000 1.0
C      1  0.4844340000000  0.5603300000000  0.4691980000000 1.0
C      1  0.4259700000000  0.5951930000000  0.5269090000000 1.0
C      1  0.5597270000000  0.5951910000000  0.5518900000000 1.0
C      1  0.5144050000000  0.5952120000000  0.4237460000000 1.0
C      1  0.4260760000000  0.4058910000000  0.5253550000000 1.0
C      1  0.5595220000000  0.4057340000000  0.5502870000000 1.0
C      1  0.5143980000000  0.4057170000000  0.4218970000000 1.0
C      1  0.5740300000000  0.5951930000000  0.5269090000000 1.0
C      1  0.4402730000000  0.5951910000000  0.5518900000000 1.0
C      1  0.4855950000000  0.5952120000000  0.4237460000000 1.0
C      1  0.5739240000000  0.4058910000000  0.5253550000000 1.0
C      1  0.4404780000000  0.4057340000000  0.5502870000000 1.0
C      1  0.4856020000000  0.4057170000000  0.4218970000000 1.0
C      1  0.4849200000000  0.3982050000000  0.4731920000000 1.0
C      1  0.4852090000000  0.3990940000000  0.5249880000000 1.0
C      1  0.5298670000000  0.3986590000000  0.4989830000000 1.0
C      1  0.4850000000000  0.6018760000000  0.4751680000000 1.0
C      1  0.4851300000000  0.6028160000000  0.5269540000000 1.0
C      1  0.5298810000000  0.6024280000000  0.5008200000000 1.0
C      1  0.5150800000000  0.3982050000000  0.4731920000000 1.0
C      1  0.5147910000000  0.3990940000000  0.5249880000000 1.0
C      1  0.4701330000000  0.3986590000000  0.4989830000000 1.0
C      1  0.5150000000000  0.6018760000000  0.4751680000000 1.0
C      1  0.5148700000000  0.6028160000000  0.5269540000000 1.0
C      1  0.4701190000000  0.6024280000000  0.5008200000000 1.0
C      1  0.4837690000000  0.4453120000000  0.3898600000000 1.0
C      1  0.4137190000000  0.4452220000000  0.5681050000000 1.0
C      1  0.6024440000000  0.4454190000000  0.5401620000000 1.0
C      1  0.4839150000000  0.5556340000000  0.3917100000000 1.0
C      1  0.4132300000000  0.5555710000000  0.5691770000000 1.0
C      1  0.6029880000000  0.5557880000000  0.5411050000000 1.0
C      1  0.5162310000000  0.4453120000000  0.3898600000000 1.0
C      1  0.5862810000000  0.4452220000000  0.5681050000000 1.0
C      1  0.3975560000000  0.4454190000000  0.5401620000000 1.0
C      1  0.5160850000000  0.5556340000000  0.3917100000000 1.0
C      1  0.5867700000000  0.5555710000000  0.5691770000000 1.0
C      1  0.3970120000000  0.5557880000000  0.5411050000000 1.0
C      1  0.4701070000000  0.4061290000000  0.5498540000000 1.0
C      1  0.5587750000000  0.4062200000000  0.4998190000000 1.0
C      1  0.4711780000000  0.4061230000000  0.4478110000000 1.0
C      1  0.4699720000000  0.5949530000000  0.5515310000000 1.0
C      1  0.5587280000000  0.5945430000000  0.5015750000000 1.0
C      1  0.4710320000000  0.5949760000000  0.4496220000000 1.0
C      1  0.5298930000000  0.4061290000000  0.5498540000000 1.0
C      1  0.4412250000000  0.4062200000000  0.4998190000000 1.0
C      1  0.5288220000000  0.4061230000000  0.4478110000000 1.0
C      1  0.5300280000000  0.5949530000000  0.5515310000000 1.0
C      1  0.4412720000000  0.5945430000000  0.5015750000000 1.0
C      1  0.5289680000000  0.5949760000000  0.4496220000000 1.0
C      1  0.5257790000000  0.4750320000000  0.5975220000000 1.0
C      1  0.5717610000000  0.4750390000000  0.4289220000000 1.0
C      1  0.4025020000000  0.4752050000000  0.4735330000000 1.0
C      1  0.5257240000000  0.5257960000000  0.5976220000000 1.0
C      1  0.5715820000000  0.5258280000000  0.4288690000000 1.0
C      1  0.4026320000000  0.5259340000000  0.4734910000000 1.0
C      1  0.4742210000000  0.4750320000000  0.5975220000000 1.0
C      1  0.4282390000000  0.4750390000000  0.4289220000000 1.0
C      1  0.5974980000000  0.4752050000000  0.4735330000000 1.0
C      1  0.4742760000000  0.5257960000000  0.5976220000000 1.0
C      1  0.4284180000000  0.5258280000000  0.4288690000000 1.0
C      1  0.5973680000000  0.5259340000000  0.4734910000000 1.0
C      1  0.3853190000000  0.4642250000000  0.4507260000000 1.0
C      1  0.5145810000000  0.4637440000000  0.6236340000000 1.0
C      1  0.6001600000000  0.4642230000000  0.4254160000000 1.0
C      1  0.3855700000000  0.5371010000000  0.4507060000000 1.0
C      1  0.5145910000000  0.5365970000000  0.6239940000000 1.0
C      1  0.5998100000000  0.5370840000000  0.4254680000000 1.0
C      1  0.6146810000000  0.4642250000000  0.4507260000000 1.0
C      1  0.4854190000000  0.4637440000000  0.6236340000000 1.0
C      1  0.3998400000000  0.4642230000000  0.4254160000000 1.0
C      1  0.6144300000000  0.5371010000000  0.4507060000000 1.0
C      1  0.4854090000000  0.5365970000000  0.6239940000000 1.0
C      1  0.4001900000000  0.5370840000000  0.4254680000000 1.0
C      1  0.4714160000000  0.5289680000000  0.4010590000000 1.0
C      1  0.4292030000000  0.5295880000000  0.5736050000000 1.0
C      1  0.5995680000000  0.5297630000000  0.5245060000000 1.0
C      1  0.4716100000000  0.4710390000000  0.4019890000000 1.0
C      1  0.4287030000000  0.4716810000000  0.5742120000000 1.0
C      1  0.5996200000000  0.4718740000000  0.5246320000000 1.0
C      1  0.5285840000000  0.5289680000000  0.4010590000000 1.0
C      1  0.5707970000000  0.5295880000000  0.5736050000000 1.0
C      1  0.4004320000000  0.5297630000000  0.5245060000000 1.0
C      1  0.5283900000000  0.4710390000000  0.4019890000000 1.0
C      1  0.5712970000000  0.4716810000000  0.5742120000000 1.0
C      1  0.4003800000000  0.4718740000000  0.5246320000000 1.0
C      1  0.4696860000000  0.4874450000000  0.5493990000000 1.0
C      1  0.5573640000000  0.4864060000000  0.5020610000000 1.0
C      1  0.4727700000000  0.4844100000000  0.4502840000000 1.0
C      1  0.4701700000000  0.5163350000000  0.5481940000000 1.0
C      1  0.5573620000000  0.5152940000000  0.5011220000000 1.0
C      1  0.4727690000000  0.5132690000000  0.4487930000000 1.0
C      1  0.5303140000000  0.4874450000000  0.5493990000000 1.0
C      1  0.4426360000000  0.4864060000000  0.5020610000000 1.0
C      1  0.5272300000000  0.4844100000000  0.4502840000000 1.0
C      1  0.5298300000000  0.5163350000000  0.5481940000000 1.0
C      1  0.4426380000000  0.5152940000000  0.5011220000000 1.0
C      1  0.5272310000000  0.5132690000000  0.4487930000000 1.0
C      1  0.4281950000000  0.4782240000000  0.5255180000000 1.0
C      1  0.5579480000000  0.4786160000000  0.5498890000000 1.0
C      1  0.5141170000000  0.4745130000000  0.4265950000000 1.0
C      1  0.4286960000000  0.5250510000000  0.5245790000000 1.0
C      1  0.5570520000000  0.5254400000000  0.5488640000000 1.0
C      1  0.5140020000000  0.5212960000000  0.4243950000000 1.0
C      1  0.5718050000000  0.4782240000000  0.5255180000000 1.0
C      1  0.4420520000000  0.4786160000000  0.5498890000000 1.0
C      1  0.4858830000000  0.4745130000000  0.4265950000000 1.0
C      1  0.5713040000000  0.5250510000000  0.5245790000000 1.0
C      1  0.4429480000000  0.5254400000000  0.5488640000000 1.0
C      1  0.4859980000000  0.5212960000000  0.4243950000000 1.0
C      1  0.5724850000000  0.5450410000000  0.4756210000000 1.0
C      1  0.4428190000000  0.5448700000000  0.4494580000000 1.0
C      1  0.4848820000000  0.5451390000000  0.5753200000000 1.0
C      1  0.5726400000000  0.4560650000000  0.4756200000000 1.0
C      1  0.4421850000000  0.4556580000000  0.4492590000000 1.0
C      1  0.4848310000000  0.4559920000000  0.5747460000000 1.0
C      1  0.4275150000000  0.5450410000000  0.4756210000000 1.0
C      1  0.5571810000000  0.5448700000000  0.4494570000000 1.0
C      1  0.5151180000000  0.5451390000000  0.5753200000000 1.0
C      1  0.4273600000000  0.4560650000000  0.4756200000000 1.0
C      1  0.5578150000000  0.4556580000000  0.4492590000000 1.0
C      1  0.5151690000000  0.4559920000000  0.5747460000000 1.0
C      1  0.4682800000000  0.4729000000000  0.5007500000000 1.0
C      1  0.5155660000000  0.4732260000000  0.5288720000000 1.0
C      1  0.5160750000000  0.4723870000000  0.4741160000000 1.0
C      1  0.4683590000000  0.5282990000000  0.4983890000000 1.0
C      1  0.5154050000000  0.5285930000000  0.5262670000000 1.0
C      1  0.5162450000000  0.5277240000000  0.4714260000000 1.0
C      1  0.5317200000000  0.4729000000000  0.5007500000000 1.0
C      1  0.4844340000000  0.4732260000000  0.5288720000000 1.0
C      1  0.4839250000000  0.4723870000000  0.4741160000000 1.0
C      1  0.5316410000000  0.5282990000000  0.4983890000000 1.0
C      1  0.4845950000000  0.5285930000000  0.5262670000000 1.0
C      1  0.4837550000000  0.5277240000000  0.4714260000000 1.0
C      1  0.5180180000000  0.5780390000000  0.5753020000000 1.0
C      1  0.5556230000000  0.5781060000000  0.4479210000000 1.0
C      1  0.4264870000000  0.5778150000000  0.4791010000000 1.0
C      1  0.5179520000000  0.4229390000000  0.5739050000000 1.0
C      1  0.5555910000000  0.4229320000000  0.4463060000000 1.0
C      1  0.4265180000000  0.4229710000000  0.4775710000000 1.0
C      1  0.4819820000000  0.5780390000000  0.5753020000000 1.0
C      1  0.4443770000000  0.5781060000000  0.4479210000000 1.0
C      1  0.5735130000000  0.5778150000000  0.4791010000000 1.0
C      1  0.4820480000000  0.4229390000000  0.5739050000000 1.0
C      1  0.4444090000000  0.4229320000000  0.4463060000000 1.0
C      1  0.5734820000000  0.4229710000000  0.4775710000000 1.0
C      1  0.4179070000000  0.5005060000000  0.4526070000000 1.0
C      1  0.5820930000000  0.5005060000000  0.4526070000000 1.0
C      1  0.5000000000000  0.5003890000000  0.5947230000000 1.0
END
