TITL C-862503-991-591 1.7527081755864 125000 -723.625161646774 0 0 124 (C1) n - 1
REM
REM in /home/nfs/bkarasulu/CARBON/AIRSS/Generating-Clusters/TERSOFF/Higher-Symm/FIRE-HFTN
REM
REM
REM
REM
REM
REM ./C.cell (b20cbc046b6831c77cfcea5457e17084)
REM AIRSS Version 0.9.1 bugfix July 2018 build 013d7b7c2542+ Fri, 06 Jul 2018 19:26:36 +0100
REM compiler GCC version 9.2.1 20190827 (Red Hat 9.2.1-1)
REM options -cpp -mtune=generic -march=x86-64 -g -O0 -fpre-include=/usr/include/finclude/math-vector-fortran.h
REM seed 1328085557 501292912 1217578024 1421838304 1658550961 -1609643348 1884840557 -1129505775 -128757734 529839351 -1806983641 352415028 2130541277 -1657762939 1851496003 152098117 -235720538 796584839 1290444175 1139030844 1434973008 2097517899 -1612027182 1045099467 -804843365 -200264828 1206406166 -790950278 1030159806 759170153 1299012762 -129153529 -1847138425
REM
CELL 1.54180   50.00000   50.00000   50.00000   90.00000   90.00000   90.00000
LATT -1
SFAC C  
C      1  0.4564540000000  0.5131170000000  0.5741140000000 1.0
C      1  0.4567980000000  0.5130640000000  0.4205740000000 1.0
C      1  0.5834540000000  0.5153290000000  0.4993410000000 1.0
C      1  0.5232770000000  0.4963950000000  0.5974070000000 1.0
C      1  0.3977140000000  0.4947970000000  0.4749360000000 1.0
C      1  0.5713110000000  0.4950300000000  0.4286370000000 1.0
C      1  0.5866230000000  0.4716090000000  0.4384760000000 1.0
C      1  0.5094020000000  0.4720300000000  0.6070430000000 1.0
C      1  0.3985870000000  0.4708970000000  0.4572840000000 1.0
C      1  0.5535360000000  0.4333010000000  0.4453400000000 1.0
C      1  0.5218110000000  0.4336430000000  0.5761040000000 1.0
C      1  0.4236570000000  0.4347420000000  0.4825370000000 1.0
C      1  0.4499630000000  0.4212400000000  0.4831810000000 1.0
C      1  0.5404510000000  0.4180910000000  0.4674100000000 1.0
C      1  0.5101620000000  0.4173890000000  0.5539270000000 1.0
C      1  0.4325640000000  0.4707900000000  0.5434450000000 1.0
C      1  0.4953250000000  0.4722880000000  0.4152800000000 1.0
C      1  0.5704330000000  0.4742980000000  0.5371360000000 1.0
C      1  0.4838970000000  0.4922480000000  0.4865410000000 1.0
C      1  0.5178600000000  0.5000460000000  0.4927050000000 1.0
C      1  0.4953670000000  0.5010580000000  0.5196610000000 1.0
C      1  0.5139310000000  0.6090660000000  0.4764540000000 1.0
C      1  0.5279400000000  0.6032460000000  0.5239170000000 1.0
C      1  0.4800110000000  0.5983990000000  0.5112750000000 1.0
C      1  0.5528810000000  0.5015500000000  0.5979510000000 1.0
C      1  0.3839760000000  0.4974390000000  0.5017100000000 1.0
C      1  0.5575580000000  0.4975010000000  0.4020160000000 1.0
C      1  0.4391700000000  0.5589460000000  0.5525030000000 1.0
C      1  0.4861840000000  0.5576880000000  0.4213420000000 1.0
C      1  0.5716820000000  0.5628990000000  0.5226740000000 1.0
C      1  0.4935720000000  0.5918940000000  0.5598600000000 1.0
C      1  0.4646700000000  0.6061550000000  0.4634350000000 1.0
C      1  0.5628830000000  0.6161780000000  0.4889320000000 1.0
C      1  0.4581110000000  0.4062790000000  0.5071550000000 1.0
C      1  0.5134880000000  0.4071430000000  0.4623530000000 1.0
C      1  0.5287760000000  0.4047500000000  0.5346630000000 1.0
C      1  0.4597040000000  0.4653000000000  0.5369430000000 1.0
C      1  0.4857790000000  0.4673940000000  0.4411130000000 1.0
C      1  0.5511230000000  0.4672080000000  0.5176310000000 1.0
C      1  0.4521890000000  0.4613670000000  0.5793600000000 1.0
C      1  0.4515570000000  0.4608590000000  0.4176600000000 1.0
C      1  0.5918870000000  0.4637970000000  0.5025920000000 1.0
C      1  0.4097140000000  0.5603410000000  0.5406390000000 1.0
C      1  0.5122270000000  0.5604630000000  0.4036790000000 1.0
C      1  0.5674940000000  0.5639550000000  0.5538790000000 1.0
C      1  0.5439720000000  0.4828290000000  0.4949110000000 1.0
C      1  0.4817810000000  0.4827730000000  0.5417810000000 1.0
C      1  0.4734700000000  0.4861400000000  0.4582480000000 1.0
C      1  0.5334420000000  0.5265950000000  0.4802010000000 1.0
C      1  0.4956420000000  0.5282900000000  0.5394870000000 1.0
C      1  0.4656740000000  0.5227780000000  0.4771720000000 1.0
C      1  0.3804470000000  0.5248360000000  0.5135380000000 1.0
C      1  0.5503480000000  0.5250800000000  0.3916690000000 1.0
C      1  0.5627390000000  0.5298880000000  0.5945440000000 1.0
C      1  0.5721540000000  0.4787670000000  0.5968730000000 1.0
C      1  0.3774680000000  0.4733120000000  0.5182280000000 1.0
C      1  0.5480250000000  0.4730770000000  0.3876830000000 1.0
C      1  0.4265730000000  0.5015840000000  0.5046770000000 1.0
C      1  0.5303030000000  0.5026240000000  0.4335530000000 1.0
C      1  0.5377450000000  0.5049810000000  0.5589260000000 1.0
C      1  0.5831140000000  0.5334250000000  0.5226020000000 1.0
C      1  0.4351690000000  0.5297200000000  0.5630600000000 1.0
C      1  0.4775510000000  0.5303590000000  0.4086690000000 1.0
C      1  0.5108820000000  0.4958990000000  0.4125560000000 1.0
C      1  0.5650160000000  0.4987020000000  0.5511170000000 1.0
C      1  0.4214260000000  0.4948280000000  0.5325370000000 1.0
C      1  0.5766480000000  0.4251990000000  0.5376320000000 1.0
C      1  0.4315300000000  0.4218830000000  0.5486170000000 1.0
C      1  0.4921940000000  0.4239770000000  0.4177530000000 1.0
C      1  0.5465760000000  0.5692280000000  0.5068610000000 1.0
C      1  0.4572870000000  0.5616090000000  0.5284500000000 1.0
C      1  0.4969830000000  0.5535510000000  0.4492180000000 1.0
C      1  0.4678180000000  0.5974210000000  0.5721870000000 1.0
C      1  0.4685920000000  0.6044260000000  0.4347290000000 1.0
C      1  0.5865480000000  0.6091900000000  0.5043690000000 1.0
C      1  0.4468170000000  0.4525360000000  0.4459990000000 1.0
C      1  0.5722520000000  0.4508360000000  0.4846800000000 1.0
C      1  0.4779170000000  0.4491140000000  0.5718640000000 1.0
C      1  0.5352070000000  0.4485950000000  0.4299620000000 1.0
C      1  0.5424660000000  0.4511090000000  0.5672940000000 1.0
C      1  0.4191690000000  0.4514590000000  0.5049360000000 1.0
C      1  0.4831490000000  0.4313410000000  0.5444480000000 1.0
C      1  0.4703580000000  0.4371530000000  0.4656880000000 1.0
C      1  0.5468720000000  0.4323530000000  0.4947050000000 1.0
C      1  0.5585350000000  0.5083620000000  0.4864980000000 1.0
C      1  0.4796980000000  0.5083260000000  0.5579260000000 1.0
C      1  0.4565220000000  0.5086780000000  0.4493420000000 1.0
C      1  0.4481130000000  0.4884120000000  0.4068300000000 1.0
C      1  0.6012400000000  0.4917830000000  0.5000760000000 1.0
C      1  0.4489040000000  0.4890080000000  0.5892550000000 1.0
C      1  0.4830060000000  0.5472110000000  0.4746230000000 1.0
C      1  0.5266020000000  0.5505600000000  0.4963150000000 1.0
C      1  0.4847850000000  0.5515020000000  0.5247550000000 1.0
C      1  0.5923060000000  0.5827640000000  0.5147450000000 1.0
C      1  0.4456710000000  0.5786740000000  0.5734240000000 1.0
C      1  0.4671310000000  0.5799290000000  0.4192720000000 1.0
C      1  0.5003720000000  0.5978330000000  0.5321490000000 1.0
C      1  0.4859250000000  0.6042310000000  0.4833000000000 1.0
C      1  0.5354730000000  0.6092070000000  0.4962850000000 1.0
C      1  0.4947320000000  0.4488790000000  0.5206290000000 1.0
C      1  0.4858390000000  0.4569080000000  0.4862070000000 1.0
C      1  0.5195800000000  0.4487030000000  0.4970110000000 1.0
C      1  0.3943590000000  0.5345970000000  0.5377310000000 1.0
C      1  0.5225780000000  0.5358690000000  0.3898510000000 1.0
C      1  0.5761880000000  0.5403430000000  0.5701940000000 1.0
C      1  0.4131000000000  0.5159290000000  0.5499440000000 1.0
C      1  0.5010100000000  0.5171920000000  0.3964170000000 1.0
C      1  0.5827780000000  0.5209720000000  0.5492600000000 1.0
C      1  0.5689100000000  0.4547460000000  0.5799680000000 1.0
C      1  0.3957610000000  0.4504550000000  0.5226240000000 1.0
C      1  0.5342950000000  0.4502520000000  0.4005380000000 1.0
C      1  0.4423520000000  0.5244450000000  0.4957290000000 1.0
C      1  0.5291240000000  0.5265700000000  0.4505440000000 1.0
C      1  0.5231640000000  0.5288710000000  0.5507170000000 1.0
C      1  0.5517450000000  0.4186090000000  0.5215890000000 1.0
C      1  0.4579490000000  0.4171470000000  0.5346840000000 1.0
C      1  0.4915880000000  0.4217030000000  0.4483640000000 1.0
C      1  0.4195580000000  0.4500010000000  0.4580510000000 1.0
C      1  0.5754620000000  0.4498280000000  0.4550830000000 1.0
C      1  0.5014780000000  0.4492010000000  0.5899850000000 1.0
C      1  0.5815390000000  0.4513990000000  0.5519100000000 1.0
C      1  0.4153250000000  0.4471770000000  0.5465360000000 1.0
C      1  0.5037000000000  0.4476290000000  0.4022120000000 1.0
C      1  0.4976720000000  0.5554840000000  0.4987810000000 1.0
END
