TITL C-862133-5440-1229 -0.00102055716124562 125000 -660.094717842069 0 0 123 (C1) n - 1
REM
REM in /home/nfs/bkarasulu/CARBON/AIRSS/Generating-Clusters/TERSOFF/Higher-Symm/FIRE-HFTN
REM
REM
REM
REM
REM
REM ./C.cell (b20cbc046b6831c77cfcea5457e17084)
REM AIRSS Version 0.9.1 bugfix July 2018 build 013d7b7c2542+ Fri, 06 Jul 2018 19:26:36 +0100
REM compiler GCC version 9.2.1 20190827 (Red Hat 9.2.1-1)
REM options -cpp -mtune=generic -march=x86-64 -g -O0 -fpre-include=/usr/include/finclude/math-vector-fortran.h
REM seed 859680571 1966808350 -6400767 -1930899403 1540869882 1514297096 1307686121 358941971 531454712 1202583255 1491645769 -2035845527 -1125598564 -1387812634 -273770812 1108812057 -1054604131 2140553681 1160824897 873431358 -1516688125 -1139436760 1487660821 193689224 -1232758207 641399862 784364309 980091486 -40557941 -188974430 849561384 1203672976 1817618414
REM
CELL 1.54180   50.00000   50.00000   50.00000   90.00000   90.00000   90.00000
LATT -1
SFAC C  
C      1  0.4696250000000  0.4073800000000  0.4980520000000 1.0
C      1  0.4732310000000  0.4794030000000  0.4092330000000 1.0
C      1  0.4670570000000  0.5832640000000  0.4446800000000 1.0
C      1  0.4713110000000  0.5750100000000  0.5573430000000 1.0
C      1  0.4694250000000  0.4638340000000  0.5903210000000 1.0
C      1  0.4308040000000  0.5441940000000  0.4380280000000 1.0
C      1  0.4386680000000  0.5644870000000  0.5180820000000 1.0
C      1  0.4349450000000  0.5011550000000  0.5715750000000 1.0
C      1  0.4341260000000  0.4344040000000  0.5245500000000 1.0
C      1  0.4394590000000  0.4602140000000  0.4461000000000 1.0
C      1  0.5357820000000  0.5025350000000  0.4234770000000 1.0
C      1  0.5346690000000  0.5728380000000  0.4777390000000 1.0
C      1  0.5323560000000  0.5415520000000  0.5595760000000 1.0
C      1  0.5383120000000  0.4521290000000  0.5632890000000 1.0
C      1  0.5345760000000  0.4297940000000  0.4774930000000 1.0
C      1  0.5008730000000  0.4124660000000  0.5041420000000 1.0
C      1  0.5029510000000  0.4771500000000  0.4171480000000 1.0
C      1  0.5012280000000  0.5800310000000  0.4456340000000 1.0
C      1  0.5033040000000  0.5704460000000  0.5504450000000 1.0
C      1  0.5027070000000  0.4694240000000  0.5884620000000 1.0
C      1  0.5046750000000  0.6049590000000  0.5044620000000 1.0
C      1  0.5063070000000  0.5285400000000  0.6023850000000 1.0
C      1  0.5063350000000  0.4102440000000  0.5618190000000 1.0
C      1  0.5042070000000  0.4227080000000  0.4353140000000 1.0
C      1  0.5066910000000  0.5397320000000  0.3998690000000 1.0
C      1  0.5197600000000  0.5489400000000  0.5857480000000 1.0
C      1  0.5238790000000  0.4289310000000  0.5769830000000 1.0
C      1  0.5198430000000  0.4116510000000  0.4579610000000 1.0
C      1  0.5222280000000  0.5142450000000  0.3981970000000 1.0
C      1  0.5203750000000  0.5991540000000  0.4802110000000 1.0
C      1  0.5072890000000  0.4487710000000  0.4842020000000 1.0
C      1  0.5096530000000  0.5127500000000  0.4382620000000 1.0
C      1  0.5086610000000  0.5545550000000  0.4842650000000 1.0
C      1  0.5073630000000  0.5271210000000  0.5440930000000 1.0
C      1  0.5117640000000  0.4617090000000  0.5475880000000 1.0
C      1  0.5275470000000  0.5877760000000  0.5452150000000 1.0
C      1  0.5289400000000  0.4834320000000  0.5974740000000 1.0
C      1  0.5262920000000  0.4014770000000  0.5160770000000 1.0
C      1  0.5265160000000  0.4582620000000  0.4083780000000 1.0
C      1  0.5275010000000  0.5730630000000  0.4313630000000 1.0
C      1  0.4103900000000  0.5231530000000  0.4851300000000 1.0
C      1  0.4112920000000  0.5208400000000  0.5166760000000 1.0
C      1  0.4102710000000  0.4908970000000  0.5254290000000 1.0
C      1  0.4111100000000  0.4746580000000  0.4986060000000 1.0
C      1  0.4118650000000  0.4943850000000  0.4741760000000 1.0
C      1  0.5730180000000  0.4873840000000  0.5542760000000 1.0
C      1  0.5724740000000  0.4447090000000  0.5056720000000 1.0
C      1  0.5714710000000  0.4792690000000  0.4488620000000 1.0
C      1  0.5716940000000  0.5433440000000  0.4639670000000 1.0
C      1  0.5713320000000  0.5478070000000  0.5292510000000 1.0
C      1  0.5437650000000  0.5559720000000  0.4522670000000 1.0
C      1  0.5426780000000  0.5610990000000  0.5361400000000 1.0
C      1  0.5449520000000  0.4832390000000  0.5703540000000 1.0
C      1  0.5445620000000  0.4267530000000  0.5084980000000 1.0
C      1  0.5433310000000  0.4729080000000  0.4325010000000 1.0
C      1  0.4579250000000  0.5302290000000  0.5032680000000 1.0
C      1  0.4581590000000  0.5054160000000  0.5368830000000 1.0
C      1  0.4574270000000  0.4685030000000  0.5171790000000 1.0
C      1  0.4569110000000  0.4818930000000  0.4775140000000 1.0
C      1  0.4557630000000  0.5210120000000  0.4624740000000 1.0
C      1  0.5198670000000  0.4300570000000  0.4116920000000 1.0
C      1  0.5234440000000  0.5630470000000  0.4045290000000 1.0
C      1  0.5215980000000  0.6096970000000  0.5275160000000 1.0
C      1  0.5247560000000  0.5080800000000  0.6123220000000 1.0
C      1  0.5216150000000  0.3932510000000  0.5435600000000 1.0
C      1  0.4568350000000  0.5852030000000  0.5318750000000 1.0
C      1  0.4553520000000  0.4927790000000  0.5926840000000 1.0
C      1  0.4546190000000  0.4117240000000  0.5256080000000 1.0
C      1  0.4610420000000  0.4551500000000  0.4258620000000 1.0
C      1  0.4550010000000  0.5605350000000  0.4263950000000 1.0
C      1  0.4841040000000  0.5227900000000  0.4698620000000 1.0
C      1  0.4882740000000  0.5248220000000  0.5043190000000 1.0
C      1  0.4830710000000  0.4920260000000  0.5429740000000 1.0
C      1  0.4868470000000  0.4688230000000  0.5155490000000 1.0
C      1  0.4841180000000  0.4901410000000  0.4670390000000 1.0
C      1  0.4459430000000  0.5266460000000  0.5539070000000 1.0
C      1  0.4457790000000  0.4582360000000  0.5427650000000 1.0
C      1  0.4490270000000  0.4521480000000  0.4758580000000 1.0
C      1  0.4439720000000  0.5118970000000  0.4368600000000 1.0
C      1  0.4475020000000  0.5550640000000  0.4888900000000 1.0
C      1  0.4917430000000  0.4941240000000  0.5718620000000 1.0
C      1  0.4892300000000  0.4351460000000  0.5226370000000 1.0
C      1  0.4986670000000  0.4728180000000  0.4479720000000 1.0
C      1  0.4884510000000  0.5475330000000  0.4481280000000 1.0
C      1  0.4850870000000  0.5555560000000  0.5228270000000 1.0
C      1  0.5587470000000  0.4431310000000  0.4660180000000 1.0
C      1  0.5602340000000  0.5167380000000  0.4335970000000 1.0
C      1  0.5585690000000  0.5684200000000  0.4949910000000 1.0
C      1  0.5573060000000  0.5255320000000  0.5619740000000 1.0
C      1  0.5628810000000  0.4473910000000  0.5464470000000 1.0
C      1  0.5253670000000  0.4676220000000  0.4589760000000 1.0
C      1  0.5242520000000  0.5309960000000  0.4612580000000 1.0
C      1  0.5237560000000  0.5438280000000  0.5156760000000 1.0
C      1  0.5247830000000  0.4955970000000  0.5462610000000 1.0
C      1  0.5259610000000  0.4534170000000  0.5150410000000 1.0
C      1  0.4805250000000  0.5868520000000  0.5099300000000 1.0
C      1  0.4800720000000  0.5159650000000  0.5906190000000 1.0
C      1  0.4792200000000  0.4224620000000  0.5499220000000 1.0
C      1  0.4852400000000  0.4452880000000  0.4420900000000 1.0
C      1  0.4805300000000  0.5388230000000  0.4173530000000 1.0
C      1  0.4238170000000  0.5469700000000  0.4702770000000 1.0
C      1  0.4274240000000  0.5403850000000  0.5331610000000 1.0
C      1  0.4261540000000  0.4808070000000  0.5500740000000 1.0
C      1  0.4264990000000  0.4485450000000  0.4970470000000 1.0
C      1  0.4273460000000  0.4880720000000  0.4483330000000 1.0
C      1  0.5410880000000  0.4978030000000  0.5227640000000 1.0
C      1  0.5411980000000  0.4757100000000  0.5056500000000 1.0
C      1  0.5380640000000  0.4848310000000  0.4787200000000 1.0
C      1  0.5379600000000  0.5138720000000  0.4795020000000 1.0
C      1  0.5394340000000  0.5213260000000  0.5068480000000 1.0
C      1  0.4750350000000  0.5651010000000  0.4748360000000 1.0
C      1  0.4748020000000  0.5400380000000  0.5538600000000 1.0
C      1  0.4778800000000  0.4535090000000  0.5586400000000 1.0
C      1  0.4740470000000  0.4352230000000  0.4812940000000 1.0
C      1  0.4757860000000  0.5080360000000  0.4256170000000 1.0
C      1  0.5767950000000  0.5374370000000  0.4972470000000 1.0
C      1  0.5771380000000  0.5150860000000  0.5348550000000 1.0
C      1  0.5781020000000  0.4721110000000  0.5250490000000 1.0
C      1  0.5766450000000  0.4688510000000  0.4817120000000 1.0
C      1  0.5768140000000  0.5092030000000  0.4647170000000 1.0
C      1  0.4456240000000  0.4988950000000  0.5043240000000 1.0
C      1  0.4949860000000  0.4920680000000  0.4963520000000 1.0
C      1  0.5769520000000  0.5004970000000  0.5008110000000 1.0
END
