TITL C-862130-1496-482 -222.663293848612 125000 -356.451532348287 0 0 63 (C1) n - 1
REM
REM in /home/nfs/bkarasulu/CARBON/AIRSS/Generating-Clusters/TERSOFF/Higher-Symm/FIRE-HFTN
REM
REM
REM
REM
REM
REM ./C.cell (b20cbc046b6831c77cfcea5457e17084)
REM AIRSS Version 0.9.1 bugfix July 2018 build 013d7b7c2542+ Fri, 06 Jul 2018 19:26:36 +0100
REM compiler GCC version 9.2.1 20190827 (Red Hat 9.2.1-1)
REM options -cpp -mtune=generic -march=x86-64 -g -O0 -fpre-include=/usr/include/finclude/math-vector-fortran.h
REM seed 1933042127 -1049802031 270598529 -802518614 -128696956 1133775636 2132525321 1695585495 -427186546 1816486507 2087901877 1220846327 2096802492 -160014380 -1496136203 -1517228250 -1389283748 -1295731658 -1359528515 -914823035 731323932 -1623718643 692527650 -277630621 431807443 1069784184 1175443507 -1184670532 -574125169 1509548909 1775653061 -965458001 1756678446
REM
CELL 1.54180   50.00000   50.00000   50.00000   90.00000   90.00000   90.00000
LATT -1
SFAC C  
C      1  0.5545580000000  0.4900420000000  0.4502630000000 1.0
C      1  0.5527820000000  0.4569910000000  0.5287350000000 1.0
C      1  0.5569590000000  0.5414020000000  0.5181440000000 1.0
C      1  0.4826410000000  0.5449130000000  0.4426430000000 1.0
C      1  0.4768150000000  0.4293170000000  0.4886460000000 1.0
C      1  0.4819410000000  0.5267850000000  0.5660050000000 1.0
C      1  0.5372650000000  0.4555440000000  0.4822040000000 1.0
C      1  0.5388570000000  0.5030770000000  0.5428200000000 1.0
C      1  0.5401430000000  0.5318830000000  0.4719590000000 1.0
C      1  0.5147000000000  0.5457590000000  0.4789060000000 1.0
C      1  0.5105390000000  0.4578720000000  0.4692720000000 1.0
C      1  0.5117640000000  0.4927140000000  0.5492650000000 1.0
C      1  0.4873800000000  0.5649730000000  0.5173440000000 1.0
C      1  0.4829730000000  0.4843780000000  0.4353100000000 1.0
C      1  0.4807590000000  0.4525630000000  0.5459080000000 1.0
C      1  0.5566720000000  0.4773240000000  0.4761940000000 1.0
C      1  0.5562500000000  0.4855900000000  0.5262520000000 1.0
C      1  0.5581610000000  0.5248620000000  0.4944730000000 1.0
C      1  0.5024650000000  0.5606260000000  0.4564870000000 1.0
C      1  0.4957190000000  0.4324260000000  0.4670800000000 1.0
C      1  0.4994740000000  0.5050600000000  0.5730880000000 1.0
C      1  0.5126350000000  0.5609630000000  0.5039320000000 1.0
C      1  0.5080620000000  0.4738260000000  0.4448720000000 1.0
C      1  0.5070620000000  0.4638420000000  0.5490280000000 1.0
C      1  0.4584380000000  0.4860520000000  0.4512450000000 1.0
C      1  0.4572210000000  0.4675460000000  0.5368980000000 1.0
C      1  0.4622130000000  0.5517370000000  0.5098120000000 1.0
C      1  0.4931480000000  0.4697200000000  0.4911970000000 1.0
C      1  0.4929520000000  0.5053550000000  0.5290120000000 1.0
C      1  0.4928330000000  0.5247830000000  0.4806540000000 1.0
C      1  0.5411960000000  0.5154010000000  0.4471560000000 1.0
C      1  0.5384540000000  0.4420820000000  0.5087210000000 1.0
C      1  0.5426410000000  0.5325830000000  0.5414720000000 1.0
C      1  0.5263780000000  0.5515910000000  0.5573840000000 1.0
C      1  0.5240080000000  0.5207000000000  0.4235950000000 1.0
C      1  0.5195530000000  0.4205590000000  0.5165080000000 1.0
C      1  0.4423470000000  0.4579790000000  0.5136280000000 1.0
C      1  0.4468760000000  0.5373500000000  0.5301780000000 1.0
C      1  0.4452080000000  0.5119580000000  0.4544600000000 1.0
C      1  0.4970870000000  0.5508640000000  0.5596420000000 1.0
C      1  0.4950890000000  0.5256700000000  0.4246650000000 1.0
C      1  0.4902870000000  0.4219020000000  0.5134740000000 1.0
C      1  0.4463560000000  0.4615730000000  0.4629370000000 1.0
C      1  0.4475680000000  0.4912280000000  0.5521620000000 1.0
C      1  0.4514390000000  0.5543740000000  0.4822030000000 1.0
C      1  0.4583220000000  0.5188640000000  0.5497720000000 1.0
C      1  0.4590530000000  0.5373430000000  0.4590920000000 1.0
C      1  0.4544980000000  0.4490250000000  0.4885550000000 1.0
C      1  0.5971480000000  0.4944230000000  0.4994470000000 1.0
C      1  0.3629230000000  0.5024950000000  0.4966640000000 1.0
C      1  0.6911870000000  0.5080780000000  0.4993360000000 1.0
C      1  0.5672730000000  0.4955250000000  0.4990250000000 1.0
C      1  0.3889360000000  0.4958780000000  0.5074940000000 1.0
C      1  0.4621930000000  0.4981040000000  0.4913000000000 1.0
C      1  0.3116440000000  0.5016100000000  0.4978000000000 1.0
C      1  0.6143380000000  0.5158610000000  0.5085400000000 1.0
C      1  0.4134050000000  0.5101660000000  0.5015890000000 1.0
C      1  0.6424800000000  0.5129930000000  0.5146680000000 1.0
C      1  0.5237540000000  0.4984810000000  0.4914290000000 1.0
C      1  0.6640170000000  0.5174250000000  0.4958450000000 1.0
C      1  0.4932360000000  0.4998620000000  0.4998000000000 1.0
C      1  0.3376590000000  0.4947550000000  0.5084780000000 1.0
C      1  0.4398880000000  0.5015080000000  0.5094300000000 1.0
END
