TITL C-862127-1500-568 570143.137086818 125000 -1094.4081048651 0 0 195 (C1) n - 1
REM
REM in /home/nfs/bkarasulu/CARBON/AIRSS/Generating-Clusters/TERSOFF/Higher-Symm/FIRE-HFTN
REM
REM
REM
REM
REM
REM ./C.cell (b20cbc046b6831c77cfcea5457e17084)
REM AIRSS Version 0.9.1 bugfix July 2018 build 013d7b7c2542+ Fri, 06 Jul 2018 19:26:36 +0100
REM compiler GCC version 9.2.1 20190827 (Red Hat 9.2.1-1)
REM options -cpp -mtune=generic -march=x86-64 -g -O0 -fpre-include=/usr/include/finclude/math-vector-fortran.h
REM seed -1564098916 1959841037 -641718677 -260907187 -923810312 259426489 -1504362094 -1088332277 -82513262 -548797441 -484389803 -1614361572 167079014 -2046493918 52563189 834618114 -1629125795 1353184137 325094781 -1792292595 -1052481834 -1426683121 -1787994568 -694704066 -2061445682 -1186558876 1305538945 -1472290019 -2047373120 1404270324 137538336 2115458131 -479808792
REM
CELL 1.54180   50.00000   50.00000   50.00000   90.00000   90.00000   90.00000
LATT -1
SFAC C  
C      1  0.4384410000000  0.4768390000000  0.4768220000000 1.0
C      1  0.4398550000000  0.5243420000000  0.4773040000000 1.0
C      1  0.4307440000000  0.4771810000000  0.4494000000000 1.0
C      1  0.4317110000000  0.5249490000000  0.4500620000000 1.0
C      1  0.4010280000000  0.4862250000000  0.6031480000000 1.0
C      1  0.4010670000000  0.5154610000000  0.6034210000000 1.0
C      1  0.4915710000000  0.4298310000000  0.5257480000000 1.0
C      1  0.4918210000000  0.5723330000000  0.5259430000000 1.0
C      1  0.5506030000000  0.4044460000000  0.5490650000000 1.0
C      1  0.5508370000000  0.5971370000000  0.5494220000000 1.0
C      1  0.4802720000000  0.5967120000000  0.4653780000000 1.0
C      1  0.4796500000000  0.4056130000000  0.4649850000000 1.0
C      1  0.5301530000000  0.5434340000000  0.5808050000000 1.0
C      1  0.5301840000000  0.4583530000000  0.5806110000000 1.0
C      1  0.4592340000000  0.6018660000000  0.5337390000000 1.0
C      1  0.4589480000000  0.4002630000000  0.5334780000000 1.0
C      1  0.4575620000000  0.4693670000000  0.4152180000000 1.0
C      1  0.4576670000000  0.5331550000000  0.4154900000000 1.0
C      1  0.4298560000000  0.4280040000000  0.4651240000000 1.0
C      1  0.4302790000000  0.5751550000000  0.4653440000000 1.0
C      1  0.4131280000000  0.4723950000000  0.5785310000000 1.0
C      1  0.4131150000000  0.5296200000000  0.5790160000000 1.0
C      1  0.4718840000000  0.5239520000000  0.5452240000000 1.0
C      1  0.4715830000000  0.4779700000000  0.5456340000000 1.0
C      1  0.3889010000000  0.4442200000000  0.5395030000000 1.0
C      1  0.3899860000000  0.5581930000000  0.5396140000000 1.0
C      1  0.5313410000000  0.5281100000000  0.3976900000000 1.0
C      1  0.5312790000000  0.4742260000000  0.3975110000000 1.0
C      1  0.4879960000000  0.5683760000000  0.5716220000000 1.0
C      1  0.4879480000000  0.4335060000000  0.5714960000000 1.0
C      1  0.5240970000000  0.4076400000000  0.5601130000000 1.0
C      1  0.5243050000000  0.5941930000000  0.5604960000000 1.0
C      1  0.5737140000000  0.5449550000000  0.4200600000000 1.0
C      1  0.5735900000000  0.4572160000000  0.4198250000000 1.0
C      1  0.5020680000000  0.5309220000000  0.3964460000000 1.0
C      1  0.5019970000000  0.4714950000000  0.3962550000000 1.0
C      1  0.6169280000000  0.5331240000000  0.4718820000000 1.0
C      1  0.6166050000000  0.4687340000000  0.4719230000000 1.0
C      1  0.5499810000000  0.4592320000000  0.5055300000000 1.0
C      1  0.5499000000000  0.5420770000000  0.5060410000000 1.0
C      1  0.5203290000000  0.4705840000000  0.6061570000000 1.0
C      1  0.5202240000000  0.5310880000000  0.6062800000000 1.0
C      1  0.5345450000000  0.5258140000000  0.4394950000000 1.0
C      1  0.5343670000000  0.4761940000000  0.4393410000000 1.0
C      1  0.4903570000000  0.4586700000000  0.4516870000000 1.0
C      1  0.4905940000000  0.5435700000000  0.4519330000000 1.0
C      1  0.5357500000000  0.4084290000000  0.5004760000000 1.0
C      1  0.5360600000000  0.5935960000000  0.5008030000000 1.0
C      1  0.5072970000000  0.3915500000000  0.5108430000000 1.0
C      1  0.5076980000000  0.6105830000000  0.5112840000000 1.0
C      1  0.5835720000000  0.5723880000000  0.4777540000000 1.0
C      1  0.5832780000000  0.4293710000000  0.4771150000000 1.0
C      1  0.6345710000000  0.4755030000000  0.5379060000000 1.0
C      1  0.6346520000000  0.5262030000000  0.5378060000000 1.0
C      1  0.5566930000000  0.4161200000000  0.4733540000000 1.0
C      1  0.5571310000000  0.5858400000000  0.4738020000000 1.0
C      1  0.5947160000000  0.4702630000000  0.4043500000000 1.0
C      1  0.5947870000000  0.5319210000000  0.4045000000000 1.0
C      1  0.5150010000000  0.4325610000000  0.5063180000000 1.0
C      1  0.5152380000000  0.5695660000000  0.5065370000000 1.0
C      1  0.3940960000000  0.4715880000000  0.5538640000000 1.0
C      1  0.3943290000000  0.5306690000000  0.5540880000000 1.0
C      1  0.3863810000000  0.4759420000000  0.4963900000000 1.0
C      1  0.3865040000000  0.5258980000000  0.4958860000000 1.0
C      1  0.4774350000000  0.4278790000000  0.4861640000000 1.0
C      1  0.4777470000000  0.5743410000000  0.4864240000000 1.0
C      1  0.5197200000000  0.4584770000000  0.4931060000000 1.0
C      1  0.5199380000000  0.5436240000000  0.4934160000000 1.0
C      1  0.5174630000000  0.5493460000000  0.4444310000000 1.0
C      1  0.5171750000000  0.4527380000000  0.4441650000000 1.0
C      1  0.5117420000000  0.5775000000000  0.4093650000000 1.0
C      1  0.5114130000000  0.4247890000000  0.4089810000000 1.0
C      1  0.4102500000000  0.5420160000000  0.5011610000000 1.0
C      1  0.4097930000000  0.4595600000000  0.5021030000000 1.0
C      1  0.5476910000000  0.4132450000000  0.4460850000000 1.0
C      1  0.5482510000000  0.5886300000000  0.4464700000000 1.0
C      1  0.5573310000000  0.4117740000000  0.5218810000000 1.0
C      1  0.5574830000000  0.5897160000000  0.5222340000000 1.0
C      1  0.5487320000000  0.4676780000000  0.5342100000000 1.0
C      1  0.5488350000000  0.5333420000000  0.5345660000000 1.0
C      1  0.4998760000000  0.4025170000000  0.5424740000000 1.0
C      1  0.5001370000000  0.5995190000000  0.5428330000000 1.0
C      1  0.4909380000000  0.5571330000000  0.4064990000000 1.0
C      1  0.4907510000000  0.4452920000000  0.4061870000000 1.0
C      1  0.5906110000000  0.4565600000000  0.4670460000000 1.0
C      1  0.5909340000000  0.5453850000000  0.4672300000000 1.0
C      1  0.4561710000000  0.4237070000000  0.4497870000000 1.0
C      1  0.4567090000000  0.5790030000000  0.4501500000000 1.0
C      1  0.4597690000000  0.5803080000000  0.5113550000000 1.0
C      1  0.4595210000000  0.4219090000000  0.5111180000000 1.0
C      1  0.4452080000000  0.4403280000000  0.5306050000000 1.0
C      1  0.4454730000000  0.5614900000000  0.5305460000000 1.0
C      1  0.5726510000000  0.4721740000000  0.5513530000000 1.0
C      1  0.5728030000000  0.5292530000000  0.5517100000000 1.0
C      1  0.4304020000000  0.5793670000000  0.4956580000000 1.0
C      1  0.4300340000000  0.4232520000000  0.4953620000000 1.0
C      1  0.5225120000000  0.5793790000000  0.4372060000000 1.0
C      1  0.5220310000000  0.4226820000000  0.4368530000000 1.0
C      1  0.5174330000000  0.4291690000000  0.5801560000000 1.0
C      1  0.5174500000000  0.5726150000000  0.5804140000000 1.0
C      1  0.4377680000000  0.5501660000000  0.5822910000000 1.0
C      1  0.4376150000000  0.4516210000000  0.5820180000000 1.0
C      1  0.3659890000000  0.5340270000000  0.4770870000000 1.0
C      1  0.3659020000000  0.4677330000000  0.4775800000000 1.0
C      1  0.4036790000000  0.4319770000000  0.5126250000000 1.0
C      1  0.4044500000000  0.5693150000000  0.5124310000000 1.0
C      1  0.5599250000000  0.5360670000000  0.5789710000000 1.0
C      1  0.5599230000000  0.4655660000000  0.5786690000000 1.0
C      1  0.5750490000000  0.4707410000000  0.4466460000000 1.0
C      1  0.5752080000000  0.5313540000000  0.4468400000000 1.0
C      1  0.4059260000000  0.5625020000000  0.4520030000000 1.0
C      1  0.4051750000000  0.4402870000000  0.4517220000000 1.0
C      1  0.4700460000000  0.5552820000000  0.4322550000000 1.0
C      1  0.4697750000000  0.4471650000000  0.4319300000000 1.0
C      1  0.6182400000000  0.5505780000000  0.5362940000000 1.0
C      1  0.6182880000000  0.4510470000000  0.5362070000000 1.0
C      1  0.4605720000000  0.4763900000000  0.6233030000000 1.0
C      1  0.4607480000000  0.5253580000000  0.6235410000000 1.0
C      1  0.4550170000000  0.5497230000000  0.6071140000000 1.0
C      1  0.4548120000000  0.4520420000000  0.6068840000000 1.0
C      1  0.4469490000000  0.5683180000000  0.5594730000000 1.0
C      1  0.4467480000000  0.4334840000000  0.5593110000000 1.0
C      1  0.4857270000000  0.6153110000000  0.4910750000000 1.0
C      1  0.4852650000000  0.3868610000000  0.4906520000000 1.0
C      1  0.5889580000000  0.5511820000000  0.5378540000000 1.0
C      1  0.5889950000000  0.4502870000000  0.5375920000000 1.0
C      1  0.4356130000000  0.4649140000000  0.5194130000000 1.0
C      1  0.4362180000000  0.5369020000000  0.5187870000000 1.0
C      1  0.5482180000000  0.5494080000000  0.4075580000000 1.0
C      1  0.5481160000000  0.4528480000000  0.4072560000000 1.0
C      1  0.4895640000000  0.4540590000000  0.5483210000000 1.0
C      1  0.4896550000000  0.5480420000000  0.5482540000000 1.0
C      1  0.5715180000000  0.4370960000000  0.5166510000000 1.0
C      1  0.5712600000000  0.5642060000000  0.5170330000000 1.0
C      1  0.4698720000000  0.4081580000000  0.5624860000000 1.0
C      1  0.4700320000000  0.5938250000000  0.5626890000000 1.0
C      1  0.4899860000000  0.5481770000000  0.4806880000000 1.0
C      1  0.4897870000000  0.4539690000000  0.4804450000000 1.0
C      1  0.5735200000000  0.5295840000000  0.6036050000000 1.0
C      1  0.5737260000000  0.4718920000000  0.6032380000000 1.0
C      1  0.4594690000000  0.5167220000000  0.5188460000000 1.0
C      1  0.4587850000000  0.4850470000000  0.5197560000000 1.0
C      1  0.5030880000000  0.6007940000000  0.4469330000000 1.0
C      1  0.5023590000000  0.4014220000000  0.4464040000000 1.0
C      1  0.4021050000000  0.4706870000000  0.4443960000000 1.0
C      1  0.4033640000000  0.5322980000000  0.4454260000000 1.0
C      1  0.5140400000000  0.5331600000000  0.5570300000000 1.0
C      1  0.5140740000000  0.4688020000000  0.5569210000000 1.0
C      1  0.4145930000000  0.5019090000000  0.3869680000000 1.0
C      1  0.4137110000000  0.5019060000000  0.4159560000000 1.0
C      1  0.5992560000000  0.5010720000000  0.4107470000000 1.0
C      1  0.4231220000000  0.5010920000000  0.5689990000000 1.0
C      1  0.5190390000000  0.5010830000000  0.4273790000000 1.0
C      1  0.5113710000000  0.5008020000000  0.6094800000000 1.0
C      1  0.4996610000000  0.5009380000000  0.5795250000000 1.0
C      1  0.5946230000000  0.5010500000000  0.4872280000000 1.0
C      1  0.5558300000000  0.5006360000000  0.5092370000000 1.0
C      1  0.5867940000000  0.5004700000000  0.6446810000000 1.0
C      1  0.3607850000000  0.5027920000000  0.4220390000000 1.0
C      1  0.5162920000000  0.5010070000000  0.4828210000000 1.0
C      1  0.5423760000000  0.5008340000000  0.6252020000000 1.0
C      1  0.4869150000000  0.5007620000000  0.6273770000000 1.0
C      1  0.5407840000000  0.5008670000000  0.4632530000000 1.0
C      1  0.5749090000000  0.5006540000000  0.6163880000000 1.0
C      1  0.5259470000000  0.5008980000000  0.5142630000000 1.0
C      1  0.4910730000000  0.5011210000000  0.4379770000000 1.0
C      1  0.4323250000000  0.5006530000000  0.4911850000000 1.0
C      1  0.4898510000000  0.5010960000000  0.4681110000000 1.0
C      1  0.5744670000000  0.5011640000000  0.3843930000000 1.0
C      1  0.4267500000000  0.5022560000000  0.5405360000000 1.0
C      1  0.5826980000000  0.5010420000000  0.4393980000000 1.0
C      1  0.4483670000000  0.5009770000000  0.6109250000000 1.0
C      1  0.4356980000000  0.4898860000000  0.3710220000000 1.0
C      1  0.6403830000000  0.5007850000000  0.4939980000000 1.0
C      1  0.5176690000000  0.5009660000000  0.5480510000000 1.0
C      1  0.4667890000000  0.5011730000000  0.4188410000000 1.0
C      1  0.4839750000000  0.5012600000000  0.3877020000000 1.0
C      1  0.3836510000000  0.5011950000000  0.5420990000000 1.0
C      1  0.6039920000000  0.5008660000000  0.6003400000000 1.0
C      1  0.5655920000000  0.5004310000000  0.4811610000000 1.0
C      1  0.5436350000000  0.5011880000000  0.3879870000000 1.0
C      1  0.3523900000000  0.4883170000000  0.3984270000000 1.0
C      1  0.4723600000000  0.5010210000000  0.5663000000000 1.0
C      1  0.6245760000000  0.5009180000000  0.4339790000000 1.0
C      1  0.4376090000000  0.5012140000000  0.4337780000000 1.0
C      1  0.4482280000000  0.5011400000000  0.5825060000000 1.0
C      1  0.3848810000000  0.5010550000000  0.5111290000000 1.0
C      1  0.4149810000000  0.5010330000000  0.5141640000000 1.0
C      1  0.6213960000000  0.5008940000000  0.4667370000000 1.0
C      1  0.5769350000000  0.5007410000000  0.5356320000000 1.0
C      1  0.6289200000000  0.5008320000000  0.5230360000000 1.0
C      1  0.6004110000000  0.5009380000000  0.5154290000000 1.0
C      1  0.5151660000000  0.5012790000000  0.3697500000000 1.0
C      1  0.3875490000000  0.5020180000000  0.4333150000000 1.0
C      1  0.4621260000000  0.5013210000000  0.3671530000000 1.0
END
