TITL C-862501-1041-720 -0.0012523142742366 125000 -460.533943264196 0 0 75 (C1) n - 1
REM
REM in /home/nfs/bkarasulu/CARBON/AIRSS/Generating-Clusters/TERSOFF/Higher-Symm/FIRE-HFTN
REM
REM
REM
REM
REM
REM ./C.cell (b20cbc046b6831c77cfcea5457e17084)
REM AIRSS Version 0.9.1 bugfix July 2018 build 013d7b7c2542+ Fri, 06 Jul 2018 19:26:36 +0100
REM compiler GCC version 9.2.1 20190827 (Red Hat 9.2.1-1)
REM options -cpp -mtune=generic -march=x86-64 -g -O0 -fpre-include=/usr/include/finclude/math-vector-fortran.h
REM seed -1186393232 -908089137 -1107646402 -1746412873 -1548297700 2134173024 126059392 -1589535192 -1750806751 -190399171 248742213 9128635 -512447787 2054250775 100303156 522150348 -1846558726 -491686894 -1829699037 1044745984 388022717 -2022663059 -1332511204 -1630616058 182943559 820190257 2129509280 -1470234482 1047383239 -308617309 -1481442104 1184089427 1798009672
REM
CELL 1.54180   50.00000   50.00000   50.00000   90.00000   90.00000   90.00000
LATT -1
SFAC C  
C      1  0.4265840000000  0.5292220000000  0.4508650000000 1.0
C      1  0.4519610000000  0.4492620000000  0.4507590000000 1.0
C      1  0.5382460000000  0.4405200000000  0.4520410000000 1.0
C      1  0.5752060000000  0.5153690000000  0.4504880000000 1.0
C      1  0.5071280000000  0.5537550000000  0.4586890000000 1.0
C      1  0.4275580000000  0.4709930000000  0.4514170000000 1.0
C      1  0.4504130000000  0.5513850000000  0.4503120000000 1.0
C      1  0.5363880000000  0.5591980000000  0.4525590000000 1.0
C      1  0.5785610000000  0.4825550000000  0.4510240000000 1.0
C      1  0.5087410000000  0.4456170000000  0.4575850000000 1.0
C      1  0.5583640000000  0.4390040000000  0.5239310000000 1.0
C      1  0.5675390000000  0.5304150000000  0.5238150000000 1.0
C      1  0.4885080000000  0.5789700000000  0.5237600000000 1.0
C      1  0.4183910000000  0.5157230000000  0.5250040000000 1.0
C      1  0.4649000000000  0.4358570000000  0.5238630000000 1.0
C      1  0.5528030000000  0.5556680000000  0.5244070000000 1.0
C      1  0.5755990000000  0.4629820000000  0.5248340000000 1.0
C      1  0.4915020000000  0.4234310000000  0.5240890000000 1.0
C      1  0.4193840000000  0.4863000000000  0.5253580000000 1.0
C      1  0.4607220000000  0.5689720000000  0.5241180000000 1.0
C      1  0.5414610000000  0.4322900000000  0.5474280000000 1.0
C      1  0.5601580000000  0.5099210000000  0.5431130000000 1.0
C      1  0.5054530000000  0.5751470000000  0.5472860000000 1.0
C      1  0.4286400000000  0.5308060000000  0.5481880000000 1.0
C      1  0.4595320000000  0.4567730000000  0.5434310000000 1.0
C      1  0.5351400000000  0.5610460000000  0.5479060000000 1.0
C      1  0.5725890000000  0.4818580000000  0.5470600000000 1.0
C      1  0.5086920000000  0.4276680000000  0.5477340000000 1.0
C      1  0.4333380000000  0.4727210000000  0.5473430000000 1.0
C      1  0.4511890000000  0.5541230000000  0.5478530000000 1.0
C      1  0.4715330000000  0.4656910000000  0.4302370000000 1.0
C      1  0.5336190000000  0.4651510000000  0.4300090000000 1.0
C      1  0.5533240000000  0.5165220000000  0.4268140000000 1.0
C      1  0.4978240000000  0.5304280000000  0.4401010000000 1.0
C      1  0.4456470000000  0.5147490000000  0.4303630000000 1.0
C      1  0.4703010000000  0.5351010000000  0.4300240000000 1.0
C      1  0.5314920000000  0.5359350000000  0.4295390000000 1.0
C      1  0.5552260000000  0.4848710000000  0.4296490000000 1.0
C      1  0.4994250000000  0.4699250000000  0.4402070000000 1.0
C      1  0.4462090000000  0.4856740000000  0.4306700000000 1.0
C      1  0.4488600000000  0.5180990000000  0.5692850000000 1.0
C      1  0.4812750000000  0.4710040000000  0.5608570000000 1.0
C      1  0.5333790000000  0.4542470000000  0.5688740000000 1.0
C      1  0.5339870000000  0.5098020000000  0.5600610000000 1.0
C      1  0.4992130000000  0.5526060000000  0.5679400000000 1.0
C      1  0.4525070000000  0.4890410000000  0.5693170000000 1.0
C      1  0.4712570000000  0.5420630000000  0.5703220000000 1.0
C      1  0.5272180000000  0.5372870000000  0.5692940000000 1.0
C      1  0.5476190000000  0.4794440000000  0.5690790000000 1.0
C      1  0.5017950000000  0.4508790000000  0.5693510000000 1.0
C      1  0.5561980000000  0.5567000000000  0.4738940000000 1.0
C      1  0.4610360000000  0.5658630000000  0.4737600000000 1.0
C      1  0.4172610000000  0.4854860000000  0.4750660000000 1.0
C      1  0.4916020000000  0.4296510000000  0.4747370000000 1.0
C      1  0.5767330000000  0.4645600000000  0.4743970000000 1.0
C      1  0.5581820000000  0.4417710000000  0.4735110000000 1.0
C      1  0.4628480000000  0.4347430000000  0.4740110000000 1.0
C      1  0.4166280000000  0.5149980000000  0.4746990000000 1.0
C      1  0.4897850000000  0.5703600000000  0.4750130000000 1.0
C      1  0.5739390000000  0.5330560000000  0.4742700000000 1.0
C      1  0.4148770000000  0.4714480000000  0.5005040000000 1.0
C      1  0.5031660000000  0.4165720000000  0.4982780000000 1.0
C      1  0.5876610000000  0.4731270000000  0.5000640000000 1.0
C      1  0.5496750000000  0.5704780000000  0.4992490000000 1.0
C      1  0.4457210000000  0.5678570000000  0.4987600000000 1.0
C      1  0.4135450000000  0.5296360000000  0.4997820000000 1.0
C      1  0.5010250000000  0.5840650000000  0.4981730000000 1.0
C      1  0.5832060000000  0.5233080000000  0.5001670000000 1.0
C      1  0.5525550000000  0.4266720000000  0.4980880000000 1.0
C      1  0.4486060000000  0.4342190000000  0.4995270000000 1.0
C      1  0.5306180000000  0.4080520000000  0.4972210000000 1.0
C      1  0.4214630000000  0.4434940000000  0.5005330000000 1.0
C      1  0.4189480000000  0.5577430000000  0.4991900000000 1.0
C      1  0.5992400000000  0.4994480000000  0.5010370000000 1.0
C      1  0.5290820000000  0.5906220000000  0.4980300000000 1.0
END
