TITL C-862131-2149-1230 66.0426461162539 125000 -854.822286692879 0 0 164 (C1) n - 1
REM
REM in /home/nfs/bkarasulu/CARBON/AIRSS/Generating-Clusters/TERSOFF/Higher-Symm/FIRE-HFTN
REM
REM
REM
REM
REM
REM ./C.cell (b20cbc046b6831c77cfcea5457e17084)
REM AIRSS Version 0.9.1 bugfix July 2018 build 013d7b7c2542+ Fri, 06 Jul 2018 19:26:36 +0100
REM compiler GCC version 9.2.1 20190827 (Red Hat 9.2.1-1)
REM options -cpp -mtune=generic -march=x86-64 -g -O0 -fpre-include=/usr/include/finclude/math-vector-fortran.h
REM seed -1423297879 239968163 -2105300343 368207855 493593290 -1619940873 -414225100 -2091953733 1756023514 1173290549 1402369040 -925504691 -1156825496 -244786853 1258472705 -809625939 -599076129 -57516484 218935175 -1132649609 -1037904 -567697644 1380701621 1451729416 -234823294 -1607962190 -1606495015 1303484970 1399030534 1043751949 420802597 -982121615 596441605
REM
CELL 1.54180   50.00000   50.00000   50.00000   90.00000   90.00000   90.00000
LATT -1
SFAC C  
C      1  0.4823540000000  0.5281100000000  0.4624430000000 1.0
C      1  0.5375290000000  0.4479080000000  0.4824020000000 1.0
C      1  0.4611540000000  0.4795690000000  0.5281650000000 1.0
C      1  0.5139940000000  0.4689890000000  0.4472950000000 1.0
C      1  0.4843730000000  0.4804440000000  0.5513210000000 1.0
C      1  0.5152600000000  0.5436850000000  0.5550220000000 1.0
C      1  0.4710200000000  0.5493340000000  0.4894280000000 1.0
C      1  0.5281960000000  0.5425360000000  0.5214150000000 1.0
C      1  0.4645030000000  0.4501170000000  0.5140550000000 1.0
C      1  0.5439690000000  0.5141600000000  0.5178460000000 1.0
C      1  0.4506980000000  0.5104670000000  0.4601210000000 1.0
C      1  0.5421010000000  0.4767840000000  0.4638910000000 1.0
C      1  0.4846400000000  0.5433230000000  0.5553200000000 1.0
C      1  0.5356850000000  0.4500370000000  0.5125580000000 1.0
C      1  0.4581270000000  0.4792410000000  0.4672260000000 1.0
C      1  0.5139320000000  0.4831240000000  0.5487840000000 1.0
C      1  0.4823240000000  0.4689140000000  0.4484580000000 1.0
C      1  0.5186270000000  0.5280520000000  0.4619790000000 1.0
C      1  0.4712770000000  0.5419630000000  0.5223210000000 1.0
C      1  0.5290630000000  0.5497920000000  0.4890080000000 1.0
C      1  0.4653250000000  0.4501530000000  0.4838750000000 1.0
C      1  0.5497240000000  0.5095340000000  0.4601230000000 1.0
C      1  0.4563230000000  0.5128060000000  0.5188940000000 1.0
C      1  0.5376670000000  0.4811100000000  0.5253240000000 1.0
C      1  0.5269720000000  0.4009650000000  0.5254710000000 1.0
C      1  0.4063810000000  0.5275460000000  0.5253270000000 1.0
C      1  0.5262600000000  0.5327670000000  0.4055040000000 1.0
C      1  0.4715870000000  0.5949580000000  0.5264700000000 1.0
C      1  0.5293030000000  0.5990120000000  0.4711510000000 1.0
C      1  0.4738260000000  0.4017940000000  0.4735150000000 1.0
C      1  0.5906930000000  0.4752960000000  0.5261460000000 1.0
C      1  0.4061340000000  0.4719630000000  0.4721420000000 1.0
C      1  0.5997800000000  0.5243960000000  0.4661150000000 1.0
C      1  0.4720790000000  0.4765460000000  0.3990870000000 1.0
C      1  0.5262870000000  0.4764360000000  0.5978750000000 1.0
C      1  0.4721130000000  0.5352420000000  0.6059500000000 1.0
C      1  0.5277380000000  0.3995790000000  0.4718670000000 1.0
C      1  0.4006100000000  0.5256650000000  0.4672090000000 1.0
C      1  0.5276130000000  0.5347970000000  0.6054850000000 1.0
C      1  0.4700550000000  0.5987520000000  0.4716220000000 1.0
C      1  0.5279040000000  0.5951420000000  0.5261750000000 1.0
C      1  0.4731910000000  0.4019320000000  0.5274780000000 1.0
C      1  0.5941390000000  0.4712820000000  0.4715720000000 1.0
C      1  0.4080240000000  0.4753450000000  0.5271380000000 1.0
C      1  0.5938220000000  0.5276480000000  0.5247630000000 1.0
C      1  0.4708610000000  0.4771180000000  0.5999100000000 1.0
C      1  0.5292490000000  0.4745300000000  0.3988570000000 1.0
C      1  0.4767300000000  0.5332590000000  0.4068530000000 1.0
C      1  0.4868870000000  0.4280960000000  0.4784130000000 1.0
C      1  0.4323650000000  0.4761670000000  0.4847800000000 1.0
C      1  0.4776890000000  0.4880990000000  0.4261760000000 1.0
C      1  0.5139390000000  0.5746870000000  0.4806930000000 1.0
C      1  0.4859920000000  0.5698580000000  0.5228350000000 1.0
C      1  0.5149900000000  0.4271330000000  0.5187750000000 1.0
C      1  0.5732100000000  0.5181650000000  0.4777010000000 1.0
C      1  0.4303530000000  0.5195210000000  0.5063740000000 1.0
C      1  0.5659550000000  0.4790740000000  0.5108890000000 1.0
C      1  0.5218940000000  0.5157590000000  0.4293400000000 1.0
C      1  0.4786500000000  0.5238420000000  0.5792520000000 1.0
C      1  0.5227940000000  0.4952870000000  0.5743600000000 1.0
C      1  0.4853700000000  0.4284050000000  0.5219050000000 1.0
C      1  0.4333020000000  0.4781970000000  0.5129530000000 1.0
C      1  0.4759170000000  0.4948020000000  0.5759080000000 1.0
C      1  0.5135490000000  0.5699990000000  0.5223820000000 1.0
C      1  0.4858090000000  0.5746030000000  0.4811490000000 1.0
C      1  0.5167660000000  0.4265370000000  0.4768410000000 1.0
C      1  0.5699490000000  0.5205020000000  0.5056290000000 1.0
C      1  0.4269920000000  0.5172820000000  0.4783380000000 1.0
C      1  0.5678730000000  0.4768870000000  0.4827740000000 1.0
C      1  0.5211980000000  0.5240330000000  0.5786480000000 1.0
C      1  0.4800420000000  0.5162660000000  0.4306640000000 1.0
C      1  0.5195880000000  0.4876180000000  0.4247470000000 1.0
C      1  0.5588410000000  0.5900240000000  0.4597730000000 1.0
C      1  0.5902100000000  0.4532780000000  0.5540430000000 1.0
C      1  0.4567730000000  0.5629130000000  0.5984530000000 1.0
C      1  0.4462140000000  0.4039370000000  0.4504990000000 1.0
C      1  0.5541880000000  0.4038430000000  0.5432590000000 1.0
C      1  0.4440820000000  0.5915650000000  0.5439240000000 1.0
C      1  0.4128050000000  0.5414520000000  0.5580610000000 1.0
C      1  0.5929210000000  0.5434870000000  0.4384210000000 1.0
C      1  0.4060450000000  0.4502580000000  0.4434140000000 1.0
C      1  0.5399460000000  0.4441360000000  0.5895780000000 1.0
C      1  0.4548260000000  0.4452530000000  0.4039370000000 1.0
C      1  0.5421430000000  0.5607380000000  0.4081280000000 1.0
C      1  0.5554160000000  0.5918290000000  0.5441320000000 1.0
C      1  0.5930450000000  0.4528340000000  0.4447500000000 1.0
C      1  0.4581610000000  0.5606170000000  0.4085020000000 1.0
C      1  0.4449300000000  0.4054220000000  0.5457430000000 1.0
C      1  0.5562880000000  0.4029320000000  0.4546010000000 1.0
C      1  0.4406760000000  0.5897440000000  0.4600360000000 1.0
C      1  0.4074850000000  0.5410740000000  0.4393390000000 1.0
C      1  0.5864250000000  0.5410700000000  0.5574950000000 1.0
C      1  0.4071630000000  0.4545280000000  0.5545670000000 1.0
C      1  0.5457120000000  0.4433000000000  0.4068760000000 1.0
C      1  0.4560160000000  0.4459260000000  0.5921300000000 1.0
C      1  0.5425850000000  0.5625900000000  0.5980660000000 1.0
C      1  0.4423350000000  0.5557100000000  0.4845610000000 1.0
C      1  0.5573030000000  0.4724540000000  0.4347660000000 1.0
C      1  0.4772570000000  0.4506930000000  0.5562520000000 1.0
C      1  0.5659810000000  0.4350730000000  0.4797990000000 1.0
C      1  0.4365350000000  0.4368430000000  0.5192020000000 1.0
C      1  0.5572330000000  0.5524720000000  0.5296010000000 1.0
C      1  0.4382240000000  0.5135940000000  0.4313720000000 1.0
C      1  0.5475230000000  0.5155870000000  0.5471780000000 1.0
C      1  0.4433210000000  0.4753290000000  0.5581050000000 1.0
C      1  0.5209110000000  0.5727120000000  0.5635990000000 1.0
C      1  0.4713940000000  0.5537830000000  0.4477240000000 1.0
C      1  0.5170910000000  0.4407180000000  0.4374600000000 1.0
C      1  0.4423090000000  0.5519320000000  0.5301530000000 1.0
C      1  0.5545070000000  0.4750860000000  0.5557570000000 1.0
C      1  0.4752020000000  0.4410850000000  0.4403960000000 1.0
C      1  0.5634160000000  0.4385810000000  0.5215690000000 1.0
C      1  0.4387290000000  0.4353720000000  0.4772890000000 1.0
C      1  0.5578730000000  0.5564210000000  0.4849250000000 1.0
C      1  0.4518370000000  0.5152490000000  0.5482480000000 1.0
C      1  0.5636570000000  0.5139170000000  0.4327020000000 1.0
C      1  0.4413520000000  0.4726130000000  0.4400080000000 1.0
C      1  0.5286510000000  0.5540440000000  0.4472860000000 1.0
C      1  0.4789250000000  0.5724090000000  0.5641100000000 1.0
C      1  0.5187880000000  0.4535930000000  0.5508200000000 1.0
C      1  0.5933800000000  0.5099860000000  0.4271890000000 1.0
C      1  0.5145330000000  0.4379450000000  0.5741260000000 1.0
C      1  0.4291230000000  0.5772080000000  0.5204750000000 1.0
C      1  0.4125780000000  0.4803420000000  0.4315340000000 1.0
C      1  0.5830530000000  0.4858190000000  0.5660330000000 1.0
C      1  0.4267700000000  0.5146860000000  0.5607670000000 1.0
C      1  0.4834360000000  0.5826030000000  0.5927100000000 1.0
C      1  0.5151710000000  0.5691420000000  0.4250050000000 1.0
C      1  0.4815680000000  0.4293150000000  0.4133710000000 1.0
C      1  0.5725890000000  0.4099830000000  0.5169510000000 1.0
C      1  0.4331090000000  0.4055810000000  0.4830420000000 1.0
C      1  0.5709120000000  0.5834960000000  0.4894770000000 1.0
C      1  0.5721390000000  0.5144140000000  0.5604400000000 1.0
C      1  0.5132830000000  0.4314690000000  0.4082430000000 1.0
C      1  0.4288000000000  0.5823750000000  0.4896400000000 1.0
C      1  0.4147380000000  0.4867160000000  0.5669660000000 1.0
C      1  0.5859260000000  0.4786710000000  0.4276270000000 1.0
C      1  0.4088620000000  0.5119120000000  0.4246010000000 1.0
C      1  0.4847410000000  0.5698010000000  0.4259180000000 1.0
C      1  0.5165340000000  0.5827270000000  0.5922430000000 1.0
C      1  0.4848910000000  0.4343040000000  0.5820080000000 1.0
C      1  0.5724130000000  0.4053030000000  0.4847670000000 1.0
C      1  0.4302810000000  0.4073490000000  0.5155200000000 1.0
C      1  0.5704330000000  0.5779020000000  0.5203560000000 1.0
C      1  0.6086890000000  0.4992990000000  0.5156520000000 1.0
C      1  0.3908930000000  0.4996750000000  0.5162360000000 1.0
C      1  0.6111080000000  0.4968060000000  0.4814570000000 1.0
C      1  0.3892350000000  0.4975280000000  0.4820990000000 1.0
C      1  0.5169280000000  0.6116120000000  0.5004790000000 1.0
C      1  0.4999050000000  0.5208330000000  0.6174530000000 1.0
C      1  0.4832390000000  0.3858460000000  0.5001340000000 1.0
C      1  0.5169360000000  0.3847650000000  0.4993720000000 1.0
C      1  0.4822800000000  0.6115890000000  0.5007250000000 1.0
C      1  0.4993840000000  0.4870480000000  0.6137440000000 1.0
C      1  0.5001990000000  0.4895690000000  0.3860710000000 1.0
C      1  0.5008550000000  0.5246600000000  0.3883430000000 1.0
C      1  0.4334250000000  0.5655360000000  0.4343270000000 1.0
C      1  0.5658080000000  0.4313740000000  0.4344900000000 1.0
C      1  0.4351440000000  0.4343270000000  0.5650410000000 1.0
C      1  0.4362350000000  0.5667130000000  0.5689690000000 1.0
C      1  0.5624460000000  0.4324460000000  0.5637920000000 1.0
C      1  0.5666320000000  0.5659630000000  0.4340790000000 1.0
C      1  0.5632800000000  0.5664970000000  0.5686980000000 1.0
C      1  0.4347550000000  0.4321260000000  0.4311470000000 1.0
END
