TITL C-862131-2149-540 442.066353902674 125000 -214.709708935454 0 0 38 (Cs) n - 1
REM
REM in /home/nfs/bkarasulu/CARBON/AIRSS/Generating-Clusters/TERSOFF/Higher-Symm/FIRE-HFTN
REM
REM
REM
REM
REM
REM ./C.cell (b20cbc046b6831c77cfcea5457e17084)
REM AIRSS Version 0.9.1 bugfix July 2018 build 013d7b7c2542+ Fri, 06 Jul 2018 19:26:36 +0100
REM compiler GCC version 9.2.1 20190827 (Red Hat 9.2.1-1)
REM options -cpp -mtune=generic -march=x86-64 -g -O0 -fpre-include=/usr/include/finclude/math-vector-fortran.h
REM seed 1655217716 -1868713414 -268021488 -467929321 2066294879 -355389746 -1163420155 2017456842 1120500388 -951678246 -840081536 912242890 1716374158 83224143 -841595831 -596997106 -1487057551 765653417 -394121666 -769822899 -389199075 -786677401 -1081040395 1617188956 156917512 235587669 133201487 -681189796 1007273243 226084620 1622203454 1898824391 1229218754
REM
CELL 1.54180   50.00000   50.00000   50.00000   90.00000   90.00000   90.00000
LATT -1
SFAC C  
C      1  0.4857230000000  0.4325220000000  0.5217330000000 1.0
C      1  0.4763100000000  0.4315520000000  0.4927130000000 1.0
C      1  0.5010320000000  0.4315260000000  0.4747520000000 1.0
C      1  0.5257260000000  0.4324830000000  0.4926720000000 1.0
C      1  0.5162730000000  0.4330780000000  0.5217190000000 1.0
C      1  0.5162740000000  0.5714270000000  0.5217180000000 1.0
C      1  0.5257270000000  0.5720210000000  0.4926710000000 1.0
C      1  0.5010340000000  0.5729780000000  0.4747510000000 1.0
C      1  0.4763110000000  0.5729520000000  0.4927120000000 1.0
C      1  0.4857240000000  0.5719830000000  0.5217320000000 1.0
C      1  0.4756580000000  0.4585740000000  0.5341680000000 1.0
C      1  0.4604390000000  0.4570100000000  0.4870130000000 1.0
C      1  0.5005510000000  0.4569660000000  0.4578710000000 1.0
C      1  0.5406920000000  0.4585110000000  0.4869180000000 1.0
C      1  0.5253640000000  0.4594570000000  0.5341950000000 1.0
C      1  0.5253640000000  0.5450480000000  0.5341940000000 1.0
C      1  0.5406930000000  0.5459920000000  0.4869170000000 1.0
C      1  0.5005520000000  0.5475380000000  0.4578700000000 1.0
C      1  0.4604390000000  0.5474950000000  0.4870130000000 1.0
C      1  0.4756590000000  0.5459320000000  0.5341670000000 1.0
C      1  0.5261520000000  0.5314330000000  0.4636250000000 1.0
C      1  0.5424290000000  0.5299260000000  0.5131850000000 1.0
C      1  0.5001350000000  0.5298970000000  0.5439210000000 1.0
C      1  0.4580180000000  0.5313610000000  0.5131250000000 1.0
C      1  0.4743000000000  0.5325130000000  0.4638830000000 1.0
C      1  0.4743000000000  0.4719910000000  0.4638840000000 1.0
C      1  0.4580180000000  0.4731450000000  0.5131250000000 1.0
C      1  0.5001340000000  0.4746080000000  0.5439210000000 1.0
C      1  0.5424280000000  0.4745780000000  0.5131860000000 1.0
C      1  0.5261520000000  0.4730710000000  0.4636260000000 1.0
C      1  0.5195890000000  0.5022520000000  0.4689770000000 1.0
C      1  0.5327100000000  0.5022520000000  0.5086490000000 1.0
C      1  0.4652550000000  0.5022530000000  0.5084670000000 1.0
C      1  0.4778190000000  0.5022520000000  0.4686290000000 1.0
C      1  0.4989090000000  0.5022520000000  0.5332350000000 1.0
C      1  0.4989480000000  0.5346800000000  0.4978210000000 1.0
C      1  0.4989480000000  0.4698250000000  0.4978220000000 1.0
C      1  0.4989860000000  0.5022520000000  0.4977780000000 1.0
END
