TITL C-862506-1665-1400 0.0196372347933149 125000 -735.518769955546 0 0 127 (C1) n - 1
REM
REM in /home/nfs/bkarasulu/CARBON/AIRSS/Generating-Clusters/TERSOFF/Higher-Symm/FIRE-HFTN
REM
REM
REM
REM
REM
REM ./C.cell (b20cbc046b6831c77cfcea5457e17084)
REM AIRSS Version 0.9.1 bugfix July 2018 build 013d7b7c2542+ Fri, 06 Jul 2018 19:26:36 +0100
REM compiler GCC version 9.2.1 20190827 (Red Hat 9.2.1-1)
REM options -cpp -mtune=generic -march=x86-64 -g -O0 -fpre-include=/usr/include/finclude/math-vector-fortran.h
REM seed -903271159 1257126716 -795011173 893901466 124357132 682368866 1955985116 -1933742369 -1317181777 -2139956258 -461287768 462206955 -472944216 -458900915 534963587 -1901079240 -626951107 -1639744915 -909239462 -1216192869 -96414818 -1768329420 -1383006386 224487423 -1409206905 -1107763222 992322130 -60959646 830803604 1986812013 1792125657 -1011150500 1681098240
REM
CELL 1.54180   50.00000   50.00000   50.00000   90.00000   90.00000   90.00000
LATT -1
SFAC C  
C      1  0.4281120000000  0.4140930000000  0.4731570000000 1.0
C      1  0.4273520000000  0.5857890000000  0.5273120000000 1.0
C      1  0.5733470000000  0.4135750000000  0.4730060000000 1.0
C      1  0.5731140000000  0.5856610000000  0.5264080000000 1.0
C      1  0.4857910000000  0.4349480000000  0.4592750000000 1.0
C      1  0.4841520000000  0.5675060000000  0.5418130000000 1.0
C      1  0.5169870000000  0.4319660000000  0.4588370000000 1.0
C      1  0.5157740000000  0.5671180000000  0.5414000000000 1.0
C      1  0.5631850000000  0.4862090000000  0.5078720000000 1.0
C      1  0.5641630000000  0.5117780000000  0.4926750000000 1.0
C      1  0.4376280000000  0.4866820000000  0.5077910000000 1.0
C      1  0.4350310000000  0.5125150000000  0.4933650000000 1.0
C      1  0.5242690000000  0.5399810000000  0.5309120000000 1.0
C      1  0.5261150000000  0.4581460000000  0.4696490000000 1.0
C      1  0.4752020000000  0.5407840000000  0.5309090000000 1.0
C      1  0.4775330000000  0.4637020000000  0.4674690000000 1.0
C      1  0.4845430000000  0.5271800000000  0.5893760000000 1.0
C      1  0.4848710000000  0.4736080000000  0.4103760000000 1.0
C      1  0.5162480000000  0.5272710000000  0.5894050000000 1.0
C      1  0.5164440000000  0.4733660000000  0.4114330000000 1.0
C      1  0.5640480000000  0.4194160000000  0.5015060000000 1.0
C      1  0.5638890000000  0.5794950000000  0.4979180000000 1.0
C      1  0.4369210000000  0.4199580000000  0.5018810000000 1.0
C      1  0.4362330000000  0.5795680000000  0.4986230000000 1.0
C      1  0.5317200000000  0.4498700000000  0.5446670000000 1.0
C      1  0.5313490000000  0.5503430000000  0.4540520000000 1.0
C      1  0.4697950000000  0.4497770000000  0.5452270000000 1.0
C      1  0.4693560000000  0.5522800000000  0.4526460000000 1.0
C      1  0.4247980000000  0.5372920000000  0.5370710000000 1.0
C      1  0.4264820000000  0.4623760000000  0.4639950000000 1.0
C      1  0.5749040000000  0.5373910000000  0.5360070000000 1.0
C      1  0.5762850000000  0.4618190000000  0.4646350000000 1.0
C      1  0.4254200000000  0.5132630000000  0.4632800000000 1.0
C      1  0.4262750000000  0.4860850000000  0.5367190000000 1.0
C      1  0.5743330000000  0.5121980000000  0.4630860000000 1.0
C      1  0.5744400000000  0.4864810000000  0.5368750000000 1.0
C      1  0.4340280000000  0.4504610000000  0.4173810000000 1.0
C      1  0.4333730000000  0.5488730000000  0.5830730000000 1.0
C      1  0.5675990000000  0.4515430000000  0.4178420000000 1.0
C      1  0.5673530000000  0.5492320000000  0.5822790000000 1.0
C      1  0.4783810000000  0.5383860000000  0.5030230000000 1.0
C      1  0.4878260000000  0.4763880000000  0.4922390000000 1.0
C      1  0.5202470000000  0.5358440000000  0.5031150000000 1.0
C      1  0.5159310000000  0.4666940000000  0.4948400000000 1.0
C      1  0.5803660000000  0.4410110000000  0.5147480000000 1.0
C      1  0.5797440000000  0.5571450000000  0.4857760000000 1.0
C      1  0.4204550000000  0.4416250000000  0.5141590000000 1.0
C      1  0.4199300000000  0.5574840000000  0.4866630000000 1.0
C      1  0.5230470000000  0.5886850000000  0.5214040000000 1.0
C      1  0.5234810000000  0.4102450000000  0.4782710000000 1.0
C      1  0.4772330000000  0.5891310000000  0.5216420000000 1.0
C      1  0.4774950000000  0.4130460000000  0.4781670000000 1.0
C      1  0.4261740000000  0.5526660000000  0.4317710000000 1.0
C      1  0.4267470000000  0.4479640000000  0.5687990000000 1.0
C      1  0.5739760000000  0.5513000000000  0.4311590000000 1.0
C      1  0.5742570000000  0.4482750000000  0.5693140000000 1.0
C      1  0.4099140000000  0.4876540000000  0.4561160000000 1.0
C      1  0.4102370000000  0.5108910000000  0.5448110000000 1.0
C      1  0.5912650000000  0.4876620000000  0.4566040000000 1.0
C      1  0.5904700000000  0.5116560000000  0.5438550000000 1.0
C      1  0.4671450000000  0.4202520000000  0.5036740000000 1.0
C      1  0.4665990000000  0.5812350000000  0.4957640000000 1.0
C      1  0.5337600000000  0.4183420000000  0.5040210000000 1.0
C      1  0.5336310000000  0.5807950000000  0.4956930000000 1.0
C      1  0.5356620000000  0.4501650000000  0.4122460000000 1.0
C      1  0.5354780000000  0.5504290000000  0.5879470000000 1.0
C      1  0.4660820000000  0.4501410000000  0.4121260000000 1.0
C      1  0.4652650000000  0.5502680000000  0.5884160000000 1.0
C      1  0.4744560000000  0.4781270000000  0.5556680000000 1.0
C      1  0.4735140000000  0.5233250000000  0.4420730000000 1.0
C      1  0.5265340000000  0.4779330000000  0.5559390000000 1.0
C      1  0.5261490000000  0.5220610000000  0.4424140000000 1.0
C      1  0.4609730000000  0.5246500000000  0.4855370000000 1.0
C      1  0.4666850000000  0.4773190000000  0.5128210000000 1.0
C      1  0.5362450000000  0.5194200000000  0.4867650000000 1.0
C      1  0.5340900000000  0.4783340000000  0.5138760000000 1.0
C      1  0.4860840000000  0.4489760000000  0.5938500000000 1.0
C      1  0.4857500000000  0.5515470000000  0.4034780000000 1.0
C      1  0.5143910000000  0.4488950000000  0.5939800000000 1.0
C      1  0.5142610000000  0.5513930000000  0.4040050000000 1.0
C      1  0.5700900000000  0.5655740000000  0.5510060000000 1.0
C      1  0.5708040000000  0.4340980000000  0.4485830000000 1.0
C      1  0.4301600000000  0.5655240000000  0.5519970000000 1.0
C      1  0.4314320000000  0.4345360000000  0.4489650000000 1.0
C      1  0.4842350000000  0.5675980000000  0.4734800000000 1.0
C      1  0.4843260000000  0.4359560000000  0.5236250000000 1.0
C      1  0.5163360000000  0.5662340000000  0.4744080000000 1.0
C      1  0.5166660000000  0.4355280000000  0.5235090000000 1.0
C      1  0.4701140000000  0.4727920000000  0.5861480000000 1.0
C      1  0.4691010000000  0.5283550000000  0.4117960000000 1.0
C      1  0.5305060000000  0.4725970000000  0.5864080000000 1.0
C      1  0.5304490000000  0.5277880000000  0.4121630000000 1.0
C      1  0.4194240000000  0.5422680000000  0.4584940000000 1.0
C      1  0.4199410000000  0.4574900000000  0.5419570000000 1.0
C      1  0.5802480000000  0.5411830000000  0.4579980000000 1.0
C      1  0.5807560000000  0.4577290000000  0.5423620000000 1.0
C      1  0.4827320000000  0.4967860000000  0.6009340000000 1.0
C      1  0.4815600000000  0.5035420000000  0.3976340000000 1.0
C      1  0.5178280000000  0.4967360000000  0.6010060000000 1.0
C      1  0.5175070000000  0.5032370000000  0.3983030000000 1.0
C      1  0.4640080000000  0.5698300000000  0.5635900000000 1.0
C      1  0.4654580000000  0.4314610000000  0.4375950000000 1.0
C      1  0.5363080000000  0.5696520000000  0.5628700000000 1.0
C      1  0.5369670000000  0.4301500000000  0.4368440000000 1.0
C      1  0.4849630000000  0.3854140000000  0.4726910000000 1.0
C      1  0.4860930000000  0.6165450000000  0.5262430000000 1.0
C      1  0.5134730000000  0.3832310000000  0.4737510000000 1.0
C      1  0.5147000000000  0.6162290000000  0.5261400000000 1.0
C      1  0.5594490000000  0.4644000000000  0.5892850000000 1.0
C      1  0.5595990000000  0.5356530000000  0.4103980000000 1.0
C      1  0.4412080000000  0.4643580000000  0.5888080000000 1.0
C      1  0.4399790000000  0.5368370000000  0.4105930000000 1.0
C      1  0.4537360000000  0.4751790000000  0.4557660000000 1.0
C      1  0.4533590000000  0.5262550000000  0.5435970000000 1.0
C      1  0.5480470000000  0.4724930000000  0.4570210000000 1.0
C      1  0.5468200000000  0.5262210000000  0.5435880000000 1.0
C      1  0.5769410000000  0.4636450000000  0.4951270000000 1.0
C      1  0.5772440000000  0.5347240000000  0.5056020000000 1.0
C      1  0.4242400000000  0.4641720000000  0.4945280000000 1.0
C      1  0.4210280000000  0.5349290000000  0.5066840000000 1.0
C      1  0.5486220000000  0.5022920000000  0.4504750000000 1.0
C      1  0.5487770000000  0.4967720000000  0.5486310000000 1.0
C      1  0.4510430000000  0.5042320000000  0.4502110000000 1.0
C      1  0.4523090000000  0.4965650000000  0.5472720000000 1.0
C      1  0.4996010000000  0.5104070000000  0.4473070000000 1.0
C      1  0.5005690000000  0.4894430000000  0.5484990000000 1.0
C      1  0.4973000000000  0.5038120000000  0.4885900000000 1.0
END
