TITL C-862501-1041-386 -0.0030682730685329 125000 -810.108818435022 0 0 141 (C2) n - 1
REM
REM in /home/nfs/bkarasulu/CARBON/AIRSS/Generating-Clusters/TERSOFF/Higher-Symm/FIRE-HFTN
REM
REM
REM
REM
REM
REM ./C.cell (b20cbc046b6831c77cfcea5457e17084)
REM AIRSS Version 0.9.1 bugfix July 2018 build 013d7b7c2542+ Fri, 06 Jul 2018 19:26:36 +0100
REM compiler GCC version 9.2.1 20190827 (Red Hat 9.2.1-1)
REM options -cpp -mtune=generic -march=x86-64 -g -O0 -fpre-include=/usr/include/finclude/math-vector-fortran.h
REM seed 819366405 -766813099 704286709 1167599338 1660225534 50917200 1267054942 -387378132 -1898564124 1932054067 -1881909095 -1890631328 -367583430 -173467809 -272672153 -785675961 -1402601511 -321197149 1324820197 -1793223410 788805599 -2067626058 -1961192475 -1576215704 -1467888073 -2122131034 -670808902 409883031 -1293987530 -1765034287 -92944604 671539084 -597168415
REM
CELL 1.54180   50.00000   50.00000   50.00000   90.00000   90.00000   90.00000
LATT -1
SFAC C  
C      1  0.4522570000000  0.4368200000000  0.5622880000000 1.0
C      1  0.5473770000000  0.4368190000000  0.4373390000000 1.0
C      1  0.4599620000000  0.5699690000000  0.5637690000000 1.0
C      1  0.5396690000000  0.5699680000000  0.4358560000000 1.0
C      1  0.4001210000000  0.5226620000000  0.5017500000000 1.0
C      1  0.5995110000000  0.5226640000000  0.4978760000000 1.0
C      1  0.3931120000000  0.4705790000000  0.4884850000000 1.0
C      1  0.6065200000000  0.4705800000000  0.5111410000000 1.0
C      1  0.6105500000000  0.5027390000000  0.4375040000000 1.0
C      1  0.3890820000000  0.5027390000000  0.5621220000000 1.0
C      1  0.6059420000000  0.4742470000000  0.4398790000000 1.0
C      1  0.3936910000000  0.4742460000000  0.5597470000000 1.0
C      1  0.4773760000000  0.5476860000000  0.4829810000000 1.0
C      1  0.5222550000000  0.5476870000000  0.5166440000000 1.0
C      1  0.4845660000000  0.4487570000000  0.4688170000000 1.0
C      1  0.5150670000000  0.4487570000000  0.5308100000000 1.0
C      1  0.5102730000000  0.4743890000000  0.4086510000000 1.0
C      1  0.4893600000000  0.4743900000000  0.5909760000000 1.0
C      1  0.5101220000000  0.5335270000000  0.4078460000000 1.0
C      1  0.4895100000000  0.5335290000000  0.5917800000000 1.0
C      1  0.4890200000000  0.5211970000000  0.4768210000000 1.0
C      1  0.5106120000000  0.5211970000000  0.5228050000000 1.0
C      1  0.4924730000000  0.4768880000000  0.4708790000000 1.0
C      1  0.5071600000000  0.4768890000000  0.5287480000000 1.0
C      1  0.4420200000000  0.4762360000000  0.5989240000000 1.0
C      1  0.5576120000000  0.4762350000000  0.4007020000000 1.0
C      1  0.4403120000000  0.5285690000000  0.5934260000000 1.0
C      1  0.5593200000000  0.5285690000000  0.4061990000000 1.0
C      1  0.4637760000000  0.5843440000000  0.5092500000000 1.0
C      1  0.5358550000000  0.5843440000000  0.4903750000000 1.0
C      1  0.4653500000000  0.4198730000000  0.4989190000000 1.0
C      1  0.5342830000000  0.4198740000000  0.5007090000000 1.0
C      1  0.4877020000000  0.3996290000000  0.4902130000000 1.0
C      1  0.5119320000000  0.3996300000000  0.5094150000000 1.0
C      1  0.4846220000000  0.6035890000000  0.4939400000000 1.0
C      1  0.5150080000000  0.6035900000000  0.5056840000000 1.0
C      1  0.4527030000000  0.5757150000000  0.4498610000000 1.0
C      1  0.5469280000000  0.5757160000000  0.5497630000000 1.0
C      1  0.4560870000000  0.4273200000000  0.4341610000000 1.0
C      1  0.5435460000000  0.4273210000000  0.5654670000000 1.0
C      1  0.5471370000000  0.5621150000000  0.5241340000000 1.0
C      1  0.4524950000000  0.5621140000000  0.4754910000000 1.0
C      1  0.5408470000000  0.4372640000000  0.5383690000000 1.0
C      1  0.4587870000000  0.4372630000000  0.4612580000000 1.0
C      1  0.5890410000000  0.5624550000000  0.5221580000000 1.0
C      1  0.4105910000000  0.5624540000000  0.4774670000000 1.0
C      1  0.5828010000000  0.4378380000000  0.5370710000000 1.0
C      1  0.4168320000000  0.4378360000000  0.4625560000000 1.0
C      1  0.5917730000000  0.4655610000000  0.5357380000000 1.0
C      1  0.4078600000000  0.4655590000000  0.4638880000000 1.0
C      1  0.5922170000000  0.5331180000000  0.5245440000000 1.0
C      1  0.4074150000000  0.5331160000000  0.4750820000000 1.0
C      1  0.4600180000000  0.4433660000000  0.4111330000000 1.0
C      1  0.5396150000000  0.4433690000000  0.5884940000000 1.0
C      1  0.4634070000000  0.5642320000000  0.4262090000000 1.0
C      1  0.5362240000000  0.5642340000000  0.5734160000000 1.0
C      1  0.5957700000000  0.5380180000000  0.4723890000000 1.0
C      1  0.4038620000000  0.5380170000000  0.5272370000000 1.0
C      1  0.6041940000000  0.4522020000000  0.4882390000000 1.0
C      1  0.3954390000000  0.4522010000000  0.5113880000000 1.0
C      1  0.4635350000000  0.5318370000000  0.5253870000000 1.0
C      1  0.5360970000000  0.5318370000000  0.4742380000000 1.0
C      1  0.4571840000000  0.4681700000000  0.5236730000000 1.0
C      1  0.5424490000000  0.4681700000000  0.4759540000000 1.0
C      1  0.5166640000000  0.5194900000000  0.5881110000000 1.0
C      1  0.4829680000000  0.5194880000000  0.4115150000000 1.0
C      1  0.5170080000000  0.4885610000000  0.5891200000000 1.0
C      1  0.4826240000000  0.4885590000000  0.4105070000000 1.0
C      1  0.5637760000000  0.4744160000000  0.4285440000000 1.0
C      1  0.4358570000000  0.4744160000000  0.5710820000000 1.0
C      1  0.5652280000000  0.5278660000000  0.4348190000000 1.0
C      1  0.4344040000000  0.5278670000000  0.5648070000000 1.0
C      1  0.4450770000000  0.4084750000000  0.5554010000000 1.0
C      1  0.5545570000000  0.4084740000000  0.4442270000000 1.0
C      1  0.4418650000000  0.5934770000000  0.5667580000000 1.0
C      1  0.5577660000000  0.5934770000000  0.4328660000000 1.0
C      1  0.4996820000000  0.5176890000000  0.5497610000000 1.0
C      1  0.4999500000000  0.5176880000000  0.4498650000000 1.0
C      1  0.4965350000000  0.4896220000000  0.5525200000000 1.0
C      1  0.5030970000000  0.4896210000000  0.4471060000000 1.0
C      1  0.4719180000000  0.4386660000000  0.5201960000000 1.0
C      1  0.5277150000000  0.4386660000000  0.4794310000000 1.0
C      1  0.4772710000000  0.5617180000000  0.5225640000000 1.0
C      1  0.5223610000000  0.5617180000000  0.4770610000000 1.0
C      1  0.4575220000000  0.4719090000000  0.4118930000000 1.0
C      1  0.5421110000000  0.4719120000000  0.5877340000000 1.0
C      1  0.4594170000000  0.5365400000000  0.4202090000000 1.0
C      1  0.5402150000000  0.5365420000000  0.5794160000000 1.0
C      1  0.5772530000000  0.4282090000000  0.4879650000000 1.0
C      1  0.4223810000000  0.4282080000000  0.5116620000000 1.0
C      1  0.5781400000000  0.5651150000000  0.4724190000000 1.0
C      1  0.4214910000000  0.5651140000000  0.5272060000000 1.0
C      1  0.5060420000000  0.4314470000000  0.4626420000000 1.0
C      1  0.4935910000000  0.4314480000000  0.5369850000000 1.0
C      1  0.4958070000000  0.5658170000000  0.4694220000000 1.0
C      1  0.5038240000000  0.5658170000000  0.5302030000000 1.0
C      1  0.5321680000000  0.4887870000000  0.3948730000000 1.0
C      1  0.4674640000000  0.4887880000000  0.6047530000000 1.0
C      1  0.5333550000000  0.5184210000000  0.3971930000000 1.0
C      1  0.4662760000000  0.5184220000000  0.6024330000000 1.0
C      1  0.5450000000000  0.4842060000000  0.4492590000000 1.0
C      1  0.4546330000000  0.4842060000000  0.5503680000000 1.0
C      1  0.5415870000000  0.5123640000000  0.4488150000000 1.0
C      1  0.4580450000000  0.5123640000000  0.5508110000000 1.0
C      1  0.4552550000000  0.5159740000000  0.5012420000000 1.0
C      1  0.5443770000000  0.5159750000000  0.4983840000000 1.0
C      1  0.4536540000000  0.4862690000000  0.5001790000000 1.0
C      1  0.5459780000000  0.4862700000000  0.4994470000000 1.0
C      1  0.4974880000000  0.4036490000000  0.4629260000000 1.0
C      1  0.5021460000000  0.4036500000000  0.5367020000000 1.0
C      1  0.4869510000000  0.5933000000000  0.4666320000000 1.0
C      1  0.5126800000000  0.5933010000000  0.5329920000000 1.0
C      1  0.4073120000000  0.5232520000000  0.5528410000000 1.0
C      1  0.5923200000000  0.5232520000000  0.4467850000000 1.0
C      1  0.4074090000000  0.4615040000000  0.5375990000000 1.0
C      1  0.5922240000000  0.4615050000000  0.4620270000000 1.0
C      1  0.5669350000000  0.5747190000000  0.5012290000000 1.0
C      1  0.4326960000000  0.5747180000000  0.4983960000000 1.0
C      1  0.5615620000000  0.4252550000000  0.5164640000000 1.0
C      1  0.4380710000000  0.4252540000000  0.4831640000000 1.0
C      1  0.5791610000000  0.4870000000000  0.5527300000000 1.0
C      1  0.4204710000000  0.4869980000000  0.4468970000000 1.0
C      1  0.5774610000000  0.5164400000000  0.5463020000000 1.0
C      1  0.4221710000000  0.5164380000000  0.4533240000000 1.0
C      1  0.5689370000000  0.4823260000000  0.5806640000000 1.0
C      1  0.4306950000000  0.4823230000000  0.4189620000000 1.0
C      1  0.5675670000000  0.5268930000000  0.5733610000000 1.0
C      1  0.4320650000000  0.5268900000000  0.4262640000000 1.0
C      1  0.5644550000000  0.4494000000000  0.4622670000000 1.0
C      1  0.4351780000000  0.4494000000000  0.5373600000000 1.0
C      1  0.5556230000000  0.5515130000000  0.4536550000000 1.0
C      1  0.4440090000000  0.5515130000000  0.5459700000000 1.0
C      1  0.4276240000000  0.4048100000000  0.5319380000000 1.0
C      1  0.5720100000000  0.4048110000000  0.4676890000000 1.0
C      1  0.4191170000000  0.5889590000000  0.5476850000000 1.0
C      1  0.5805140000000  0.5889590000000  0.4519400000000 1.0
C      1  0.5184540000000  0.4483680000000  0.4262970000000 1.0
C      1  0.4811790000000  0.4483690000000  0.5733300000000 1.0
C      1  0.5154480000000  0.5616450000000  0.4189120000000 1.0
C      1  0.4841830000000  0.5616470000000  0.5807130000000 1.0
C      1  0.4998160000000  0.4956790000000  0.4998130000000 1.0
END
