TITL C-862133-5440-1244 1.08583190497832 125000 -1157.73479402077 0 0 195 (C1) n - 1
REM
REM in /home/nfs/bkarasulu/CARBON/AIRSS/Generating-Clusters/TERSOFF/Higher-Symm/FIRE-HFTN
REM
REM
REM
REM
REM
REM ./C.cell (b20cbc046b6831c77cfcea5457e17084)
REM AIRSS Version 0.9.1 bugfix July 2018 build 013d7b7c2542+ Fri, 06 Jul 2018 19:26:36 +0100
REM compiler GCC version 9.2.1 20190827 (Red Hat 9.2.1-1)
REM options -cpp -mtune=generic -march=x86-64 -g -O0 -fpre-include=/usr/include/finclude/math-vector-fortran.h
REM seed 2016135853 197329829 89988420 -550847084 75796671 1106035 810628407 1986522595 -646266606 -1612386797 131224464 -479680349 -776918394 -1781167011 1813066891 1377598315 746358906 -1364159067 -399728789 -595123119 -1178536129 1249383276 -465097524 -2075324695 603054324 2024247009 1078492090 -753808439 -1842587062 -1460882327 -589005689 -642278746 -358945224
REM
CELL 1.54180   50.00000   50.00000   50.00000   90.00000   90.00000   90.00000
LATT -1
SFAC C  
C      1  0.5165640000000  0.4127160000000  0.5230160000000 1.0
C      1  0.4392490000000  0.5976500000000  0.4411480000000 1.0
C      1  0.4515700000000  0.4440540000000  0.5047510000000 1.0
C      1  0.5098110000000  0.4209170000000  0.5780040000000 1.0
C      1  0.4766680000000  0.6175540000000  0.5106990000000 1.0
C      1  0.4444060000000  0.4922730000000  0.4107000000000 1.0
C      1  0.4405520000000  0.4840780000000  0.6122380000000 1.0
C      1  0.4802750000000  0.4924350000000  0.5520910000000 1.0
C      1  0.4806830000000  0.4678840000000  0.5872110000000 1.0
C      1  0.4708550000000  0.5946320000000  0.5607200000000 1.0
C      1  0.4670590000000  0.5211020000000  0.5937880000000 1.0
C      1  0.4103780000000  0.4691410000000  0.4617340000000 1.0
C      1  0.5876010000000  0.5143610000000  0.4683620000000 1.0
C      1  0.5128250000000  0.5910150000000  0.4975310000000 1.0
C      1  0.5060520000000  0.3903380000000  0.5380460000000 1.0
C      1  0.4455330000000  0.5113830000000  0.5739470000000 1.0
C      1  0.5041230000000  0.5362080000000  0.3868880000000 1.0
C      1  0.4085760000000  0.5072500000000  0.4901960000000 1.0
C      1  0.4432400000000  0.4091510000000  0.5080310000000 1.0
C      1  0.4864540000000  0.5418120000000  0.4465060000000 1.0
C      1  0.4407320000000  0.5847010000000  0.4125150000000 1.0
C      1  0.4843330000000  0.4811320000000  0.6160830000000 1.0
C      1  0.4963320000000  0.5643830000000  0.3959480000000 1.0
C      1  0.5614370000000  0.4591190000000  0.5209820000000 1.0
C      1  0.5054960000000  0.4456800000000  0.4883700000000 1.0
C      1  0.4569640000000  0.5514750000000  0.5865080000000 1.0
C      1  0.4740190000000  0.4944680000000  0.4141320000000 1.0
C      1  0.5855840000000  0.4358360000000  0.4188180000000 1.0
C      1  0.5548520000000  0.6141930000000  0.5024050000000 1.0
C      1  0.5503910000000  0.5809540000000  0.4571220000000 1.0
C      1  0.6088690000000  0.4532560000000  0.4777640000000 1.0
C      1  0.4221580000000  0.5566850000000  0.4712460000000 1.0
C      1  0.5392050000000  0.4243160000000  0.5811170000000 1.0
C      1  0.4182330000000  0.4264430000000  0.5231830000000 1.0
C      1  0.5487180000000  0.4433530000000  0.4653470000000 1.0
C      1  0.5166730000000  0.5622890000000  0.4893530000000 1.0
C      1  0.4805220000000  0.4130080000000  0.4205140000000 1.0
C      1  0.4103270000000  0.4205140000000  0.4576520000000 1.0
C      1  0.4284360000000  0.5555800000000  0.5739230000000 1.0
C      1  0.5433790000000  0.5387970000000  0.6110680000000 1.0
C      1  0.5074320000000  0.5726570000000  0.5891150000000 1.0
C      1  0.5204240000000  0.5850720000000  0.5623200000000 1.0
C      1  0.4776860000000  0.5227450000000  0.3833130000000 1.0
C      1  0.5970010000000  0.4793150000000  0.5532260000000 1.0
C      1  0.4267020000000  0.4605280000000  0.5672670000000 1.0
C      1  0.4298560000000  0.4668190000000  0.3955470000000 1.0
C      1  0.5382420000000  0.5395480000000  0.4989390000000 1.0
C      1  0.5833710000000  0.5234210000000  0.5121860000000 1.0
C      1  0.6059110000000  0.5362650000000  0.4569940000000 1.0
C      1  0.5270190000000  0.4480320000000  0.4414010000000 1.0
C      1  0.4474270000000  0.4654200000000  0.5899220000000 1.0
C      1  0.4418770000000  0.6106110000000  0.5176610000000 1.0
C      1  0.3902200000000  0.4887090000000  0.4506920000000 1.0
C      1  0.4764230000000  0.5737290000000  0.5830160000000 1.0
C      1  0.4406800000000  0.5988760000000  0.5476490000000 1.0
C      1  0.5691600000000  0.4484590000000  0.5475410000000 1.0
C      1  0.6078730000000  0.4231720000000  0.4050720000000 1.0
C      1  0.4579410000000  0.3877920000000  0.5249080000000 1.0
C      1  0.5465340000000  0.4903280000000  0.4637070000000 1.0
C      1  0.5237190000000  0.5101060000000  0.5767570000000 1.0
C      1  0.4010010000000  0.5775560000000  0.5065760000000 1.0
C      1  0.4002440000000  0.4434340000000  0.5055490000000 1.0
C      1  0.4576730000000  0.4562770000000  0.4767690000000 1.0
C      1  0.5772540000000  0.4723300000000  0.4977350000000 1.0
C      1  0.4033440000000  0.4438220000000  0.4743760000000 1.0
C      1  0.4687590000000  0.3963350000000  0.4638690000000 1.0
C      1  0.6151230000000  0.5028990000000  0.5488500000000 1.0
C      1  0.5909250000000  0.5011580000000  0.4945490000000 1.0
C      1  0.6081730000000  0.4681350000000  0.4524990000000 1.0
C      1  0.4740560000000  0.5881420000000  0.4735780000000 1.0
C      1  0.5950820000000  0.4260680000000  0.4763630000000 1.0
C      1  0.5120520000000  0.6191950000000  0.4646690000000 1.0
C      1  0.4977830000000  0.4873220000000  0.5300270000000 1.0
C      1  0.5008340000000  0.5497160000000  0.5261620000000 1.0
C      1  0.4675810000000  0.5409390000000  0.4693920000000 1.0
C      1  0.4629170000000  0.5033190000000  0.6196250000000 1.0
C      1  0.6181760000000  0.4673990000000  0.5057650000000 1.0
C      1  0.5153340000000  0.5790230000000  0.4133490000000 1.0
C      1  0.4215950000000  0.4332100000000  0.5535380000000 1.0
C      1  0.4708170000000  0.4178270000000  0.4467950000000 1.0
C      1  0.4630500000000  0.5635580000000  0.4042260000000 1.0
C      1  0.5237120000000  0.5619900000000  0.6125430000000 1.0
C      1  0.5287400000000  0.6078550000000  0.5170550000000 1.0
C      1  0.4035730000000  0.5651250000000  0.5337350000000 1.0
C      1  0.4225530000000  0.5984680000000  0.4967570000000 1.0
C      1  0.5375780000000  0.4092540000000  0.5030190000000 1.0
C      1  0.5097230000000  0.4981130000000  0.4361050000000 1.0
C      1  0.4647140000000  0.4295610000000  0.4023310000000 1.0
C      1  0.5264870000000  0.4619480000000  0.5674800000000 1.0
C      1  0.4098480000000  0.5326860000000  0.5678830000000 1.0
C      1  0.4707900000000  0.5637680000000  0.4876610000000 1.0
C      1  0.4308910000000  0.5847720000000  0.4692940000000 1.0
C      1  0.4986990000000  0.4336450000000  0.5140230000000 1.0
C      1  0.4511880000000  0.5185970000000  0.5241060000000 1.0
C      1  0.5312070000000  0.5128710000000  0.6048260000000 1.0
C      1  0.4219590000000  0.5768250000000  0.5539890000000 1.0
C      1  0.4790200000000  0.5645610000000  0.5160350000000 1.0
C      1  0.5134130000000  0.5504630000000  0.4578210000000 1.0
C      1  0.5379740000000  0.5663580000000  0.4276880000000 1.0
C      1  0.5332490000000  0.4871010000000  0.6188520000000 1.0
C      1  0.5557410000000  0.4001220000000  0.4445210000000 1.0
C      1  0.4396170000000  0.5318810000000  0.4631170000000 1.0
C      1  0.4684850000000  0.4316740000000  0.5528360000000 1.0
C      1  0.5335860000000  0.4567570000000  0.5175350000000 1.0
C      1  0.3969440000000  0.5533290000000  0.4873030000000 1.0
C      1  0.5655630000000  0.4001520000000  0.5434200000000 1.0
C      1  0.5677870000000  0.4214230000000  0.4638440000000 1.0
C      1  0.4254760000000  0.4855030000000  0.5218690000000 1.0
C      1  0.4344560000000  0.5193290000000  0.4118380000000 1.0
C      1  0.5916980000000  0.4696990000000  0.5813570000000 1.0
C      1  0.4670390000000  0.5887080000000  0.4467960000000 1.0
C      1  0.5727360000000  0.5436240000000  0.6038030000000 1.0
C      1  0.5674160000000  0.5256380000000  0.4294470000000 1.0
C      1  0.5592650000000  0.5361500000000  0.5508110000000 1.0
C      1  0.4680800000000  0.4032450000000  0.5626180000000 1.0
C      1  0.4733500000000  0.4363060000000  0.5243320000000 1.0
C      1  0.5328840000000  0.5359030000000  0.5623370000000 1.0
C      1  0.5599590000000  0.5153260000000  0.4564090000000 1.0
C      1  0.4970360000000  0.3685150000000  0.4939860000000 1.0
C      1  0.4950530000000  0.3834090000000  0.4686940000000 1.0
C      1  0.5182100000000  0.4889520000000  0.4615690000000 1.0
C      1  0.5641770000000  0.5143230000000  0.5327990000000 1.0
C      1  0.5215140000000  0.3925610000000  0.4459080000000 1.0
C      1  0.3952540000000  0.5183590000000  0.4466610000000 1.0
C      1  0.4030000000000  0.5305320000000  0.5048820000000 1.0
C      1  0.5147670000000  0.5554230000000  0.5515520000000 1.0
C      1  0.5731020000000  0.4851220000000  0.4199560000000 1.0
C      1  0.4977860000000  0.4582190000000  0.4415490000000 1.0
C      1  0.5471740000000  0.5398320000000  0.4156520000000 1.0
C      1  0.4552350000000  0.5040360000000  0.5482920000000 1.0
C      1  0.4180620000000  0.4220250000000  0.4285540000000 1.0
C      1  0.5596070000000  0.4214930000000  0.4211660000000 1.0
C      1  0.4227260000000  0.5270280000000  0.4376100000000 1.0
C      1  0.4382260000000  0.4412060000000  0.4164850000000 1.0
C      1  0.4538560000000  0.5360950000000  0.3958290000000 1.0
C      1  0.4402410000000  0.4620550000000  0.5264610000000 1.0
C      1  0.5364710000000  0.5311190000000  0.4694050000000 1.0
C      1  0.6069240000000  0.4589900000000  0.5325470000000 1.0
C      1  0.5666700000000  0.5465390000000  0.4985780000000 1.0
C      1  0.5608790000000  0.4684600000000  0.4731490000000 1.0
C      1  0.5144280000000  0.5108140000000  0.5341690000000 1.0
C      1  0.4080870000000  0.4838360000000  0.5647080000000 1.0
C      1  0.6014620000000  0.5626010000000  0.4692210000000 1.0
C      1  0.5624670000000  0.3997890000000  0.5145520000000 1.0
C      1  0.5283260000000  0.5224610000000  0.3990380000000 1.0
C      1  0.5329140000000  0.4360600000000  0.4144860000000 1.0
C      1  0.5678340000000  0.4904320000000  0.5481780000000 1.0
C      1  0.5763210000000  0.5593650000000  0.5479550000000 1.0
C      1  0.5377110000000  0.4608780000000  0.6018530000000 1.0
C      1  0.4890530000000  0.4435550000000  0.5714850000000 1.0
C      1  0.5752140000000  0.5703510000000  0.4811140000000 1.0
C      1  0.5305310000000  0.4320020000000  0.4837770000000 1.0
C      1  0.4748710000000  0.5655510000000  0.4319940000000 1.0
C      1  0.5591420000000  0.4239560000000  0.5588720000000 1.0
C      1  0.4004630000000  0.4933670000000  0.5372170000000 1.0
C      1  0.5306040000000  0.4652090000000  0.3983390000000 1.0
C      1  0.5151540000000  0.4642300000000  0.5376130000000 1.0
C      1  0.4769020000000  0.4434870000000  0.4576980000000 1.0
C      1  0.5034990000000  0.6223410000000  0.5302530000000 1.0
C      1  0.5108720000000  0.4103570000000  0.4211200000000 1.0
C      1  0.4883400000000  0.4694450000000  0.4141460000000 1.0
C      1  0.4864550000000  0.3781810000000  0.5203600000000 1.0
C      1  0.5405480000000  0.5940280000000  0.5404180000000 1.0
C      1  0.4452900000000  0.3952240000000  0.4814220000000 1.0
C      1  0.4996780000000  0.6092180000000  0.5576720000000 1.0
C      1  0.5001680000000  0.4741660000000  0.4812390000000 1.0
C      1  0.4170930000000  0.5072290000000  0.5804440000000 1.0
C      1  0.3870160000000  0.4696180000000  0.5161800000000 1.0
C      1  0.3977460000000  0.5296560000000  0.5366990000000 1.0
C      1  0.6039920000000  0.5533950000000  0.5531260000000 1.0
C      1  0.4593440000000  0.5059110000000  0.4994180000000 1.0
C      1  0.4388610000000  0.4764150000000  0.4632130000000 1.0
C      1  0.5920170000000  0.5233680000000  0.5916160000000 1.0
C      1  0.4816480000000  0.4508710000000  0.3934030000000 1.0
C      1  0.5751990000000  0.5915480000000  0.5045080000000 1.0
C      1  0.6084820000000  0.5276400000000  0.5659900000000 1.0
C      1  0.4917210000000  0.6072810000000  0.4843370000000 1.0
C      1  0.5462790000000  0.4864680000000  0.5697000000000 1.0
C      1  0.3814680000000  0.5386180000000  0.4642820000000 1.0
C      1  0.5405380000000  0.6098130000000  0.4616250000000 1.0
C      1  0.4865290000000  0.5149680000000  0.4326140000000 1.0
C      1  0.4972280000000  0.3958430000000  0.5656700000000 1.0
C      1  0.3882590000000  0.4869640000000  0.4926090000000 1.0
C      1  0.5653340000000  0.4763500000000  0.5935030000000 1.0
C      1  0.5253300000000  0.4936920000000  0.4114590000000 1.0
C      1  0.5889440000000  0.4630970000000  0.4304510000000 1.0
C      1  0.4851930000000  0.4886330000000  0.5025420000000 1.0
C      1  0.5671640000000  0.5829830000000  0.5343620000000 1.0
C      1  0.5956140000000  0.5342130000000  0.4287670000000 1.0
C      1  0.4455900000000  0.4709430000000  0.4341780000000 1.0
C      1  0.6248370000000  0.4974320000000  0.5189740000000 1.0
C      1  0.4375580000000  0.5035000000000  0.4780460000000 1.0
C      1  0.4767930000000  0.5900090000000  0.5282680000000 1.0
C      1  0.4925430000000  0.5008630000000  0.5780340000000 1.0
C      1  0.5375690000000  0.5173400000000  0.5192460000000 1.0
END
