TITL C-862133-5440-1235 0.00157484463853299 125000 -669.59160824189 0 0 117 (C1) n - 1
REM
REM in /home/nfs/bkarasulu/CARBON/AIRSS/Generating-Clusters/TERSOFF/Higher-Symm/FIRE-HFTN
REM
REM
REM
REM
REM
REM ./C.cell (b20cbc046b6831c77cfcea5457e17084)
REM AIRSS Version 0.9.1 bugfix July 2018 build 013d7b7c2542+ Fri, 06 Jul 2018 19:26:36 +0100
REM compiler GCC version 9.2.1 20190827 (Red Hat 9.2.1-1)
REM options -cpp -mtune=generic -march=x86-64 -g -O0 -fpre-include=/usr/include/finclude/math-vector-fortran.h
REM seed 1868630839 -457869044 721694743 -59977155 1160250908 -1710908690 -1056448679 340624185 -2135841318 -1500147673 1629699041 759912298 4575944 1796659753 -437267874 1813801436 701241449 1982070673 -1416844313 1296828564 1946848164 -1307959127 2065415870 -2075882863 -375106356 1362316714 -52032756 1036429820 1851295120 -1357931848 1324342472 -433688523 -837355874
REM
CELL 1.54180   50.00000   50.00000   50.00000   90.00000   90.00000   90.00000
LATT -1
SFAC C  
C      1  0.4906210000000  0.4422870000000  0.5571260000000 1.0
C      1  0.4538370000000  0.4605300000000  0.5485960000000 1.0
C      1  0.4393070000000  0.4994040000000  0.5548360000000 1.0
C      1  0.4503190000000  0.5394980000000  0.5489680000000 1.0
C      1  0.4871970000000  0.5594110000000  0.5545850000000 1.0
C      1  0.5284750000000  0.5537610000000  0.5493150000000 1.0
C      1  0.5532850000000  0.5202600000000  0.5543780000000 1.0
C      1  0.5607080000000  0.4793850000000  0.5483740000000 1.0
C      1  0.5315820000000  0.4456160000000  0.5487340000000 1.0
C      1  0.3977730000000  0.4767860000000  0.5341310000000 1.0
C      1  0.4032880000000  0.5518990000000  0.5303380000000 1.0
C      1  0.4617130000000  0.5987400000000  0.5322100000000 1.0
C      1  0.5342070000000  0.6016590000000  0.5304400000000 1.0
C      1  0.5879360000000  0.5532470000000  0.5342330000000 1.0
C      1  0.6092300000000  0.4856860000000  0.5304060000000 1.0
C      1  0.5682960000000  0.4167980000000  0.5289750000000 1.0
C      1  0.5045520000000  0.3970710000000  0.5342470000000 1.0
C      1  0.4353400000000  0.4162120000000  0.5304120000000 1.0
C      1  0.4258010000000  0.5556520000000  0.5488350000000 1.0
C      1  0.4808500000000  0.5876960000000  0.5517160000000 1.0
C      1  0.5406100000000  0.5803630000000  0.5493620000000 1.0
C      1  0.5803330000000  0.5309170000000  0.5517640000000 1.0
C      1  0.5896010000000  0.4741580000000  0.5490250000000 1.0
C      1  0.5492040000000  0.4229250000000  0.5492620000000 1.0
C      1  0.4881280000000  0.4131650000000  0.5532250000000 1.0
C      1  0.4350470000000  0.4383430000000  0.5489460000000 1.0
C      1  0.4106430000000  0.4955400000000  0.5525320000000 1.0
C      1  0.4054120000000  0.5051360000000  0.4845520000000 1.0
C      1  0.4324950000000  0.5606560000000  0.4864630000000 1.0
C      1  0.4901340000000  0.5907800000000  0.4834370000000 1.0
C      1  0.5477550000000  0.5730140000000  0.4869680000000 1.0
C      1  0.5905970000000  0.5262950000000  0.4833310000000 1.0
C      1  0.5858470000000  0.4662310000000  0.4862660000000 1.0
C      1  0.5351170000000  0.4226960000000  0.4860130000000 1.0
C      1  0.4800360000000  0.4094580000000  0.4841160000000 1.0
C      1  0.4344700000000  0.4468060000000  0.4867770000000 1.0
C      1  0.5145830000000  0.5429400000000  0.4356500000000 1.0
C      1  0.5408290000000  0.5252000000000  0.4306620000000 1.0
C      1  0.5475610000000  0.4945010000000  0.4334950000000 1.0
C      1  0.5283450000000  0.4678920000000  0.4334480000000 1.0
C      1  0.5008140000000  0.4503430000000  0.4318130000000 1.0
C      1  0.4712160000000  0.4601810000000  0.4338990000000 1.0
C      1  0.4562920000000  0.4889620000000  0.4305830000000 1.0
C      1  0.4583150000000  0.5214050000000  0.4334610000000 1.0
C      1  0.4820530000000  0.5425510000000  0.4298370000000 1.0
C      1  0.4548570000000  0.5009940000000  0.4707430000000 1.0
C      1  0.4659480000000  0.5285670000000  0.4740320000000 1.0
C      1  0.4915560000000  0.5395170000000  0.4704880000000 1.0
C      1  0.5195110000000  0.5290460000000  0.4784640000000 1.0
C      1  0.5414990000000  0.5129300000000  0.4706960000000 1.0
C      1  0.5418940000000  0.4826770000000  0.4733470000000 1.0
C      1  0.5186490000000  0.4677680000000  0.4742900000000 1.0
C      1  0.4959610000000  0.4788780000000  0.4622130000000 1.0
C      1  0.4703690000000  0.4784380000000  0.4732370000000 1.0
C      1  0.4326140000000  0.4188110000000  0.5019500000000 1.0
C      1  0.3951070000000  0.4803220000000  0.5048440000000 1.0
C      1  0.4047940000000  0.5551880000000  0.5013520000000 1.0
C      1  0.4650590000000  0.5997370000000  0.5025680000000 1.0
C      1  0.5380550000000  0.5999960000000  0.5016970000000 1.0
C      1  0.5935010000000  0.5517200000000  0.5050260000000 1.0
C      1  0.6098860000000  0.4806600000000  0.5016060000000 1.0
C      1  0.5638830000000  0.4204720000000  0.5008830000000 1.0
C      1  0.4989760000000  0.3913990000000  0.5052320000000 1.0
C      1  0.4900180000000  0.5440860000000  0.5821670000000 1.0
C      1  0.5204410000000  0.5397330000000  0.5744000000000 1.0
C      1  0.5387920000000  0.5147110000000  0.5819760000000 1.0
C      1  0.5440060000000  0.4840640000000  0.5736400000000 1.0
C      1  0.5243330000000  0.4606750000000  0.5741290000000 1.0
C      1  0.4933810000000  0.4580250000000  0.5843730000000 1.0
C      1  0.4657940000000  0.4716180000000  0.5740750000000 1.0
C      1  0.4551110000000  0.5001770000000  0.5822530000000 1.0
C      1  0.4630750000000  0.5296190000000  0.5742800000000 1.0
C      1  0.6104630000000  0.5046170000000  0.4785620000000 1.0
C      1  0.5813210000000  0.4378850000000  0.4811990000000 1.0
C      1  0.5202280000000  0.3977530000000  0.4814020000000 1.0
C      1  0.4513680000000  0.4044290000000  0.4801890000000 1.0
C      1  0.4106490000000  0.4635450000000  0.4823540000000 1.0
C      1  0.3943540000000  0.5324890000000  0.4797290000000 1.0
C      1  0.4455180000000  0.5861800000000  0.4812800000000 1.0
C      1  0.5148670000000  0.6069480000000  0.4795390000000 1.0
C      1  0.5754810000000  0.5654490000000  0.4825370000000 1.0
C      1  0.4635510000000  0.4588280000000  0.4938650000000 1.0
C      1  0.4336230000000  0.5082170000000  0.4914340000000 1.0
C      1  0.4488240000000  0.5368230000000  0.4969740000000 1.0
C      1  0.4974220000000  0.5630910000000  0.4891630000000 1.0
C      1  0.5263530000000  0.5528610000000  0.4967910000000 1.0
C      1  0.5653670000000  0.5133910000000  0.4897240000000 1.0
C      1  0.5620260000000  0.4825150000000  0.4961570000000 1.0
C      1  0.5161150000000  0.4459840000000  0.4939690000000 1.0
C      1  0.4862820000000  0.4375630000000  0.4920710000000 1.0
C      1  0.5209250000000  0.5389160000000  0.5230400000000 1.0
C      1  0.5378320000000  0.5129200000000  0.5305100000000 1.0
C      1  0.5449450000000  0.4819770000000  0.5216610000000 1.0
C      1  0.5220080000000  0.4593620000000  0.5214430000000 1.0
C      1  0.4939600000000  0.4601140000000  0.5345300000000 1.0
C      1  0.4679500000000  0.4714310000000  0.5216170000000 1.0
C      1  0.4562310000000  0.5000090000000  0.5310020000000 1.0
C      1  0.4634970000000  0.5293160000000  0.5225320000000 1.0
C      1  0.4905360000000  0.5426920000000  0.5311460000000 1.0
C      1  0.4403580000000  0.4279870000000  0.4617110000000 1.0
C      1  0.4089060000000  0.4836320000000  0.4580970000000 1.0
C      1  0.4173550000000  0.5465800000000  0.4618890000000 1.0
C      1  0.4685650000000  0.5876970000000  0.4585680000000 1.0
C      1  0.5325000000000  0.5866840000000  0.4622610000000 1.0
C      1  0.5828370000000  0.5467690000000  0.4578650000000 1.0
C      1  0.5947440000000  0.4830090000000  0.4603980000000 1.0
C      1  0.5560790000000  0.4316170000000  0.4612060000000 1.0
C      1  0.4994630000000  0.4028410000000  0.4578660000000 1.0
C      1  0.5663170000000  0.5418670000000  0.4328600000000 1.0
C      1  0.5778050000000  0.4886350000000  0.4357350000000 1.0
C      1  0.5494570000000  0.4458150000000  0.4362920000000 1.0
C      1  0.5043980000000  0.4203070000000  0.4337150000000 1.0
C      1  0.4523790000000  0.4370430000000  0.4366070000000 1.0
C      1  0.4257680000000  0.4839360000000  0.4328240000000 1.0
C      1  0.4304500000000  0.5346350000000  0.4371410000000 1.0
C      1  0.4710430000000  0.5713190000000  0.4328760000000 1.0
C      1  0.5230580000000  0.5724410000000  0.4379650000000 1.0
END
