TITL C-862507-1800-82 -0.00276441680362192 125000 -590.186356845566 0 0 110 (S4) n - 1
REM
REM in /home/nfs/bkarasulu/CARBON/AIRSS/Generating-Clusters/TERSOFF/Higher-Symm/FIRE-HFTN
REM
REM
REM
REM
REM
REM ./C.cell (b20cbc046b6831c77cfcea5457e17084)
REM AIRSS Version 0.9.1 bugfix July 2018 build 013d7b7c2542+ Fri, 06 Jul 2018 19:26:36 +0100
REM compiler GCC version 9.2.1 20190827 (Red Hat 9.2.1-1)
REM options -cpp -mtune=generic -march=x86-64 -g -O0 -fpre-include=/usr/include/finclude/math-vector-fortran.h
REM seed -611134579 -971294448 -1268928413 1182044757 -2075002365 -1303215930 -599154666 -541706248 -590080698 -1454319396 2057681692 -1195701935 177094476 -1357312158 -1711513852 -1053976961 -1580690825 -533220487 647975495 -1318933502 900576319 -623070708 -473466463 1163544214 1670150498 -1604780209 -1927872978 1246420688 1325905559 809395153 101458536 -164113961 1862914998
REM
CELL 1.54180   50.00000   50.00000   50.00000   90.00000   90.00000   90.00000
LATT -1
SFAC C  
C      1  0.5567240000000  0.5239780000000  0.5134730000000 1.0
C      1  0.4432760000000  0.4865590000000  0.5241850000000 1.0
C      1  0.5567240000000  0.4758460000000  0.4867660000000 1.0
C      1  0.4432760000000  0.5132660000000  0.4760530000000 1.0
C      1  0.5080260000000  0.5781130000000  0.4361320000000 1.0
C      1  0.4919740000000  0.5638990000000  0.5783200000000 1.0
C      1  0.5080260000000  0.4217120000000  0.5641060000000 1.0
C      1  0.4919740000000  0.4359260000000  0.4219190000000 1.0
C      1  0.4573200000000  0.4559050000000  0.4336320000000 1.0
C      1  0.5426800000000  0.5664000000000  0.4561120000000 1.0
C      1  0.4573200000000  0.5439200000000  0.5666070000000 1.0
C      1  0.5426800000000  0.4334250000000  0.5441270000000 1.0
C      1  0.4696580000000  0.5214110000000  0.4028310000000 1.0
C      1  0.5303420000000  0.5972010000000  0.5216180000000 1.0
C      1  0.4696580000000  0.4784140000000  0.5974080000000 1.0
C      1  0.5303420000000  0.4026240000000  0.4786210000000 1.0
C      1  0.5430830000000  0.4917400000000  0.5797550000000 1.0
C      1  0.4569170000000  0.4202770000000  0.4919470000000 1.0
C      1  0.5430830000000  0.5080840000000  0.4204840000000 1.0
C      1  0.4569170000000  0.5795480000000  0.5082910000000 1.0
C      1  0.4139620000000  0.5299440000000  0.5411940000000 1.0
C      1  0.5860380000000  0.4588370000000  0.5301520000000 1.0
C      1  0.4139620000000  0.4698810000000  0.4590440000000 1.0
C      1  0.5860380000000  0.5409880000000  0.4700880000000 1.0
C      1  0.5093350000000  0.5649780000000  0.4696640000000 1.0
C      1  0.4906650000000  0.5303680000000  0.5651850000000 1.0
C      1  0.5093340000000  0.4348470000000  0.5305750000000 1.0
C      1  0.4906660000000  0.4694570000000  0.4350540000000 1.0
C      1  0.4941020000000  0.4902590000000  0.5839110000000 1.0
C      1  0.5058980000000  0.4161210000000  0.4904660000000 1.0
C      1  0.4941020000000  0.5095660000000  0.4163280000000 1.0
C      1  0.5058980000000  0.5837040000000  0.5097730000000 1.0
C      1  0.5021000000000  0.4999100000000  0.4769580000000 1.0
C      1  0.4979000000000  0.5230740000000  0.5001170000000 1.0
C      1  0.5021000000000  0.4999150000000  0.5232810000000 1.0
C      1  0.4979000000000  0.4767510000000  0.5001220000000 1.0
C      1  0.3890300000000  0.5048250000000  0.4863310000000 1.0
C      1  0.6109700000000  0.5137010000000  0.5050320000000 1.0
C      1  0.3890300000000  0.4950000000000  0.5139070000000 1.0
C      1  0.6109700000000  0.4861240000000  0.4952070000000 1.0
C      1  0.5761190000000  0.5174290000000  0.4540620000000 1.0
C      1  0.4238810000000  0.5459700000000  0.5176360000000 1.0
C      1  0.5761190000000  0.4823960000000  0.5461770000000 1.0
C      1  0.4238810000000  0.4538550000000  0.4826030000000 1.0
C      1  0.4372850000000  0.4771920000000  0.4422630000000 1.0
C      1  0.5627150000000  0.5577690000000  0.4773990000000 1.0
C      1  0.4372850000000  0.5226330000000  0.5579750000000 1.0
C      1  0.5627150000000  0.4420560000000  0.5228400000000 1.0
C      1  0.4799010000000  0.5887960000000  0.4912810000000 1.0
C      1  0.5200990000000  0.5087510000000  0.5890030000000 1.0
C      1  0.4799010000000  0.4110290000000  0.5089580000000 1.0
C      1  0.5200990000000  0.4910740000000  0.4112360000000 1.0
C      1  0.5444450000000  0.5219650000000  0.5410780000000 1.0
C      1  0.4555550000000  0.4589540000000  0.5221720000000 1.0
C      1  0.5444450000000  0.4778600000000  0.4591610000000 1.0
C      1  0.4555550000000  0.5408710000000  0.4780670000000 1.0
C      1  0.5445310000000  0.4751550000000  0.5412180000000 1.0
C      1  0.4554690000000  0.4588140000000  0.4753620000000 1.0
C      1  0.5445310000000  0.5246700000000  0.4590210000000 1.0
C      1  0.4554690000000  0.5410110000000  0.5248760000000 1.0
C      1  0.6298230000000  0.5579480000000  0.4889110000000 1.0
C      1  0.3701770000000  0.5111210000000  0.5581550000000 1.0
C      1  0.6298230000000  0.4418770000000  0.5113280000000 1.0
C      1  0.3701770000000  0.4887040000000  0.4420830000000 1.0
C      1  0.4969400000000  0.5719760000000  0.5374130000000 1.0
C      1  0.5030600000000  0.4626190000000  0.5721830000000 1.0
C      1  0.4969400000000  0.4278490000000  0.4628260000000 1.0
C      1  0.5030610000000  0.5372060000000  0.4280560000000 1.0
C      1  0.4788140000000  0.4362190000000  0.5663610000000 1.0
C      1  0.5211860000000  0.4336710000000  0.4364260000000 1.0
C      1  0.4788150000000  0.5636060000000  0.4338780000000 1.0
C      1  0.5211850000000  0.5661540000000  0.5638130000000 1.0
C      1  0.5199890000000  0.4611320000000  0.4517830000000 1.0
C      1  0.4800110000000  0.5482490000000  0.4613390000000 1.0
C      1  0.5199890000000  0.5386930000000  0.5484560000000 1.0
C      1  0.4800110000000  0.4515760000000  0.5389000000000 1.0
C      1  0.5460120000000  0.4548820000000  0.5025760000000 1.0
C      1  0.4539880000000  0.4974560000000  0.4550890000000 1.0
C      1  0.5460120000000  0.5449430000000  0.4976630000000 1.0
C      1  0.4539880000000  0.5023690000000  0.5451500000000 1.0
C      1  0.5251090000000  0.5410460000000  0.5900240000000 1.0
C      1  0.4748910000000  0.4100080000000  0.5412530000000 1.0
C      1  0.5251090000000  0.4587790000000  0.4102150000000 1.0
C      1  0.4748910000000  0.5898170000000  0.4589860000000 1.0
C      1  0.5329130000000  0.5400650000000  0.4337730000000 1.0
C      1  0.4670870000000  0.5662590000000  0.5402720000000 1.0
C      1  0.5329130000000  0.4597590000000  0.5664660000000 1.0
C      1  0.4670870000000  0.4335660000000  0.4599660000000 1.0
C      1  0.5624480000000  0.5068540000000  0.5620520000000 1.0
C      1  0.4375520000000  0.4379800000000  0.5070610000000 1.0
C      1  0.5624490000000  0.4929710000000  0.4381870000000 1.0
C      1  0.4375520000000  0.5618450000000  0.4931770000000 1.0
C      1  0.6090120000000  0.4621580000000  0.5122620000000 1.0
C      1  0.3909880000000  0.4877700000000  0.4623650000000 1.0
C      1  0.6090120000000  0.5376670000000  0.4879780000000 1.0
C      1  0.3909880000000  0.5120550000000  0.5378740000000 1.0
C      1  0.4828390000000  0.4931000000000  0.4537330000000 1.0
C      1  0.5171610000000  0.5462990000000  0.4933070000000 1.0
C      1  0.4828390000000  0.5067250000000  0.5465060000000 1.0
C      1  0.5171610000000  0.4535260000000  0.5069320000000 1.0
C      1  0.5298780000000  0.5016850000000  0.4674100000000 1.0
C      1  0.4701220000000  0.5326220000000  0.5018920000000 1.0
C      1  0.5298770000000  0.4981390000000  0.5328290000000 1.0
C      1  0.4701220000000  0.4672030000000  0.4983460000000 1.0
C      1  0.4623170000000  0.5487860000000  0.4112910000000 1.0
C      1  0.5376830000000  0.5887410000000  0.5489930000000 1.0
C      1  0.4623160000000  0.4510390000000  0.5889480000000 1.0
C      1  0.5376830000000  0.4110840000000  0.4512460000000 1.0
C      1  0.4295980000000  0.4999120000000  0.5001190000000 1.0
C      1  0.5704020000000  0.4999120000000  0.5001200000000 1.0
END
