TITL C-862503-991-1385 -0.000463625823889036 125000 -207.225946730697 0 0 42 (Cs) n - 1
REM
REM in /home/nfs/bkarasulu/CARBON/AIRSS/Generating-Clusters/TERSOFF/Higher-Symm/FIRE-HFTN
REM
REM
REM
REM
REM
REM ./C.cell (b20cbc046b6831c77cfcea5457e17084)
REM AIRSS Version 0.9.1 bugfix July 2018 build 013d7b7c2542+ Fri, 06 Jul 2018 19:26:36 +0100
REM compiler GCC version 9.2.1 20190827 (Red Hat 9.2.1-1)
REM options -cpp -mtune=generic -march=x86-64 -g -O0 -fpre-include=/usr/include/finclude/math-vector-fortran.h
REM seed 272787263 935301906 -505789554 1971764229 -1582421658 -1308720194 636098386 -251480660 1596557222 1075672040 1866341133 1372009921 -985966936 356970025 -1547629220 1501078189 -410423011 -460983002 -368466838 -2100656428 333682455 -1237174200 -1794693049 -489269967 1437109967 -451347148 -1145906788 -350850529 1544773190 1306523531 -1406793345 2103234958 844437411
REM
CELL 1.54180   50.00000   50.00000   50.00000   90.00000   90.00000   90.00000
LATT -1
SFAC C  
C      1  0.5623470000000  0.4861140000000  0.5362060000000 1.0
C      1  0.5307810000000  0.5517050000000  0.4928800000000 1.0
C      1  0.4913910000000  0.5361050000000  0.5542600000000 1.0
C      1  0.4481380000000  0.4906300000000  0.4646610000000 1.0
C      1  0.5516730000000  0.5077300000000  0.4712790000000 1.0
C      1  0.4501650000000  0.5107640000000  0.5331540000000 1.0
C      1  0.4651650000000  0.5603500000000  0.5149700000000 1.0
C      1  0.5336450000000  0.4478880000000  0.5115170000000 1.0
C      1  0.4692130000000  0.4462730000000  0.4855170000000 1.0
C      1  0.5095910000000  0.5312790000000  0.4482740000000 1.0
C      1  0.4866260000000  0.4643800000000  0.4379120000000 1.0
C      1  0.5148850000000  0.4687390000000  0.5567860000000 1.0
C      1  0.5366870000000  0.4908090000000  0.5542600000000 1.0
C      1  0.4866960000000  0.5617650000000  0.5362060000000 1.0
C      1  0.5522870000000  0.5301990000000  0.4928800000000 1.0
C      1  0.4649620000000  0.4860440000000  0.4379120000000 1.0
C      1  0.4693210000000  0.5143030000000  0.5567860000000 1.0
C      1  0.5318610000000  0.5090080000000  0.4482740000000 1.0
C      1  0.5083120000000  0.5510900000000  0.4712790000000 1.0
C      1  0.5113470000000  0.4495830000000  0.5331540000000 1.0
C      1  0.4912130000000  0.4475560000000  0.4646610000000 1.0
C      1  0.4484700000000  0.5330620000000  0.5115170000000 1.0
C      1  0.4468550000000  0.4686300000000  0.4855170000000 1.0
C      1  0.5609320000000  0.4645820000000  0.5149700000000 1.0
C      1  0.4860740000000  0.4854920000000  0.5578830000000 1.0
C      1  0.4553450000000  0.4802750000000  0.5171240000000 1.0
C      1  0.4568510000000  0.5217550000000  0.4782330000000 1.0
C      1  0.5223370000000  0.4562680000000  0.4782330000000 1.0
C      1  0.5169720000000  0.4776750000000  0.4499040000000 1.0
C      1  0.4782570000000  0.5163900000000  0.4499040000000 1.0
C      1  0.4783580000000  0.5474740000000  0.4857860000000 1.0
C      1  0.5480570000000  0.4777750000000  0.4857860000000 1.0
C      1  0.5501710000000  0.5161370000000  0.5235900000000 1.0
C      1  0.5167190000000  0.5495880000000  0.5235900000000 1.0
C      1  0.4808570000000  0.4547630000000  0.5171240000000 1.0
C      1  0.5236960000000  0.5231140000000  0.5447430000000 1.0
C      1  0.5335830000000  0.4954300000000  0.5070970000000 1.0
C      1  0.4960130000000  0.5330010000000  0.5070970000000 1.0
C      1  0.5008980000000  0.4706320000000  0.4983740000000 1.0
C      1  0.5016220000000  0.5010400000000  0.5336100000000 1.0
C      1  0.4712140000000  0.5003150000000  0.4983740000000 1.0
C      1  0.4958340000000  0.4952510000000  0.4648140000000 1.0
END
