TITL C-862505-1648-510 -0.000126902926857957 125000 -108.059686799544 0 0 20 (C2) n - 1
REM
REM in /home/nfs/bkarasulu/CARBON/AIRSS/Generating-Clusters/TERSOFF/Higher-Symm/FIRE-HFTN
REM
REM
REM
REM
REM
REM ./C.cell (b20cbc046b6831c77cfcea5457e17084)
REM AIRSS Version 0.9.1 bugfix July 2018 build 013d7b7c2542+ Fri, 06 Jul 2018 19:26:36 +0100
REM compiler GCC version 9.2.1 20190827 (Red Hat 9.2.1-1)
REM options -cpp -mtune=generic -march=x86-64 -g -O0 -fpre-include=/usr/include/finclude/math-vector-fortran.h
REM seed 246701046 1119567574 705203043 -1582912659 1663991631 133711720 2001814793 -608433903 -354743279 -594497350 1927585192 -214006234 1882730142 -613911035 1316651969 -1950735250 -1763227459 -933153021 -1510943867 323516819 1859248955 -1383677242 -1729977892 -163876163 1225093546 -1830417155 -899107183 2068114354 582847651 1610431523 1922081865 325375486 1410268982
REM
CELL 1.54180   50.00000   50.00000   50.00000   90.00000   90.00000   90.00000
LATT -1
SFAC C  
C      1  0.4883790000000  0.5082620000000  0.4877320000000 1.0
C      1  0.5116210000000  0.4917380000000  0.4877320000000 1.0
C      1  0.5372470000000  0.5229600000000  0.5223210000000 1.0
C      1  0.4627530000000  0.4770400000000  0.5223210000000 1.0
C      1  0.5165590000000  0.4744390000000  0.4647450000000 1.0
C      1  0.4834410000000  0.5255610000000  0.4647450000000 1.0
C      1  0.5012870000000  0.5532550000000  0.5013620000000 1.0
C      1  0.4987130000000  0.4467450000000  0.5013620000000 1.0
C      1  0.5294350000000  0.5459190000000  0.5061270000000 1.0
C      1  0.4705650000000  0.4540810000000  0.5061270000000 1.0
C      1  0.5172670000000  0.4563350000000  0.5225000000000 1.0
C      1  0.4827330000000  0.5436650000000  0.5225000000000 1.0
C      1  0.5186080000000  0.5097200000000  0.5404530000000 1.0
C      1  0.4813920000000  0.4902800000000  0.5404530000000 1.0
C      1  0.5086680000000  0.4478020000000  0.4737170000000 1.0
C      1  0.4913320000000  0.5521980000000  0.4737170000000 1.0
C      1  0.4927010000000  0.5128440000000  0.4396200000000 1.0
C      1  0.5072990000000  0.4871560000000  0.4396200000000 1.0
C      1  0.4891710000000  0.5219550000000  0.5414230000000 1.0
C      1  0.5108290000000  0.4780450000000  0.5414230000000 1.0
END
