TITL C-862501-1041-331 7.38457077113595e-07 125000 -58.7160275910727 0 0 12 (D2d) n - 1
REM
REM in /home/nfs/bkarasulu/CARBON/AIRSS/Generating-Clusters/TERSOFF/Higher-Symm/FIRE-HFTN
REM
REM
REM
REM
REM
REM ./C.cell (b20cbc046b6831c77cfcea5457e17084)
REM AIRSS Version 0.9.1 bugfix July 2018 build 013d7b7c2542+ Fri, 06 Jul 2018 19:26:36 +0100
REM compiler GCC version 9.2.1 20190827 (Red Hat 9.2.1-1)
REM options -cpp -mtune=generic -march=x86-64 -g -O0 -fpre-include=/usr/include/finclude/math-vector-fortran.h
REM seed 126671722 -1331749016 1704842327 -1252339504 457006399 -559206722 -76742151 402399988 2002882447 626193781 1112489760 290488432 -451290735 -735457666 1945008768 354704727 1182228534 -1425050007 -1102399925 1587600247 -1759309393 1910454711 -1472571360 -183418831 -533906765 2074207341 -2085534642 1046399980 -1787178991 -261936236 -1242930094 -1804016886 564117951
REM
CELL 1.54180   50.00000   50.00000   50.00000   90.00000   90.00000   90.00000
LATT -1
SFAC C  
C      1  0.5280770000000  0.4851870000000  0.5056520000000 1.0
C      1  0.4719230000000  0.4851870000000  0.4943480000000 1.0
C      1  0.5280770000000  0.5148130000000  0.4943480000000 1.0
C      1  0.4719230000000  0.5148130000000  0.5056520000000 1.0
C      1  0.5056520000000  0.4851870000000  0.5280770000000 1.0
C      1  0.4943480000000  0.4851870000000  0.4719230000000 1.0
C      1  0.4943480000000  0.5148130000000  0.5280770000000 1.0
C      1  0.5056520000000  0.5148130000000  0.4719230000000 1.0
C      1  0.4822120000000  0.4692200000000  0.5177880000000 1.0
C      1  0.5177880000000  0.4692200000000  0.4822120000000 1.0
C      1  0.4822120000000  0.5307800000000  0.4822120000000 1.0
C      1  0.5177880000000  0.5307800000000  0.5177880000000 1.0
END
