TITL C-862132-7359-442 -7.8693556792834e-05 125000 -466.671841230072 0 0 88 (C5) n - 1
REM
REM in /home/nfs/bkarasulu/CARBON/AIRSS/Generating-Clusters/TERSOFF/Higher-Symm/FIRE-HFTN
REM
REM
REM
REM
REM
REM ./C.cell (b20cbc046b6831c77cfcea5457e17084)
REM AIRSS Version 0.9.1 bugfix July 2018 build 013d7b7c2542+ Fri, 06 Jul 2018 19:26:36 +0100
REM compiler GCC version 9.2.1 20190827 (Red Hat 9.2.1-1)
REM options -cpp -mtune=generic -march=x86-64 -g -O0 -fpre-include=/usr/include/finclude/math-vector-fortran.h
REM seed 997618075 -458161456 569336865 -693887945 1306019016 -247115832 -1514311217 -2084404312 1848474842 -1646599676 -520873117 1066392338 -780115278 511684512 -2073203361 -1659791071 95612102 -1382514728 -1666770923 -1973502240 -585628960 -1694497581 1950124951 -2065119051 1278950003 1074566494 1239294019 277464219 1003459638 301393598 -739778928 -408700937 -1478018602
REM
CELL 1.54180   50.00000   50.00000   50.00000   90.00000   90.00000   90.00000
LATT -1
SFAC C  
C      1  0.4906580000000  0.4388540000000  0.4497760000000 1.0
C      1  0.4493110000000  0.4388540000000  0.4933460000000 1.0
C      1  0.4779680000000  0.4388570000000  0.5461340000000 1.0
C      1  0.5370360000000  0.4388330000000  0.5351950000000 1.0
C      1  0.5448690000000  0.4388540000000  0.4756400000000 1.0
C      1  0.4906510000000  0.5599050000000  0.5502660000000 1.0
C      1  0.4493070000000  0.5598840000000  0.5066890000000 1.0
C      1  0.4779630000000  0.5598840000000  0.4539000000000 1.0
C      1  0.5370240000000  0.5598840000000  0.4648460000000 1.0
C      1  0.5448670000000  0.5598810000000  0.5243970000000 1.0
C      1  0.5296600000000  0.5125480000000  0.5705190000000 1.0
C      1  0.5761800000000  0.5125440000000  0.4935760000000 1.0
C      1  0.5173850000000  0.5125490000000  0.4255330000000 1.0
C      1  0.4345090000000  0.5125450000000  0.4604320000000 1.0
C      1  0.4420940000000  0.5125520000000  0.5500370000000 1.0
C      1  0.5296520000000  0.4861930000000  0.4295190000000 1.0
C      1  0.5761840000000  0.4861860000000  0.5064690000000 1.0
C      1  0.5173800000000  0.4861900000000  0.5745090000000 1.0
C      1  0.4345190000000  0.4861940000000  0.5396040000000 1.0
C      1  0.4420910000000  0.4861890000000  0.4499980000000 1.0
C      1  0.4857810000000  0.5173550000000  0.4215290000000 1.0
C      1  0.4209430000000  0.5173500000000  0.4892540000000 1.0
C      1  0.4653130000000  0.5173700000000  0.5718520000000 1.0
C      1  0.5575690000000  0.5173450000000  0.5551710000000 1.0
C      1  0.5702280000000  0.5173590000000  0.4622790000000 1.0
C      1  0.4857800000000  0.4813930000000  0.5784960000000 1.0
C      1  0.4209390000000  0.4813790000000  0.5107860000000 1.0
C      1  0.4653060000000  0.4813820000000  0.4281820000000 1.0
C      1  0.5575690000000  0.4813880000000  0.4448630000000 1.0
C      1  0.5702220000000  0.4813680000000  0.5377650000000 1.0
C      1  0.4541960000000  0.5403250000000  0.4591680000000 1.0
C      1  0.4469810000000  0.5403250000000  0.5309190000000 1.0
C      1  0.5129890000000  0.5403710000000  0.5600090000000 1.0
C      1  0.5609750000000  0.5403080000000  0.5061630000000 1.0
C      1  0.5246670000000  0.5403260000000  0.4438710000000 1.0
C      1  0.4542190000000  0.4584300000000  0.5408500000000 1.0
C      1  0.4469790000000  0.4584120000000  0.4691130000000 1.0
C      1  0.5129820000000  0.4584130000000  0.4400680000000 1.0
C      1  0.5609930000000  0.4584130000000  0.4938740000000 1.0
C      1  0.5246900000000  0.4583670000000  0.5562070000000 1.0
C      1  0.4777860000000  0.5217840000000  0.4720480000000 1.0
C      1  0.4665150000000  0.5217830000000  0.5124590000000 1.0
C      1  0.5014450000000  0.5218780000000  0.5356930000000 1.0
C      1  0.5343130000000  0.5217780000000  0.5096210000000 1.0
C      1  0.5197030000000  0.5217910000000  0.4702930000000 1.0
C      1  0.4778210000000  0.4769600000000  0.5279760000000 1.0
C      1  0.4665250000000  0.4769470000000  0.4875720000000 1.0
C      1  0.5014680000000  0.4769540000000  0.4643540000000 1.0
C      1  0.5343390000000  0.4769550000000  0.4904210000000 1.0
C      1  0.5197370000000  0.4768600000000  0.5297500000000 1.0
C      1  0.5538810000000  0.4691720000000  0.5617280000000 1.0
C      1  0.5752890000000  0.4691920000000  0.4678240000000 1.0
C      1  0.4926210000000  0.4691900000000  0.4184240000000 1.0
C      1  0.4201020000000  0.4691900000000  0.4817900000000 1.0
C      1  0.4579500000000  0.4692040000000  0.5703290000000 1.0
C      1  0.5538620000000  0.5295480000000  0.4383290000000 1.0
C      1  0.5752830000000  0.5295340000000  0.5322060000000 1.0
C      1  0.4926180000000  0.5295670000000  0.5816330000000 1.0
C      1  0.4201030000000  0.5295460000000  0.5182470000000 1.0
C      1  0.4579470000000  0.5295470000000  0.4296900000000 1.0
C      1  0.5420820000000  0.4511480000000  0.4489890000000 1.0
C      1  0.4644500000000  0.4511440000000  0.4441930000000 1.0
C      1  0.4359080000000  0.4511480000000  0.5165470000000 1.0
C      1  0.4958820000000  0.4511430000000  0.5660670000000 1.0
C      1  0.5615100000000  0.4511380000000  0.5243030000000 1.0
C      1  0.5420900000000  0.5475950000000  0.5510530000000 1.0
C      1  0.4644480000000  0.5476000000000  0.5558390000000 1.0
C      1  0.4358980000000  0.5475900000000  0.4834900000000 1.0
C      1  0.4958840000000  0.5475940000000  0.4339790000000 1.0
C      1  0.5615040000000  0.5475900000000  0.4757390000000 1.0
C      1  0.4889690000000  0.5747630000000  0.4767600000000 1.0
C      1  0.4744470000000  0.5747650000000  0.5032860000000 1.0
C      1  0.4951870000000  0.5747680000000  0.5252960000000 1.0
C      1  0.5225280000000  0.5747640000000  0.5123740000000 1.0
C      1  0.5186840000000  0.5747630000000  0.4823760000000 1.0
C      1  0.4889740000000  0.4239740000000  0.5232760000000 1.0
C      1  0.4744520000000  0.4239750000000  0.4967480000000 1.0
C      1  0.4951910000000  0.4239750000000  0.4747390000000 1.0
C      1  0.5225310000000  0.4239730000000  0.4876630000000 1.0
C      1  0.5186880000000  0.4239700000000  0.5176600000000 1.0
C      1  0.5401220000000  0.4993770000000  0.4708460000000 1.0
C      1  0.4846450000000  0.4993980000000  0.5472290000000 1.0
C      1  0.5401090000000  0.4993400000000  0.5292070000000 1.0
C      1  0.4846250000000  0.4993690000000  0.4528050000000 1.0
C      1  0.4503300000000  0.4993610000000  0.5000200000000 1.0
C      1  0.4999700000000  0.4687630000000  0.4999980000000 1.0
C      1  0.4999490000000  0.5299750000000  0.5000040000000 1.0
C      1  0.5000460000000  0.4993690000000  0.5002660000000 1.0
END
