TITL C-862128-1543-1429 0.0277819628236394 125000 -621.761711883734 0 0 114 (C1) n - 1
REM
REM in /home/nfs/bkarasulu/CARBON/AIRSS/Generating-Clusters/TERSOFF/Higher-Symm/FIRE-HFTN
REM
REM
REM
REM
REM
REM ./C.cell (b20cbc046b6831c77cfcea5457e17084)
REM AIRSS Version 0.9.1 bugfix July 2018 build 013d7b7c2542+ Fri, 06 Jul 2018 19:26:36 +0100
REM compiler GCC version 9.2.1 20190827 (Red Hat 9.2.1-1)
REM options -cpp -mtune=generic -march=x86-64 -g -O0 -fpre-include=/usr/include/finclude/math-vector-fortran.h
REM seed 1063916485 1058557221 -1116563750 1566359171 1217520006 -839850242 -321474429 -2035756905 -1532919162 -2086555724 608257164 1316718888 -80630766 -1251019785 1489632826 1007452757 150203754 1713549177 194888223 1935380626 1582393919 237986019 -1929063055 -1109365942 -286369832 1470658125 -1525219490 -2097607450 1377109094 -339055334 -799150511 616533560 -786472681
REM
CELL 1.54180   50.00000   50.00000   50.00000   90.00000   90.00000   90.00000
LATT -1
SFAC C  
C      1  0.5534530000000  0.4281280000000  0.4388010000000 1.0
C      1  0.4489750000000  0.4284770000000  0.5616630000000 1.0
C      1  0.4656570000000  0.5495400000000  0.5322170000000 1.0
C      1  0.5340920000000  0.5492860000000  0.4670110000000 1.0
C      1  0.4356570000000  0.5012970000000  0.4670310000000 1.0
C      1  0.5639390000000  0.4990890000000  0.5330560000000 1.0
C      1  0.4026310000000  0.5240670000000  0.5019200000000 1.0
C      1  0.5966240000000  0.5240670000000  0.4983160000000 1.0
C      1  0.4850250000000  0.5483140000000  0.5040490000000 1.0
C      1  0.5153790000000  0.5479410000000  0.4952680000000 1.0
C      1  0.5595090000000  0.4516920000000  0.5185350000000 1.0
C      1  0.4437740000000  0.4525840000000  0.4810790000000 1.0
C      1  0.4524450000000  0.5146630000000  0.4215670000000 1.0
C      1  0.5468860000000  0.5138150000000  0.5780480000000 1.0
C      1  0.5606730000000  0.4652970000000  0.4917470000000 1.0
C      1  0.4407080000000  0.4662740000000  0.5077360000000 1.0
C      1  0.4634000000000  0.4627880000000  0.4219270000000 1.0
C      1  0.5355190000000  0.4620510000000  0.5760410000000 1.0
C      1  0.4604950000000  0.4767640000000  0.4643690000000 1.0
C      1  0.5368540000000  0.4750360000000  0.5340260000000 1.0
C      1  0.5696180000000  0.4921630000000  0.5022740000000 1.0
C      1  0.4301940000000  0.4927030000000  0.4975340000000 1.0
C      1  0.4940510000000  0.4858120000000  0.4548600000000 1.0
C      1  0.5049420000000  0.4873230000000  0.5470120000000 1.0
C      1  0.5528170000000  0.5117880000000  0.4889920000000 1.0
C      1  0.4465020000000  0.5119280000000  0.5115190000000 1.0
C      1  0.4375530000000  0.5593190000000  0.5228540000000 1.0
C      1  0.5622910000000  0.5594670000000  0.4754870000000 1.0
C      1  0.4888950000000  0.4696940000000  0.4086490000000 1.0
C      1  0.5100200000000  0.4687900000000  0.5896760000000 1.0
C      1  0.4715970000000  0.4457120000000  0.5273520000000 1.0
C      1  0.5231110000000  0.4431940000000  0.4699490000000 1.0
C      1  0.4498390000000  0.4597140000000  0.5651930000000 1.0
C      1  0.5503780000000  0.4599370000000  0.4358150000000 1.0
C      1  0.4448540000000  0.4981070000000  0.5413570000000 1.0
C      1  0.5544900000000  0.4963050000000  0.4595740000000 1.0
C      1  0.5184100000000  0.5787820000000  0.5238070000000 1.0
C      1  0.4806750000000  0.5781830000000  0.4748680000000 1.0
C      1  0.5846970000000  0.5226890000000  0.5268580000000 1.0
C      1  0.4137940000000  0.5233620000000  0.4730990000000 1.0
C      1  0.5366680000000  0.5329840000000  0.4257750000000 1.0
C      1  0.4623330000000  0.5350280000000  0.5747290000000 1.0
C      1  0.5123010000000  0.4437650000000  0.4957220000000 1.0
C      1  0.4811250000000  0.4495940000000  0.5000280000000 1.0
C      1  0.4970090000000  0.5173430000000  0.5592270000000 1.0
C      1  0.5018110000000  0.5161850000000  0.4420220000000 1.0
C      1  0.5859600000000  0.4850640000000  0.4641130000000 1.0
C      1  0.4143350000000  0.4853290000000  0.5363610000000 1.0
C      1  0.5796740000000  0.4809520000000  0.5541600000000 1.0
C      1  0.4211300000000  0.4818690000000  0.4462890000000 1.0
C      1  0.5169760000000  0.5103650000000  0.5231250000000 1.0
C      1  0.4855230000000  0.5074400000000  0.4796710000000 1.0
C      1  0.5597610000000  0.5193150000000  0.4405250000000 1.0
C      1  0.4392660000000  0.5208320000000  0.5602790000000 1.0
C      1  0.5639150000000  0.5391430000000  0.5699790000000 1.0
C      1  0.4352870000000  0.5399180000000  0.4300980000000 1.0
C      1  0.5193790000000  0.5033840000000  0.4909790000000 1.0
C      1  0.4774490000000  0.5035960000000  0.5106820000000 1.0
C      1  0.5277590000000  0.5543510000000  0.5438430000000 1.0
C      1  0.4716780000000  0.5528880000000  0.4559530000000 1.0
C      1  0.4514690000000  0.4805990000000  0.5884130000000 1.0
C      1  0.5478550000000  0.4804230000000  0.4123000000000 1.0
C      1  0.4934370000000  0.5452570000000  0.4374550000000 1.0
C      1  0.5055640000000  0.5467760000000  0.5620150000000 1.0
C      1  0.4623570000000  0.5236380000000  0.4669750000000 1.0
C      1  0.5400370000000  0.5260500000000  0.5340110000000 1.0
C      1  0.4716310000000  0.5880790000000  0.5040290000000 1.0
C      1  0.5273520000000  0.5881450000000  0.4944200000000 1.0
C      1  0.5427400000000  0.4326970000000  0.5701780000000 1.0
C      1  0.4563920000000  0.4335700000000  0.4278200000000 1.0
C      1  0.5275320000000  0.5036900000000  0.4112840000000 1.0
C      1  0.4717130000000  0.5037000000000  0.5898040000000 1.0
C      1  0.5216920000000  0.5171300000000  0.5932060000000 1.0
C      1  0.4781480000000  0.5182780000000  0.4073880000000 1.0
C      1  0.5553740000000  0.4848650000000  0.5718560000000 1.0
C      1  0.4437200000000  0.4855650000000  0.4268920000000 1.0
C      1  0.5518760000000  0.4242640000000  0.5185420000000 1.0
C      1  0.4522870000000  0.4255600000000  0.4799180000000 1.0
C      1  0.5203790000000  0.5617250000000  0.4412410000000 1.0
C      1  0.4785650000000  0.5629900000000  0.5578010000000 1.0
C      1  0.5406930000000  0.4206670000000  0.4649060000000 1.0
C      1  0.4591550000000  0.4198700000000  0.5342420000000 1.0
C      1  0.4913090000000  0.4776320000000  0.5086060000000 1.0
C      1  0.5220580000000  0.4722540000000  0.5065730000000 1.0
C      1  0.5768220000000  0.5462080000000  0.5427030000000 1.0
C      1  0.4225460000000  0.5470580000000  0.4576520000000 1.0
C      1  0.5618970000000  0.5590020000000  0.5198670000000 1.0
C      1  0.4383120000000  0.5580210000000  0.4808820000000 1.0
C      1  0.4160670000000  0.4614250000000  0.4686960000000 1.0
C      1  0.5860840000000  0.4611430000000  0.5314590000000 1.0
C      1  0.5008070000000  0.4963880000000  0.5953290000000 1.0
C      1  0.4986860000000  0.4972600000000  0.4047450000000 1.0
C      1  0.5995450000000  0.4935280000000  0.4911610000000 1.0
C      1  0.4005700000000  0.4932750000000  0.5092410000000 1.0
C      1  0.5098490000000  0.5833900000000  0.4685090000000 1.0
C      1  0.4891780000000  0.5841040000000  0.5300940000000 1.0
C      1  0.5513020000000  0.4089720000000  0.4916790000000 1.0
C      1  0.4520090000000  0.4086930000000  0.5054700000000 1.0
C      1  0.4620010000000  0.4178640000000  0.4531870000000 1.0
C      1  0.5392320000000  0.4169640000000  0.5442850000000 1.0
C      1  0.5711060000000  0.4579040000000  0.4625520000000 1.0
C      1  0.4304860000000  0.4588500000000  0.5375760000000 1.0
C      1  0.5274260000000  0.4722260000000  0.4562470000000 1.0
C      1  0.4714390000000  0.4737680000000  0.5453310000000 1.0
C      1  0.4144980000000  0.5342840000000  0.5525890000000 1.0
C      1  0.5846170000000  0.5329230000000  0.4473940000000 1.0
C      1  0.6063300000000  0.4714240000000  0.5119320000000 1.0
C      1  0.3954050000000  0.4703490000000  0.4885330000000 1.0
C      1  0.5872830000000  0.5428290000000  0.4752220000000 1.0
C      1  0.4124870000000  0.5431280000000  0.5243940000000 1.0
C      1  0.4574740000000  0.5378230000000  0.4927840000000 1.0
C      1  0.5432300000000  0.5386070000000  0.5065440000000 1.0
C      1  0.4788360000000  0.5220960000000  0.5361840000000 1.0
C      1  0.5213800000000  0.5215800000000  0.4631860000000 1.0
END
