TITL C-862128-1543-724 5.11080230316231e-06 125000 -730.577432359073 0 0 130 (T23) n - 1
REM
REM in /home/nfs/bkarasulu/CARBON/AIRSS/Generating-Clusters/TERSOFF/Higher-Symm/FIRE-HFTN
REM
REM
REM
REM
REM
REM ./C.cell (b20cbc046b6831c77cfcea5457e17084)
REM AIRSS Version 0.9.1 bugfix July 2018 build 013d7b7c2542+ Fri, 06 Jul 2018 19:26:36 +0100
REM compiler GCC version 9.2.1 20190827 (Red Hat 9.2.1-1)
REM options -cpp -mtune=generic -march=x86-64 -g -O0 -fpre-include=/usr/include/finclude/math-vector-fortran.h
REM seed -949525103 -1958784638 -1397400163 1623422563 -235757811 -1717904523 -1777551185 915609467 -852903486 -687383433 -1327267187 2093073428 1093148946 -1980656021 -1445162421 560390920 -874195804 1556494443 1488948285 -1946222215 1280017439 372670579 591191311 1048873184 -1349100410 1535685939 2054253590 1145767761 -1549994508 -1539329608 1434925772 1505106136 741160383
REM
CELL 1.54180   50.00000   50.00000   50.00000   90.00000   90.00000   90.00000
LATT -1
SFAC C  
C      1  0.5750300000000  0.5670840000000  0.5040810000000 1.0
C      1  0.5038130000000  0.5752710000000  0.5671090000000 1.0
C      1  0.5668400000000  0.5040540000000  0.5752960000000 1.0
C      1  0.5750290000000  0.4325410000000  0.4955920000000 1.0
C      1  0.4241100000000  0.4325420000000  0.5040770000000 1.0
C      1  0.4241100000000  0.5670850000000  0.4955930000000 1.0
C      1  0.5038130000000  0.4243550000000  0.4325630000000 1.0
C      1  0.4953260000000  0.4243520000000  0.5671050000000 1.0
C      1  0.4953280000000  0.5752740000000  0.4325660000000 1.0
C      1  0.5668420000000  0.4955710000000  0.4243760000000 1.0
C      1  0.4322980000000  0.4955690000000  0.5752950000000 1.0
C      1  0.4322990000000  0.5040580000000  0.4243750000000 1.0
C      1  0.4736630000000  0.4930110000000  0.4025520000000 1.0
C      1  0.4022860000000  0.4739060000000  0.4930300000000 1.0
C      1  0.4927650000000  0.4025300000000  0.4739260000000 1.0
C      1  0.4736610000000  0.5066150000000  0.5971190000000 1.0
C      1  0.5254780000000  0.5066190000000  0.4025530000000 1.0
C      1  0.5254760000000  0.4930070000000  0.5971190000000 1.0
C      1  0.4022860000000  0.5257210000000  0.5066390000000 1.0
C      1  0.5968530000000  0.5257200000000  0.4930330000000 1.0
C      1  0.5968530000000  0.4739050000000  0.5066400000000 1.0
C      1  0.4927660000000  0.5970960000000  0.5257450000000 1.0
C      1  0.5063750000000  0.5970970000000  0.4739300000000 1.0
C      1  0.5063730000000  0.4025290000000  0.5257410000000 1.0
C      1  0.5213570000000  0.4005570000000  0.4351500000000 1.0
C      1  0.4348880000000  0.5216020000000  0.4005780000000 1.0
C      1  0.4003120000000  0.4351300000000  0.5216200000000 1.0
C      1  0.5213570000000  0.5990690000000  0.5645210000000 1.0
C      1  0.4777840000000  0.5990720000000  0.4351540000000 1.0
C      1  0.4777820000000  0.4005540000000  0.5645170000000 1.0
C      1  0.4348850000000  0.4780240000000  0.5990920000000 1.0
C      1  0.5642540000000  0.4780280000000  0.4005780000000 1.0
C      1  0.5642520000000  0.5215970000000  0.5990940000000 1.0
C      1  0.4003130000000  0.5644970000000  0.4780490000000 1.0
C      1  0.5988270000000  0.5644950000000  0.5216250000000 1.0
C      1  0.5988270000000  0.4351290000000  0.4780480000000 1.0
C      1  0.5393880000000  0.4854910000000  0.3866610000000 1.0
C      1  0.3863950000000  0.5396310000000  0.4855110000000 1.0
C      1  0.4852450000000  0.3866370000000  0.5396500000000 1.0
C      1  0.5393860000000  0.5141340000000  0.6130110000000 1.0
C      1  0.4597540000000  0.5141400000000  0.3866610000000 1.0
C      1  0.4597510000000  0.4854870000000  0.6130100000000 1.0
C      1  0.3863950000000  0.4599960000000  0.5141580000000 1.0
C      1  0.6127440000000  0.4599950000000  0.4855120000000 1.0
C      1  0.6127450000000  0.5396290000000  0.5141620000000 1.0
C      1  0.4852470000000  0.6129890000000  0.4600200000000 1.0
C      1  0.5138940000000  0.6129870000000  0.5396560000000 1.0
C      1  0.5138940000000  0.3866390000000  0.4600160000000 1.0
C      1  0.4921490000000  0.4761390000000  0.5656730000000 1.0
C      1  0.5654080000000  0.4923930000000  0.4761640000000 1.0
C      1  0.4758980000000  0.5656520000000  0.4924160000000 1.0
C      1  0.4921500000000  0.5234860000000  0.4339980000000 1.0
C      1  0.5069900000000  0.5234830000000  0.5656750000000 1.0
C      1  0.5069910000000  0.4761420000000  0.4339970000000 1.0
C      1  0.5654080000000  0.5072320000000  0.5235080000000 1.0
C      1  0.4337320000000  0.5072340000000  0.4761630000000 1.0
C      1  0.4337310000000  0.4923920000000  0.5235070000000 1.0
C      1  0.4758970000000  0.4339740000000  0.5072540000000 1.0
C      1  0.5232410000000  0.4339740000000  0.4924140000000 1.0
C      1  0.5232420000000  0.5656510000000  0.5072580000000 1.0
C      1  0.5463860000000  0.5186130000000  0.4232280000000 1.0
C      1  0.4229610000000  0.5466290000000  0.5186350000000 1.0
C      1  0.5183680000000  0.4232030000000  0.5466500000000 1.0
C      1  0.5463850000000  0.4810120000000  0.5764440000000 1.0
C      1  0.4527550000000  0.4810160000000  0.4232260000000 1.0
C      1  0.4527530000000  0.5186100000000  0.5764440000000 1.0
C      1  0.4229610000000  0.4529980000000  0.4810350000000 1.0
C      1  0.5761780000000  0.4529960000000  0.5186340000000 1.0
C      1  0.5761790000000  0.5466290000000  0.4810390000000 1.0
C      1  0.5183690000000  0.5764220000000  0.4530220000000 1.0
C      1  0.4807710000000  0.5764210000000  0.5466530000000 1.0
C      1  0.4807710000000  0.4232050000000  0.4530180000000 1.0
C      1  0.4219920000000  0.5135530000000  0.4499580000000 1.0
C      1  0.4496920000000  0.4222340000000  0.5135720000000 1.0
C      1  0.5133090000000  0.4499370000000  0.4222560000000 1.0
C      1  0.4219910000000  0.4860730000000  0.5497120000000 1.0
C      1  0.5771490000000  0.4860740000000  0.4499590000000 1.0
C      1  0.5771480000000  0.5135500000000  0.5497140000000 1.0
C      1  0.4496930000000  0.5773920000000  0.4860980000000 1.0
C      1  0.5494470000000  0.5773910000000  0.5135770000000 1.0
C      1  0.5494460000000  0.4222340000000  0.4860950000000 1.0
C      1  0.5133080000000  0.5496880000000  0.5774150000000 1.0
C      1  0.4858320000000  0.5496920000000  0.4222580000000 1.0
C      1  0.4858300000000  0.4499340000000  0.5774130000000 1.0
C      1  0.4502370000000  0.5339290000000  0.5202310000000 1.0
C      1  0.5199640000000  0.4504800000000  0.5339510000000 1.0
C      1  0.5336860000000  0.5202090000000  0.4505040000000 1.0
C      1  0.4502370000000  0.4656970000000  0.4794390000000 1.0
C      1  0.5489020000000  0.4656960000000  0.5202300000000 1.0
C      1  0.5489020000000  0.5339290000000  0.4794420000000 1.0
C      1  0.5199650000000  0.5491460000000  0.4657210000000 1.0
C      1  0.4791750000000  0.5491450000000  0.5339530000000 1.0
C      1  0.4791750000000  0.4504810000000  0.4657180000000 1.0
C      1  0.5336850000000  0.4794170000000  0.5491680000000 1.0
C      1  0.4654540000000  0.4794190000000  0.4505020000000 1.0
C      1  0.4654530000000  0.5202070000000  0.5491680000000 1.0
C      1  0.4405040000000  0.4553600000000  0.4154750000000 1.0
C      1  0.4152100000000  0.4407480000000  0.4553780000000 1.0
C      1  0.4551140000000  0.4154550000000  0.4407670000000 1.0
C      1  0.4405030000000  0.5442670000000  0.5841950000000 1.0
C      1  0.5586370000000  0.5442700000000  0.4154780000000 1.0
C      1  0.5586350000000  0.4553550000000  0.5841950000000 1.0
C      1  0.4152100000000  0.5588780000000  0.5442910000000 1.0
C      1  0.5839300000000  0.5588790000000  0.4553820000000 1.0
C      1  0.5839280000000  0.4407450000000  0.5442910000000 1.0
C      1  0.4551140000000  0.5841710000000  0.5589030000000 1.0
C      1  0.5440260000000  0.5841730000000  0.4407720000000 1.0
C      1  0.5440240000000  0.4154520000000  0.5589000000000 1.0
C      1  0.4805540000000  0.4628480000000  0.5085810000000 1.0
C      1  0.5083160000000  0.4807990000000  0.4628710000000 1.0
C      1  0.4626050000000  0.5085600000000  0.4808200000000 1.0
C      1  0.4805550000000  0.5367780000000  0.4910900000000 1.0
C      1  0.5185850000000  0.5367770000000  0.5085830000000 1.0
C      1  0.5185850000000  0.4628480000000  0.4910880000000 1.0
C      1  0.5083160000000  0.5188270000000  0.5368010000000 1.0
C      1  0.4908240000000  0.5188290000000  0.4628710000000 1.0
C      1  0.4908230000000  0.4807970000000  0.5368000000000 1.0
C      1  0.4626050000000  0.4910660000000  0.5188500000000 1.0
C      1  0.5365340000000  0.4910670000000  0.4808210000000 1.0
C      1  0.5365340000000  0.5085590000000  0.5188510000000 1.0
C      1  0.5830240000000  0.4998120000000  0.4998360000000 1.0
C      1  0.4995700000000  0.5832680000000  0.4998370000000 1.0
C      1  0.4995710000000  0.4998150000000  0.4163810000000 1.0
C      1  0.4995690000000  0.4998110000000  0.5832900000000 1.0
C      1  0.4161150000000  0.4998130000000  0.4998350000000 1.0
C      1  0.4995690000000  0.4163580000000  0.4998340000000 1.0
C      1  0.4341070000000  0.4343520000000  0.4343710000000 1.0
C      1  0.4341070000000  0.5652750000000  0.5652990000000 1.0
C      1  0.5650340000000  0.5652770000000  0.4343750000000 1.0
C      1  0.5650320000000  0.4343480000000  0.5652980000000 1.0
END
