TITL C-862131-2149-845 1288672.825199 125000 -694.964541325722 0 0 121 (C1) n - 1
REM
REM in /home/nfs/bkarasulu/CARBON/AIRSS/Generating-Clusters/TERSOFF/Higher-Symm/FIRE-HFTN
REM
REM
REM
REM
REM
REM ./C.cell (b20cbc046b6831c77cfcea5457e17084)
REM AIRSS Version 0.9.1 bugfix July 2018 build 013d7b7c2542+ Fri, 06 Jul 2018 19:26:36 +0100
REM compiler GCC version 9.2.1 20190827 (Red Hat 9.2.1-1)
REM options -cpp -mtune=generic -march=x86-64 -g -O0 -fpre-include=/usr/include/finclude/math-vector-fortran.h
REM seed -949334748 -1140972363 -1648627257 1683503303 2101663788 -1522782152 -999811902 1329421901 -121680477 -825239290 1150086044 464908576 1603541454 1214434609 1452165533 773362279 -278189002 792515974 814342526 -1505481124 -1786346865 163551495 -1074578260 1451842595 -1218936447 1711163073 65249293 922652210 -1548317453 -945698454 -1092190416 -650225643 494121527
REM
CELL 1.54180   50.00000   50.00000   50.00000   90.00000   90.00000   90.00000
LATT -1
SFAC C  
C      1  0.4385960000000  0.5173620000000  0.5285320000000 1.0
C      1  0.5798990000000  0.4257670000000  0.4877180000000 1.0
C      1  0.5711750000000  0.4872540000000  0.4341130000000 1.0
C      1  0.4587020000000  0.5456140000000  0.3901160000000 1.0
C      1  0.4504410000000  0.4200420000000  0.4239800000000 1.0
C      1  0.4123040000000  0.4808650000000  0.5020380000000 1.0
C      1  0.4945210000000  0.4917040000000  0.4708980000000 1.0
C      1  0.5290640000000  0.4403420000000  0.5744000000000 1.0
C      1  0.4889580000000  0.5991960000000  0.5064900000000 1.0
C      1  0.4261360000000  0.5373900000000  0.5121370000000 1.0
C      1  0.4398360000000  0.5735310000000  0.4778640000000 1.0
C      1  0.4553590000000  0.5109620000000  0.5964100000000 1.0
C      1  0.4923960000000  0.4136180000000  0.4478450000000 1.0
C      1  0.5542350000000  0.5151450000000  0.5847610000000 1.0
C      1  0.4503110000000  0.5627450000000  0.5571130000000 1.0
C      1  0.6103150000000  0.5471900000000  0.4945900000000 1.0
C      1  0.4782430000000  0.5716770000000  0.4377470000000 1.0
C      1  0.4280380000000  0.4571920000000  0.5179390000000 1.0
C      1  0.4306920000000  0.4800130000000  0.4565790000000 1.0
C      1  0.4110650000000  0.4520170000000  0.4221430000000 1.0
C      1  0.4011700000000  0.5308370000000  0.4993050000000 1.0
C      1  0.5963940000000  0.5716150000000  0.5344520000000 1.0
C      1  0.3963070000000  0.5451960000000  0.4740750000000 1.0
C      1  0.4971320000000  0.4919660000000  0.6107470000000 1.0
C      1  0.5144080000000  0.5750500000000  0.4381900000000 1.0
C      1  0.4751050000000  0.4086040000000  0.4891290000000 1.0
C      1  0.5763900000000  0.5147540000000  0.4758790000000 1.0
C      1  0.5498500000000  0.5845120000000  0.5472130000000 1.0
C      1  0.5020730000000  0.5112230000000  0.4955450000000 1.0
C      1  0.5024140000000  0.4203040000000  0.5362150000000 1.0
C      1  0.5068100000000  0.5153640000000  0.5612440000000 1.0
C      1  0.4771240000000  0.5322270000000  0.5918440000000 1.0
C      1  0.5751470000000  0.4524250000000  0.5403550000000 1.0
C      1  0.4362730000000  0.4444800000000  0.4092210000000 1.0
C      1  0.5590110000000  0.4190170000000  0.5065660000000 1.0
C      1  0.5318760000000  0.5277520000000  0.5501840000000 1.0
C      1  0.4399220000000  0.5626510000000  0.5065550000000 1.0
C      1  0.5766650000000  0.5584200000000  0.4552720000000 1.0
C      1  0.5262530000000  0.5458150000000  0.5265750000000 1.0
C      1  0.4220930000000  0.4343660000000  0.4668950000000 1.0
C      1  0.5165610000000  0.5941230000000  0.5145760000000 1.0
C      1  0.4585740000000  0.5225630000000  0.5481100000000 1.0
C      1  0.5574910000000  0.5402470000000  0.4394630000000 1.0
C      1  0.5638250000000  0.5112230000000  0.4496600000000 1.0
C      1  0.4646730000000  0.5848120000000  0.4633620000000 1.0
C      1  0.4590680000000  0.4531350000000  0.5339860000000 1.0
C      1  0.4520200000000  0.5754280000000  0.5302470000000 1.0
C      1  0.4385200000000  0.4414010000000  0.4909210000000 1.0
C      1  0.5374610000000  0.4703770000000  0.5251020000000 1.0
C      1  0.4549400000000  0.4809580000000  0.4414880000000 1.0
C      1  0.4874310000000  0.5972080000000  0.4773400000000 1.0
C      1  0.4667260000000  0.4363850000000  0.4868440000000 1.0
C      1  0.6067300000000  0.5473500000000  0.5233790000000 1.0
C      1  0.4617440000000  0.5457190000000  0.4188920000000 1.0
C      1  0.4568710000000  0.4987650000000  0.4954040000000 1.0
C      1  0.5162500000000  0.3978710000000  0.4905570000000 1.0
C      1  0.4127000000000  0.4576030000000  0.4508510000000 1.0
C      1  0.4242970000000  0.5515470000000  0.5646640000000 1.0
C      1  0.5299050000000  0.5476190000000  0.4305840000000 1.0
C      1  0.5316640000000  0.5304620000000  0.5974040000000 1.0
C      1  0.5241600000000  0.5754760000000  0.5362920000000 1.0
C      1  0.5302440000000  0.4283970000000  0.5480560000000 1.0
C      1  0.4831010000000  0.4353740000000  0.4266190000000 1.0
C      1  0.5855410000000  0.4527980000000  0.4780490000000 1.0
C      1  0.4880730000000  0.4601400000000  0.4855350000000 1.0
C      1  0.5183230000000  0.4886340000000  0.4535220000000 1.0
C      1  0.4815900000000  0.5578510000000  0.5062110000000 1.0
C      1  0.5157100000000  0.5254960000000  0.4163870000000 1.0
C      1  0.5080480000000  0.4594290000000  0.5800710000000 1.0
C      1  0.5326680000000  0.5371650000000  0.4779580000000 1.0
C      1  0.4876530000000  0.5458610000000  0.4519050000000 1.0
C      1  0.5457910000000  0.5463210000000  0.5023950000000 1.0
C      1  0.4761300000000  0.4802090000000  0.5067950000000 1.0
C      1  0.4607580000000  0.4605780000000  0.4211970000000 1.0
C      1  0.4876950000000  0.4838520000000  0.5330570000000 1.0
C      1  0.4857150000000  0.4429690000000  0.5236760000000 1.0
C      1  0.5356420000000  0.5926370000000  0.4905890000000 1.0
C      1  0.4819280000000  0.4469910000000  0.5775480000000 1.0
C      1  0.4152750000000  0.5651310000000  0.4633430000000 1.0
C      1  0.5562360000000  0.5083870000000  0.5543720000000 1.0
C      1  0.5377820000000  0.4843210000000  0.5503250000000 1.0
C      1  0.4786860000000  0.5232190000000  0.4360630000000 1.0
C      1  0.4350220000000  0.4134230000000  0.4491650000000 1.0
C      1  0.5835570000000  0.4765130000000  0.5249310000000 1.0
C      1  0.5936280000000  0.4739160000000  0.4970450000000 1.0
C      1  0.4367070000000  0.4741060000000  0.5696410000000 1.0
C      1  0.5505670000000  0.4509880000000  0.4388300000000 1.0
C      1  0.5038640000000  0.3971240000000  0.5175030000000 1.0
C      1  0.5895240000000  0.5405430000000  0.4758440000000 1.0
C      1  0.4204640000000  0.4595690000000  0.5492290000000 1.0
C      1  0.4589770000000  0.4620640000000  0.5875560000000 1.0
C      1  0.4864330000000  0.5246850000000  0.5426440000000 1.0
C      1  0.5097540000000  0.4434910000000  0.4118400000000 1.0
C      1  0.5154530000000  0.5916830000000  0.4656500000000 1.0
C      1  0.5647340000000  0.5042830000000  0.4996630000000 1.0
C      1  0.5111420000000  0.4186860000000  0.4700920000000 1.0
C      1  0.5797750000000  0.4587170000000  0.4494700000000 1.0
C      1  0.4749780000000  0.5552100000000  0.5725920000000 1.0
C      1  0.5514120000000  0.4720220000000  0.4129430000000 1.0
C      1  0.5547920000000  0.4326960000000  0.5315940000000 1.0
C      1  0.6047000000000  0.5221410000000  0.5386980000000 1.0
C      1  0.4346040000000  0.5034810000000  0.5768350000000 1.0
C      1  0.4974390000000  0.5352160000000  0.5162610000000 1.0
C      1  0.4179070000000  0.5233180000000  0.5645930000000 1.0
C      1  0.5580930000000  0.5737920000000  0.5004340000000 1.0
C      1  0.5344650000000  0.4305040000000  0.4230630000000 1.0
C      1  0.5058060000000  0.5468210000000  0.4737390000000 1.0
C      1  0.4680600000000  0.4850770000000  0.6061100000000 1.0
C      1  0.5208820000000  0.4738500000000  0.4066590000000 1.0
C      1  0.4812930000000  0.4228430000000  0.5602690000000 1.0
C      1  0.5815060000000  0.5035780000000  0.5381560000000 1.0
C      1  0.3923470000000  0.5030200000000  0.5050050000000 1.0
C      1  0.4745260000000  0.4991860000000  0.4501960000000 1.0
C      1  0.5708550000000  0.5821940000000  0.5270330000000 1.0
C      1  0.5152940000000  0.4967800000000  0.4253270000000 1.0
C      1  0.5146650000000  0.4466030000000  0.4767580000000 1.0
C      1  0.5039420000000  0.5201430000000  0.6028370000000 1.0
C      1  0.5491970000000  0.4803030000000  0.5010780000000 1.0
C      1  0.5132620000000  0.4856220000000  0.5663210000000 1.0
C      1  0.5316020000000  0.4631830000000  0.4592990000000 1.0
C      1  0.4318680000000  0.4903940000000  0.4834210000000 1.0
END
