TITL C-862506-1665-1421 0.0361663675978181 125000 -107.626215222421 0 0 23 (C1) n - 1
REM
REM in /home/nfs/bkarasulu/CARBON/AIRSS/Generating-Clusters/TERSOFF/Higher-Symm/FIRE-HFTN
REM
REM
REM
REM
REM
REM ./C.cell (b20cbc046b6831c77cfcea5457e17084)
REM AIRSS Version 0.9.1 bugfix July 2018 build 013d7b7c2542+ Fri, 06 Jul 2018 19:26:36 +0100
REM compiler GCC version 9.2.1 20190827 (Red Hat 9.2.1-1)
REM options -cpp -mtune=generic -march=x86-64 -g -O0 -fpre-include=/usr/include/finclude/math-vector-fortran.h
REM seed -730755514 190842643 393044853 137487358 -228292511 -727711198 730377648 1419472191 864006395 453009391 -363757184 65123387 1420295762 -2130338962 108530018 1084091949 1040246925 -395266102 -1508588042 85113336 758007596 1597716852 -571362145 2049633796 1054624283 2007228728 -812569840 -1527344705 -1047814700 1230539308 87486581 115760920 -662948412
REM
CELL 1.54180   50.00000   50.00000   50.00000   90.00000   90.00000   90.00000
LATT -1
SFAC C  
C      1  0.4876580000000  0.5693490000000  0.4746950000000 1.0
C      1  0.4967420000000  0.4319510000000  0.5092460000000 1.0
C      1  0.5428310000000  0.4740290000000  0.4743350000000 1.0
C      1  0.5462600000000  0.5384320000000  0.4962020000000 1.0
C      1  0.4406620000000  0.5155270000000  0.4792590000000 1.0
C      1  0.4436630000000  0.4852460000000  0.5264810000000 1.0
C      1  0.4964730000000  0.4581570000000  0.4912260000000 1.0
C      1  0.4953310000000  0.5475930000000  0.4962300000000 1.0
C      1  0.4636290000000  0.5302890000000  0.4982810000000 1.0
C      1  0.4659870000000  0.4723040000000  0.5051060000000 1.0
C      1  0.4393960000000  0.4741970000000  0.4862870000000 1.0
C      1  0.4388620000000  0.5263800000000  0.5196950000000 1.0
C      1  0.4713190000000  0.4443800000000  0.5218440000000 1.0
C      1  0.4596150000000  0.5557700000000  0.4758270000000 1.0
C      1  0.5188560000000  0.4774100000000  0.4901940000000 1.0
C      1  0.5186900000000  0.5297080000000  0.4949450000000 1.0
C      1  0.5672010000000  0.5249250000000  0.5109250000000 1.0
C      1  0.5690070000000  0.4839900000000  0.4816420000000 1.0
C      1  0.5896450000000  0.4830250000000  0.5275730000000 1.0
C      1  0.4804730000000  0.5020630000000  0.5045180000000 1.0
C      1  0.5095170000000  0.5027760000000  0.5009690000000 1.0
C      1  0.4231740000000  0.4996680000000  0.5035130000000 1.0
C      1  0.5752840000000  0.4973130000000  0.5067130000000 1.0
END
