TITL C-862134-6730-608 0.265525630059985 125000 -226.230208388102 0 0 44 (C1) n - 1
REM
REM in /home/nfs/bkarasulu/CARBON/AIRSS/Generating-Clusters/TERSOFF/Higher-Symm/FIRE-HFTN
REM
REM
REM
REM
REM
REM ./C.cell (b20cbc046b6831c77cfcea5457e17084)
REM AIRSS Version 0.9.1 bugfix July 2018 build 013d7b7c2542+ Fri, 06 Jul 2018 19:26:36 +0100
REM compiler GCC version 9.2.1 20190827 (Red Hat 9.2.1-1)
REM options -cpp -mtune=generic -march=x86-64 -g -O0 -fpre-include=/usr/include/finclude/math-vector-fortran.h
REM seed 1418082553 541058481 631450547 -1009801094 188891766 -448567251 -939126627 269391419 1123909811 -231043069 -693078454 1398964704 -55165605 -132106577 1342022057 -1269406527 -2130759083 -1508081078 1298064774 -712276573 1879610023 354583464 907527743 -1229973533 1971578839 116122960 -405568560 1589698862 1841976600 -245872904 293458758 1702081091 -1304000469
REM
CELL 1.54180   50.00000   50.00000   50.00000   90.00000   90.00000   90.00000
LATT -1
SFAC C  
C      1  0.5287440000000  0.4852730000000  0.5551120000000 1.0
C      1  0.4727860000000  0.4792820000000  0.5542500000000 1.0
C      1  0.4955000000000  0.5308310000000  0.5554210000000 1.0
C      1  0.4911510000000  0.4546370000000  0.5577890000000 1.0
C      1  0.4652600000000  0.5269770000000  0.5600470000000 1.0
C      1  0.5402920000000  0.5134060000000  0.5608570000000 1.0
C      1  0.5620430000000  0.5305910000000  0.4962890000000 1.0
C      1  0.4970920000000  0.4311590000000  0.4912230000000 1.0
C      1  0.4443240000000  0.5369310000000  0.4941780000000 1.0
C      1  0.5207820000000  0.5367730000000  0.4905750000000 1.0
C      1  0.5236980000000  0.4635760000000  0.4889580000000 1.0
C      1  0.4572880000000  0.4971340000000  0.4907120000000 1.0
C      1  0.5304960000000  0.5136590000000  0.4438880000000 1.0
C      1  0.5008260000000  0.4712050000000  0.4402220000000 1.0
C      1  0.4788880000000  0.5192430000000  0.4466060000000 1.0
C      1  0.4506010000000  0.4784400000000  0.5344250000000 1.0
C      1  0.5053360000000  0.5503810000000  0.5352060000000 1.0
C      1  0.5411480000000  0.4677270000000  0.5342970000000 1.0
C      1  0.5000280000000  0.4415390000000  0.5318140000000 1.0
C      1  0.4485860000000  0.5270270000000  0.5347620000000 1.0
C      1  0.5487790000000  0.5284160000000  0.5360680000000 1.0
C      1  0.4511800000000  0.4410280000000  0.5088190000000 1.0
C      1  0.4759770000000  0.5669070000000  0.4695040000000 1.0
C      1  0.5723500000000  0.4893830000000  0.4696240000000 1.0
C      1  0.5294870000000  0.5445550000000  0.5188450000000 1.0
C      1  0.5245530000000  0.4504570000000  0.5164700000000 1.0
C      1  0.4440260000000  0.5022100000000  0.5177840000000 1.0
C      1  0.4941670000000  0.5245250000000  0.4905120000000 1.0
C      1  0.5270890000000  0.4928110000000  0.4923290000000 1.0
C      1  0.4806270000000  0.4796490000000  0.4947320000000 1.0
C      1  0.5349370000000  0.5351520000000  0.4645350000000 1.0
C      1  0.5155660000000  0.4542270000000  0.4613880000000 1.0
C      1  0.4551160000000  0.5101440000000  0.4636840000000 1.0
C      1  0.4765640000000  0.4505170000000  0.4981590000000 1.0
C      1  0.4711990000000  0.5426380000000  0.4848840000000 1.0
C      1  0.5538600000000  0.5045720000000  0.4862310000000 1.0
C      1  0.4637260000000  0.5006420000000  0.5742650000000 1.0
C      1  0.5184450000000  0.5278250000000  0.5753680000000 1.0
C      1  0.5143110000000  0.4655000000000  0.5733650000000 1.0
C      1  0.4999670000000  0.4957280000000  0.4742600000000 1.0
C      1  0.4993810000000  0.4991810000000  0.5450670000000 1.0
C      1  0.5017280000000  0.5059560000000  0.4035610000000 1.0
C      1  0.5000340000000  0.4994580000000  0.5158010000000 1.0
C      1  0.5029980000000  0.5025860000000  0.4332750000000 1.0
END
