TITL C-862131-2149-1427 0.000817128291467089 125000 -549.743255032504 0 0 96 (C2h) n - 1
REM
REM in /home/nfs/bkarasulu/CARBON/AIRSS/Generating-Clusters/TERSOFF/Higher-Symm/FIRE-HFTN
REM
REM
REM
REM
REM
REM ./C.cell (b20cbc046b6831c77cfcea5457e17084)
REM AIRSS Version 0.9.1 bugfix July 2018 build 013d7b7c2542+ Fri, 06 Jul 2018 19:26:36 +0100
REM compiler GCC version 9.2.1 20190827 (Red Hat 9.2.1-1)
REM options -cpp -mtune=generic -march=x86-64 -g -O0 -fpre-include=/usr/include/finclude/math-vector-fortran.h
REM seed -1088512607 1931000928 391612743 911769264 202249657 888287024 -123747125 1184919474 -1363831294 2010160737 1427017992 1858900627 -1196621005 -372342159 1400080039 862286305 -1301849341 -953792624 1677416005 -767579363 -597279065 787435618 657854961 -1284048185 446626856 -1979932492 -1783225709 -1213598129 -1198841335 1859581156 926134885 1149191310 -1174353582
REM
CELL 1.54180   50.00000   50.00000   50.00000   90.00000   90.00000   90.00000
LATT -1
SFAC C  
C      1  0.5283690000000  0.4826390000000  0.5520600000000 1.0
C      1  0.4716320000000  0.4827690000000  0.4479330000000 1.0
C      1  0.5283680000000  0.5172310000000  0.5520670000000 1.0
C      1  0.4716310000000  0.5173610000000  0.4479400000000 1.0
C      1  0.5283680000000  0.4827690000000  0.4479330000000 1.0
C      1  0.4716310000000  0.4826390000000  0.5520600000000 1.0
C      1  0.5283690000000  0.5173610000000  0.4479400000000 1.0
C      1  0.4716320000000  0.5172310000000  0.5520670000000 1.0
C      1  0.4706750000000  0.5572440000000  0.5155830000000 1.0
C      1  0.5293010000000  0.5573290000000  0.4843750000000 1.0
C      1  0.4706990000000  0.4426710000000  0.5156250000000 1.0
C      1  0.5293250000000  0.4427560000000  0.4844170000000 1.0
C      1  0.4706990000000  0.5573290000000  0.4843750000000 1.0
C      1  0.5293250000000  0.5572440000000  0.5155830000000 1.0
C      1  0.4706750000000  0.4427560000000  0.4844170000000 1.0
C      1  0.5293010000000  0.4426710000000  0.5156250000000 1.0
C      1  0.5308280000000  0.5604360000000  0.4235380000000 1.0
C      1  0.4691100000000  0.5603380000000  0.5763480000000 1.0
C      1  0.5308900000000  0.4396620000000  0.4236520000000 1.0
C      1  0.4691720000000  0.4395640000000  0.5764620000000 1.0
C      1  0.5308900000000  0.5603380000000  0.5763480000000 1.0
C      1  0.4691720000000  0.5604360000000  0.4235380000000 1.0
C      1  0.5308280000000  0.4395640000000  0.5764620000000 1.0
C      1  0.4691100000000  0.4396620000000  0.4236520000000 1.0
C      1  0.5561220000000  0.4851500000000  0.5148430000000 1.0
C      1  0.4440940000000  0.4845890000000  0.4849660000000 1.0
C      1  0.5559060000000  0.5154110000000  0.5150340000000 1.0
C      1  0.4438780000000  0.5148500000000  0.4851570000000 1.0
C      1  0.5559060000000  0.4845890000000  0.4849660000000 1.0
C      1  0.4438780000000  0.4851500000000  0.5148430000000 1.0
C      1  0.5561220000000  0.5148500000000  0.4851570000000 1.0
C      1  0.4440940000000  0.5154110000000  0.5150340000000 1.0
C      1  0.4860930000000  0.4184600000000  0.5228450000000 1.0
C      1  0.5139110000000  0.4185940000000  0.4770530000000 1.0
C      1  0.4860890000000  0.5814060000000  0.5229470000000 1.0
C      1  0.5139070000000  0.5815400000000  0.4771550000000 1.0
C      1  0.4860890000000  0.4185940000000  0.4770530000000 1.0
C      1  0.5139070000000  0.4184600000000  0.5228450000000 1.0
C      1  0.4860930000000  0.5815400000000  0.4771550000000 1.0
C      1  0.5139110000000  0.5814060000000  0.5229470000000 1.0
C      1  0.4225890000000  0.5285870000000  0.5313870000000 1.0
C      1  0.5773610000000  0.5282450000000  0.4688390000000 1.0
C      1  0.4226390000000  0.4717550000000  0.5311610000000 1.0
C      1  0.5774110000000  0.4714130000000  0.4686130000000 1.0
C      1  0.4226390000000  0.5282450000000  0.4688390000000 1.0
C      1  0.5774110000000  0.5285870000000  0.5313870000000 1.0
C      1  0.4225890000000  0.4714130000000  0.4686130000000 1.0
C      1  0.5773610000000  0.4717550000000  0.5311610000000 1.0
C      1  0.4383840000000  0.4836910000000  0.5564160000000 1.0
C      1  0.5616210000000  0.4837530000000  0.4434110000000 1.0
C      1  0.4383790000000  0.5162470000000  0.5565890000000 1.0
C      1  0.5616160000000  0.5163090000000  0.4435840000000 1.0
C      1  0.4383790000000  0.4837530000000  0.4434110000000 1.0
C      1  0.5616160000000  0.4836910000000  0.5564160000000 1.0
C      1  0.4383840000000  0.5163090000000  0.4435840000000 1.0
C      1  0.5616210000000  0.5162470000000  0.5565890000000 1.0
C      1  0.5532190000000  0.4310580000000  0.4414150000000 1.0
C      1  0.4469340000000  0.4307870000000  0.5586840000000 1.0
C      1  0.5530660000000  0.5692130000000  0.4413160000000 1.0
C      1  0.4467810000000  0.5689420000000  0.5585850000000 1.0
C      1  0.5530660000000  0.4307870000000  0.5586840000000 1.0
C      1  0.4467810000000  0.4310580000000  0.4414150000000 1.0
C      1  0.5532190000000  0.5689420000000  0.5585850000000 1.0
C      1  0.4469340000000  0.5692130000000  0.4413160000000 1.0
C      1  0.5544980000000  0.4360860000000  0.5294970000000 1.0
C      1  0.4454420000000  0.4362330000000  0.4706290000000 1.0
C      1  0.5545580000000  0.5637670000000  0.5293710000000 1.0
C      1  0.4455020000000  0.5639140000000  0.4705030000000 1.0
C      1  0.5545580000000  0.4362330000000  0.4706290000000 1.0
C      1  0.4455020000000  0.4360860000000  0.5294970000000 1.0
C      1  0.5544980000000  0.5639140000000  0.4705030000000 1.0
C      1  0.4454420000000  0.5637670000000  0.5293710000000 1.0
C      1  0.5798140000000  0.4447000000000  0.5158060000000 1.0
C      1  0.4200230000000  0.4444930000000  0.4846040000000 1.0
C      1  0.5799770000000  0.5555070000000  0.5153960000000 1.0
C      1  0.4201860000000  0.5553000000000  0.4841940000000 1.0
C      1  0.5799770000000  0.4444930000000  0.4846040000000 1.0
C      1  0.4201860000000  0.4447000000000  0.5158060000000 1.0
C      1  0.5798140000000  0.5553000000000  0.4841940000000 1.0
C      1  0.4200230000000  0.5555070000000  0.5153960000000 1.0
C      1  0.4847360000000  0.4679060000000  0.5273770000000 1.0
C      1  0.5152780000000  0.4680290000000  0.4726740000000 1.0
C      1  0.4847220000000  0.5319710000000  0.5273260000000 1.0
C      1  0.5152640000000  0.5320940000000  0.4726230000000 1.0
C      1  0.4847220000000  0.4680290000000  0.4726740000000 1.0
C      1  0.5152640000000  0.4679060000000  0.5273770000000 1.0
C      1  0.4847360000000  0.5320940000000  0.4726230000000 1.0
C      1  0.5152780000000  0.5319710000000  0.5273260000000 1.0
C      1  0.4848480000000  0.5354730000000  0.5726130000000 1.0
C      1  0.5151530000000  0.5355540000000  0.4273550000000 1.0
C      1  0.4848470000000  0.4644460000000  0.5726450000000 1.0
C      1  0.5151520000000  0.4645270000000  0.4273870000000 1.0
C      1  0.4848470000000  0.5355540000000  0.4273550000000 1.0
C      1  0.5151520000000  0.5354730000000  0.5726130000000 1.0
C      1  0.4848480000000  0.4645270000000  0.4273870000000 1.0
C      1  0.5151530000000  0.4644460000000  0.5726450000000 1.0
END
