TITL C-862133-5440-385 9.28463609811194e-06 125000 -131.717811794413 0 0 25 (C1) n - 1
REM
REM in /home/nfs/bkarasulu/CARBON/AIRSS/Generating-Clusters/TERSOFF/Higher-Symm/FIRE-HFTN
REM
REM
REM
REM
REM
REM ./C.cell (b20cbc046b6831c77cfcea5457e17084)
REM AIRSS Version 0.9.1 bugfix July 2018 build 013d7b7c2542+ Fri, 06 Jul 2018 19:26:36 +0100
REM compiler GCC version 9.2.1 20190827 (Red Hat 9.2.1-1)
REM options -cpp -mtune=generic -march=x86-64 -g -O0 -fpre-include=/usr/include/finclude/math-vector-fortran.h
REM seed 1265901412 -281362950 -705053775 2107504576 1458239777 -626859665 -1135825625 -1118313737 178077673 -1621205606 1472862104 1233633885 1127471483 322810746 477907026 1582755369 1141084292 -271869285 -1860238625 -792486592 -2084776232 -1011928128 -779485180 -778215195 755679841 -1489823802 1802680657 1746010878 -583221501 2069186918 249119250 -1624636209 341651209
REM
CELL 1.54180   50.00000   50.00000   50.00000   90.00000   90.00000   90.00000
LATT -1
SFAC C  
C      1  0.4225530000000  0.5193560000000  0.4827080000000 1.0
C      1  0.4729610000000  0.4836260000000  0.5323110000000 1.0
C      1  0.5286550000000  0.4543850000000  0.5104190000000 1.0
C      1  0.5352200000000  0.4801800000000  0.4956630000000 1.0
C      1  0.5128660000000  0.4925740000000  0.4520250000000 1.0
C      1  0.4685680000000  0.4703800000000  0.4736370000000 1.0
C      1  0.4898750000000  0.4602950000000  0.5365900000000 1.0
C      1  0.5131900000000  0.4713560000000  0.5515500000000 1.0
C      1  0.4927720000000  0.5123980000000  0.4580910000000 1.0
C      1  0.5254220000000  0.5333050000000  0.4985610000000 1.0
C      1  0.4937340000000  0.4577680000000  0.4821280000000 1.0
C      1  0.4675930000000  0.5274630000000  0.5051930000000 1.0
C      1  0.4973910000000  0.5314620000000  0.5395330000000 1.0
C      1  0.4511730000000  0.5155150000000  0.4848080000000 1.0
C      1  0.4855780000000  0.5499020000000  0.4965830000000 1.0
C      1  0.5026720000000  0.5363290000000  0.4735910000000 1.0
C      1  0.4666570000000  0.4992610000000  0.4667320000000 1.0
C      1  0.5636170000000  0.4850840000000  0.4899570000000 1.0
C      1  0.4850610000000  0.5081590000000  0.5222000000000 1.0
C      1  0.5196200000000  0.5046250000000  0.5115750000000 1.0
C      1  0.5178170000000  0.4724020000000  0.4719320000000 1.0
C      1  0.5078390000000  0.5519270000000  0.5194980000000 1.0
C      1  0.4994390000000  0.4467360000000  0.5112290000000 1.0
C      1  0.5531420000000  0.5406510000000  0.4930090000000 1.0
C      1  0.5265860000000  0.4948610000000  0.5404750000000 1.0
END
