TITL C-862128-1543-58 -0.000388855660414378 125000 -437.836515459706 0 0 82 (S4) n - 1
REM
REM in /home/nfs/bkarasulu/CARBON/AIRSS/Generating-Clusters/TERSOFF/Higher-Symm/FIRE-HFTN
REM
REM
REM
REM
REM
REM ./C.cell (b20cbc046b6831c77cfcea5457e17084)
REM AIRSS Version 0.9.1 bugfix July 2018 build 013d7b7c2542+ Fri, 06 Jul 2018 19:26:36 +0100
REM compiler GCC version 9.2.1 20190827 (Red Hat 9.2.1-1)
REM options -cpp -mtune=generic -march=x86-64 -g -O0 -fpre-include=/usr/include/finclude/math-vector-fortran.h
REM seed -971434869 -1446509759 -2024122671 -794691716 923969980 314724697 1224498751 -1421182002 -609268275 -1525390989 -937472171 -667180887 1552928758 -1285892060 1127669715 859380853 1863280243 1384545835 2128304701 -1245303789 1440383775 732359746 435301105 -1843123050 -2084223723 1778404906 -652306197 237099117 -1423586936 -1330814817 -283765448 767739060 -1145394530
REM
CELL 1.54180   50.00000   50.00000   50.00000   90.00000   90.00000   90.00000
LATT -1
SFAC C  
C      1  0.5702860000000  0.5114180000000  0.4607030000000 1.0
C      1  0.4297140000000  0.4885820000000  0.4607030000000 1.0
C      1  0.4302140000000  0.5114070000000  0.5383020000000 1.0
C      1  0.5697860000000  0.4885930000000  0.5383020000000 1.0
C      1  0.5114070000000  0.5697860000000  0.4600370000000 1.0
C      1  0.4885930000000  0.4302140000000  0.4600370000000 1.0
C      1  0.5114180000000  0.4297140000000  0.5376350000000 1.0
C      1  0.4885820000000  0.5702860000000  0.5376350000000 1.0
C      1  0.5245960000000  0.4305810000000  0.5075250000000 1.0
C      1  0.4754040000000  0.5694190000000  0.5075250000000 1.0
C      1  0.4752030000000  0.4307830000000  0.4902200000000 1.0
C      1  0.5247970000000  0.5692170000000  0.4902200000000 1.0
C      1  0.4307830000000  0.5247970000000  0.5081180000000 1.0
C      1  0.5692170000000  0.4752030000000  0.5081180000000 1.0
C      1  0.4305810000000  0.4754040000000  0.4908130000000 1.0
C      1  0.5694190000000  0.5245960000000  0.4908130000000 1.0
C      1  0.5201610000000  0.5650070000000  0.5419350000000 1.0
C      1  0.4798390000000  0.4349930000000  0.5419350000000 1.0
C      1  0.4797420000000  0.5642210000000  0.4559930000000 1.0
C      1  0.5202580000000  0.4357790000000  0.4559930000000 1.0
C      1  0.5642210000000  0.5202580000000  0.5423450000000 1.0
C      1  0.4357790000000  0.4797420000000  0.5423450000000 1.0
C      1  0.5650070000000  0.4798390000000  0.4564030000000 1.0
C      1  0.4349930000000  0.5201610000000  0.4564030000000 1.0
C      1  0.5298890000000  0.4995490000000  0.4681760000000 1.0
C      1  0.4701110000000  0.5004510000000  0.4681760000000 1.0
C      1  0.4705710000000  0.5003540000000  0.5311440000000 1.0
C      1  0.5294290000000  0.4996460000000  0.5311440000000 1.0
C      1  0.5003540000000  0.5294290000000  0.4671940000000 1.0
C      1  0.4996460000000  0.4705710000000  0.4671940000000 1.0
C      1  0.4995490000000  0.4701110000000  0.5301620000000 1.0
C      1  0.5004510000000  0.5298890000000  0.5301620000000 1.0
C      1  0.5615670000000  0.5385700000000  0.5184180000000 1.0
C      1  0.4384330000000  0.4614300000000  0.5184180000000 1.0
C      1  0.4383700000000  0.5384190000000  0.4802640000000 1.0
C      1  0.5616300000000  0.4615810000000  0.4802640000000 1.0
C      1  0.5384190000000  0.5616300000000  0.5180740000000 1.0
C      1  0.4615810000000  0.4383700000000  0.5180740000000 1.0
C      1  0.5385700000000  0.4384330000000  0.4799200000000 1.0
C      1  0.4614300000000  0.5615670000000  0.4799200000000 1.0
C      1  0.4969210000000  0.5246590000000  0.4116710000000 1.0
C      1  0.5030790000000  0.4753410000000  0.4116710000000 1.0
C      1  0.4990540000000  0.5209650000000  0.5859650000000 1.0
C      1  0.5009460000000  0.4790350000000  0.5859650000000 1.0
C      1  0.5209650000000  0.5009460000000  0.4123730000000 1.0
C      1  0.4790350000000  0.4990540000000  0.4123730000000 1.0
C      1  0.5246590000000  0.5030790000000  0.5866670000000 1.0
C      1  0.4753410000000  0.4969210000000  0.5866670000000 1.0
C      1  0.5297020000000  0.5512380000000  0.5663180000000 1.0
C      1  0.4702980000000  0.4487620000000  0.5663180000000 1.0
C      1  0.4699750000000  0.5502100000000  0.4318640000000 1.0
C      1  0.5300250000000  0.4497900000000  0.4318640000000 1.0
C      1  0.5502100000000  0.5300250000000  0.5664740000000 1.0
C      1  0.4497900000000  0.4699750000000  0.5664740000000 1.0
C      1  0.5512380000000  0.4702980000000  0.4320200000000 1.0
C      1  0.4487620000000  0.5297020000000  0.4320200000000 1.0
C      1  0.5397580000000  0.5185790000000  0.4886300000000 1.0
C      1  0.4602420000000  0.4814210000000  0.4886300000000 1.0
C      1  0.4604550000000  0.5188640000000  0.5101440000000 1.0
C      1  0.5395450000000  0.4811360000000  0.5101440000000 1.0
C      1  0.5188640000000  0.5395450000000  0.4881940000000 1.0
C      1  0.4811360000000  0.4604550000000  0.4881940000000 1.0
C      1  0.5185790000000  0.4602420000000  0.5097080000000 1.0
C      1  0.4814210000000  0.5397580000000  0.5097080000000 1.0
C      1  0.4427500000000  0.4685640000000  0.4391740000000 1.0
C      1  0.5572500000000  0.5314360000000  0.4391740000000 1.0
C      1  0.5565820000000  0.4686060000000  0.5595450000000 1.0
C      1  0.4434180000000  0.5313940000000  0.5595450000000 1.0
C      1  0.4686060000000  0.4434180000000  0.4387930000000 1.0
C      1  0.5313940000000  0.5565820000000  0.4387930000000 1.0
C      1  0.4685640000000  0.5572500000000  0.5591640000000 1.0
C      1  0.5314360000000  0.4427500000000  0.5591640000000 1.0
C      1  0.5094190000000  0.4659070000000  0.5588480000000 1.0
C      1  0.4905810000000  0.5340930000000  0.5588480000000 1.0
C      1  0.4885450000000  0.4679120000000  0.4388970000000 1.0
C      1  0.5114550000000  0.5320880000000  0.4388970000000 1.0
C      1  0.4679120000000  0.5114550000000  0.5594410000000 1.0
C      1  0.5320880000000  0.4885450000000  0.5594410000000 1.0
C      1  0.4659070000000  0.4905810000000  0.4394910000000 1.0
C      1  0.5340930000000  0.5094190000000  0.4394910000000 1.0
C      1  0.5000000000000  0.5000000000000  0.4811530000000 1.0
C      1  0.5000000000000  0.5000000000000  0.5171860000000 1.0
END
