TITL C-862133-5440-571 -0.00203296505940327 125000 -431.618420970929 0 0 76 (C1) n - 1
REM
REM in /home/nfs/bkarasulu/CARBON/AIRSS/Generating-Clusters/TERSOFF/Higher-Symm/FIRE-HFTN
REM
REM
REM
REM
REM
REM ./C.cell (b20cbc046b6831c77cfcea5457e17084)
REM AIRSS Version 0.9.1 bugfix July 2018 build 013d7b7c2542+ Fri, 06 Jul 2018 19:26:36 +0100
REM compiler GCC version 9.2.1 20190827 (Red Hat 9.2.1-1)
REM options -cpp -mtune=generic -march=x86-64 -g -O0 -fpre-include=/usr/include/finclude/math-vector-fortran.h
REM seed -827607557 2131324078 199503083 -1549090622 91589240 -705003021 341797809 -1314157552 1537011126 77369174 -1167940070 285679693 1455501409 -1461764715 -794137144 -920814484 -676687435 -2125005781 427554116 -1445180578 -33091538 973418509 1120706219 -1430350136 1753409440 1812936534 1679322509 -500941204 -1521485714 815381256 -929975260 -1176754721 -1282243294
REM
CELL 1.54180   50.00000   50.00000   50.00000   90.00000   90.00000   90.00000
LATT -1
SFAC C  
C      1  0.4573190000000  0.5617150000000  0.4747200000000 1.0
C      1  0.4574680000000  0.4907580000000  0.5661030000000 1.0
C      1  0.4558960000000  0.4462830000000  0.4584530000000 1.0
C      1  0.5304500000000  0.5726970000000  0.4976910000000 1.0
C      1  0.5328240000000  0.4684420000000  0.5630550000000 1.0
C      1  0.5287320000000  0.4574720000000  0.4388660000000 1.0
C      1  0.4940600000000  0.5049090000000  0.5356070000000 1.0
C      1  0.4938540000000  0.4656880000000  0.4854460000000 1.0
C      1  0.4925370000000  0.5305270000000  0.4783800000000 1.0
C      1  0.5055560000000  0.4823570000000  0.4635040000000 1.0
C      1  0.5035550000000  0.5411960000000  0.5044640000000 1.0
C      1  0.5057330000000  0.4771430000000  0.5322450000000 1.0
C      1  0.5511640000000  0.4584640000000  0.4600020000000 1.0
C      1  0.5534830000000  0.5525110000000  0.4919710000000 1.0
C      1  0.5567460000000  0.4838480000000  0.5480110000000 1.0
C      1  0.4801130000000  0.4741860000000  0.5762510000000 1.0
C      1  0.4760420000000  0.4463710000000  0.4367320000000 1.0
C      1  0.4781960000000  0.5802260000000  0.4850720000000 1.0
C      1  0.4893350000000  0.4907630000000  0.4399000000000 1.0
C      1  0.4877680000000  0.5587030000000  0.5228050000000 1.0
C      1  0.4901200000000  0.4523480000000  0.5384150000000 1.0
C      1  0.5261870000000  0.5824810000000  0.5255010000000 1.0
C      1  0.5286900000000  0.4391590000000  0.5594060000000 1.0
C      1  0.5274760000000  0.4786500000000  0.4175090000000 1.0
C      1  0.5377680000000  0.5162840000000  0.4466830000000 1.0
C      1  0.5348780000000  0.5398000000000  0.5442990000000 1.0
C      1  0.5387730000000  0.4421140000000  0.5147590000000 1.0
C      1  0.5594220000000  0.4298900000000  0.4985950000000 1.0
C      1  0.5604830000000  0.5341190000000  0.4460430000000 1.0
C      1  0.5585350000000  0.5327070000000  0.5594260000000 1.0
C      1  0.4736680000000  0.5062800000000  0.4806520000000 1.0
C      1  0.4737410000000  0.5131610000000  0.5145370000000 1.0
C      1  0.4739670000000  0.4799890000000  0.5036760000000 1.0
C      1  0.4302600000000  0.5216510000000  0.4762170000000 1.0
C      1  0.4304040000000  0.5083790000000  0.5302660000000 1.0
C      1  0.4303850000000  0.4683750000000  0.4931100000000 1.0
C      1  0.4412380000000  0.4828990000000  0.5408430000000 1.0
C      1  0.4403000000000  0.4720680000000  0.4655870000000 1.0
C      1  0.4407900000000  0.5432840000000  0.4935110000000 1.0
C      1  0.4496350000000  0.5037440000000  0.4612210000000 1.0
C      1  0.4495730000000  0.5305500000000  0.5226750000000 1.0
C      1  0.4502190000000  0.4642040000000  0.5154880000000 1.0
C      1  0.4620100000000  0.4350340000000  0.5095660000000 1.0
C      1  0.4621330000000  0.5238590000000  0.4391290000000 1.0
C      1  0.4600880000000  0.5405660000000  0.5512610000000 1.0
C      1  0.4936570000000  0.5181250000000  0.4284690000000 1.0
C      1  0.4902780000000  0.5542900000000  0.5521960000000 1.0
C      1  0.4931420000000  0.4285840000000  0.5207360000000 1.0
C      1  0.5092910000000  0.4840530000000  0.5756740000000 1.0
C      1  0.5049120000000  0.4387100000000  0.4422280000000 1.0
C      1  0.5076280000000  0.5767350000000  0.4775260000000 1.0
C      1  0.5236040000000  0.5078350000000  0.4226950000000 1.0
C      1  0.5204210000000  0.5647150000000  0.5485020000000 1.0
C      1  0.5228280000000  0.4265470000000  0.5332090000000 1.0
C      1  0.4759220000000  0.5828530000000  0.5131950000000 1.0
C      1  0.4790170000000  0.4485770000000  0.5643760000000 1.0
C      1  0.4758180000000  0.4715240000000  0.4242040000000 1.0
C      1  0.4608360000000  0.5539430000000  0.4462210000000 1.0
C      1  0.4588530000000  0.5195280000000  0.5738960000000 1.0
C      1  0.4607830000000  0.4259980000000  0.4797660000000 1.0
C      1  0.4869400000000  0.5181990000000  0.5864060000000 1.0
C      1  0.4886230000000  0.4153620000000  0.4731060000000 1.0
C      1  0.4883380000000  0.5663910000000  0.4401550000000 1.0
C      1  0.5664090000000  0.5530610000000  0.4664020000000 1.0
C      1  0.5680070000000  0.5060670000000  0.5627460000000 1.0
C      1  0.5620630000000  0.4344930000000  0.4707810000000 1.0
C      1  0.5617400000000  0.4893780000000  0.5126180000000 1.0
C      1  0.5535500000000  0.4830520000000  0.4779830000000 1.0
C      1  0.5556770000000  0.5247830000000  0.5084550000000 1.0
C      1  0.5002710000000  0.5401410000000  0.4505080000000 1.0
C      1  0.4989060000000  0.5239870000000  0.5590240000000 1.0
C      1  0.5008010000000  0.4366720000000  0.4910370000000 1.0
C      1  0.5295150000000  0.4996780000000  0.4709230000000 1.0
C      1  0.5259050000000  0.5256830000000  0.5174630000000 1.0
C      1  0.5323260000000  0.4727740000000  0.5157010000000 1.0
C      1  0.5227710000000  0.4997160000000  0.5011970000000 1.0
END
