TITL C-862500-986-1294 3.86481670093979 125000 -697.295931206221 0 0 121 (C1) n - 1
REM
REM in /home/nfs/bkarasulu/CARBON/AIRSS/Generating-Clusters/TERSOFF/Higher-Symm/FIRE-HFTN
REM
REM
REM
REM
REM
REM ./C.cell (b20cbc046b6831c77cfcea5457e17084)
REM AIRSS Version 0.9.1 bugfix July 2018 build 013d7b7c2542+ Fri, 06 Jul 2018 19:26:36 +0100
REM compiler GCC version 9.2.1 20190827 (Red Hat 9.2.1-1)
REM options -cpp -mtune=generic -march=x86-64 -g -O0 -fpre-include=/usr/include/finclude/math-vector-fortran.h
REM seed -1864509937 -1125994603 1925995822 -67875806 967446129 -371714491 939540772 -811562415 1162246541 -1655927049 -909021150 77427050 -1059921399 179254033 1019061766 1131339843 -2004518700 -2092241417 2053992514 -580424966 982226921 -1518121406 2115941898 1349327590 -1285971209 1561157420 111350405 -2142863516 -1762161337 1309247007 -1601031234 1186206262 105684583
REM
CELL 1.54180   50.00000   50.00000   50.00000   90.00000   90.00000   90.00000
LATT -1
SFAC C  
C      1  0.4371680000000  0.4218260000000  0.5109350000000 1.0
C      1  0.5401600000000  0.4627840000000  0.4465490000000 1.0
C      1  0.5044380000000  0.5378540000000  0.5116510000000 1.0
C      1  0.5459030000000  0.4762990000000  0.5249220000000 1.0
C      1  0.4604960000000  0.4134370000000  0.4653660000000 1.0
C      1  0.5750360000000  0.5553380000000  0.5228300000000 1.0
C      1  0.5287380000000  0.4089910000000  0.4794520000000 1.0
C      1  0.4108740000000  0.5575140000000  0.5504100000000 1.0
C      1  0.5331750000000  0.5818020000000  0.5044470000000 1.0
C      1  0.5809670000000  0.5270380000000  0.4707990000000 1.0
C      1  0.5404490000000  0.4737210000000  0.4197880000000 1.0
C      1  0.5378690000000  0.5380450000000  0.5910170000000 1.0
C      1  0.4429020000000  0.5356910000000  0.3966530000000 1.0
C      1  0.4876310000000  0.6070210000000  0.5013650000000 1.0
C      1  0.4200210000000  0.4486720000000  0.5049490000000 1.0
C      1  0.4757730000000  0.4993500000000  0.3853890000000 1.0
C      1  0.4886130000000  0.5439650000000  0.4880290000000 1.0
C      1  0.4359890000000  0.4970460000000  0.5665320000000 1.0
C      1  0.4858920000000  0.5016390000000  0.5985830000000 1.0
C      1  0.5445930000000  0.4890370000000  0.5497070000000 1.0
C      1  0.5488460000000  0.4585820000000  0.5908400000000 1.0
C      1  0.5905940000000  0.4815250000000  0.5561190000000 1.0
C      1  0.4384130000000  0.4669030000000  0.4304640000000 1.0
C      1  0.5003500000000  0.4462860000000  0.4921760000000 1.0
C      1  0.4323890000000  0.4663770000000  0.5523280000000 1.0
C      1  0.4830480000000  0.6243350000000  0.5242840000000 1.0
C      1  0.4583060000000  0.5823900000000  0.4125020000000 1.0
C      1  0.5288150000000  0.5509940000000  0.5031660000000 1.0
C      1  0.5520270000000  0.5211740000000  0.4706140000000 1.0
C      1  0.4583730000000  0.5601730000000  0.3936180000000 1.0
C      1  0.4247090000000  0.4973790000000  0.4846590000000 1.0
C      1  0.5646170000000  0.5765220000000  0.4955330000000 1.0
C      1  0.5357040000000  0.5601560000000  0.5711210000000 1.0
C      1  0.4842110000000  0.3965400000000  0.5093420000000 1.0
C      1  0.4875590000000  0.4927850000000  0.5461190000000 1.0
C      1  0.4130550000000  0.4621660000000  0.5306370000000 1.0
C      1  0.4791500000000  0.6039950000000  0.4135830000000 1.0
C      1  0.4985850000000  0.4362970000000  0.4491740000000 1.0
C      1  0.5867920000000  0.5276210000000  0.5329380000000 1.0
C      1  0.5594020000000  0.4426100000000  0.4559260000000 1.0
C      1  0.5183800000000  0.5385630000000  0.6133360000000 1.0
C      1  0.5540600000000  0.4230500000000  0.4769840000000 1.0
C      1  0.5262900000000  0.4795390000000  0.4653240000000 1.0
C      1  0.4088320000000  0.5353730000000  0.5042360000000 1.0
C      1  0.4801840000000  0.6150370000000  0.4413330000000 1.0
C      1  0.4574510000000  0.4904620000000  0.5945440000000 1.0
C      1  0.5781120000000  0.4334840000000  0.5495730000000 1.0
C      1  0.5197240000000  0.5225630000000  0.3961920000000 1.0
C      1  0.5524750000000  0.5113300000000  0.5848570000000 1.0
C      1  0.5706190000000  0.5600140000000  0.4422570000000 1.0
C      1  0.5355020000000  0.4028130000000  0.5319440000000 1.0
C      1  0.5152320000000  0.6015760000000  0.4923800000000 1.0
C      1  0.5866900000000  0.4537980000000  0.5732780000000 1.0
C      1  0.5423730000000  0.4966260000000  0.4806110000000 1.0
C      1  0.4586700000000  0.4499820000000  0.4886060000000 1.0
C      1  0.4958650000000  0.5433960000000  0.5404960000000 1.0
C      1  0.4646270000000  0.5949930000000  0.4872230000000 1.0
C      1  0.5490710000000  0.5415150000000  0.5207880000000 1.0
C      1  0.4603100000000  0.6006870000000  0.4588850000000 1.0
C      1  0.5596440000000  0.5502230000000  0.4159000000000 1.0
C      1  0.4562830000000  0.4489610000000  0.5515200000000 1.0
C      1  0.5133910000000  0.4731680000000  0.4075720000000 1.0
C      1  0.5484960000000  0.4293830000000  0.5454640000000 1.0
C      1  0.4521500000000  0.4227950000000  0.5369970000000 1.0
C      1  0.4217080000000  0.4680890000000  0.4802600000000 1.0
C      1  0.4777590000000  0.4089500000000  0.5357150000000 1.0
C      1  0.5089840000000  0.4873340000000  0.5866200000000 1.0
C      1  0.4983210000000  0.4282910000000  0.5399810000000 1.0
C      1  0.5456040000000  0.5240840000000  0.4100590000000 1.0
C      1  0.4746370000000  0.4680140000000  0.5343740000000 1.0
C      1  0.4516170000000  0.5712990000000  0.4982350000000 1.0
C      1  0.4769040000000  0.4957250000000  0.4915240000000 1.0
C      1  0.4494930000000  0.5233950000000  0.5566570000000 1.0
C      1  0.6060770000000  0.5158810000000  0.5142710000000 1.0
C      1  0.4689040000000  0.4707550000000  0.5054560000000 1.0
C      1  0.4261070000000  0.5117750000000  0.5131560000000 1.0
C      1  0.5369190000000  0.4377120000000  0.5727720000000 1.0
C      1  0.5388840000000  0.4486580000000  0.5241500000000 1.0
C      1  0.4025950000000  0.5567650000000  0.5225490000000 1.0
C      1  0.4515170000000  0.5355740000000  0.4626110000000 1.0
C      1  0.4917490000000  0.5264080000000  0.6124980000000 1.0
C      1  0.4596730000000  0.5445320000000  0.4899110000000 1.0
C      1  0.5376250000000  0.4858770000000  0.5950160000000 1.0
C      1  0.5120280000000  0.4419060000000  0.5184580000000 1.0
C      1  0.5111930000000  0.5665670000000  0.5556410000000 1.0
C      1  0.4542690000000  0.5092500000000  0.4041590000000 1.0
C      1  0.5122040000000  0.4118050000000  0.4559070000000 1.0
C      1  0.5330090000000  0.5441380000000  0.4726230000000 1.0
C      1  0.4574120000000  0.4619710000000  0.6003440000000 1.0
C      1  0.4577370000000  0.4054080000000  0.4927820000000 1.0
C      1  0.4164270000000  0.5033030000000  0.5403220000000 1.0
C      1  0.5570350000000  0.4978720000000  0.4158160000000 1.0
C      1  0.4052500000000  0.5369640000000  0.4751250000000 1.0
C      1  0.5036840000000  0.4976260000000  0.3936000000000 1.0
C      1  0.6011420000000  0.5115090000000  0.4854320000000 1.0
C      1  0.4759350000000  0.5121210000000  0.4254000000000 1.0
C      1  0.5834560000000  0.4582790000000  0.5034910000000 1.0
C      1  0.4190990000000  0.4595710000000  0.4519320000000 1.0
C      1  0.5706720000000  0.5064680000000  0.5571330000000 1.0
C      1  0.5901050000000  0.4563160000000  0.5315510000000 1.0
C      1  0.4754220000000  0.5197830000000  0.5451630000000 1.0
C      1  0.4942570000000  0.4524830000000  0.4181840000000 1.0
C      1  0.4465250000000  0.5814010000000  0.4400580000000 1.0
C      1  0.4639070000000  0.4436940000000  0.5795320000000 1.0
C      1  0.4653600000000  0.4579950000000  0.4356530000000 1.0
C      1  0.6025570000000  0.4617580000000  0.4823310000000 1.0
C      1  0.4373260000000  0.5498040000000  0.5601760000000 1.0
C      1  0.5163680000000  0.5249350000000  0.5574130000000 1.0
C      1  0.5545220000000  0.5643910000000  0.4667290000000 1.0
C      1  0.4338220000000  0.4887370000000  0.4116950000000 1.0
C      1  0.5023670000000  0.5423890000000  0.4604660000000 1.0
C      1  0.4260190000000  0.5192010000000  0.4616060000000 1.0
C      1  0.4700510000000  0.4412730000000  0.4613120000000 1.0
C      1  0.5004900000000  0.4720870000000  0.4778420000000 1.0
C      1  0.6112220000000  0.4873350000000  0.4735970000000 1.0
C      1  0.5097730000000  0.5085230000000  0.5142170000000 1.0
C      1  0.5152700000000  0.4952190000000  0.5589170000000 1.0
C      1  0.4757040000000  0.5314160000000  0.4463200000000 1.0
C      1  0.5168990000000  0.4020420000000  0.5061730000000 1.0
C      1  0.4560650000000  0.5187220000000  0.5052540000000 1.0
C      1  0.5342820000000  0.4954090000000  0.5070130000000 1.0
END
