TITL C-862500-986-155 15.708390785903 125000 -423.494641858032 0 0 79 (C1) n - 1
REM
REM in /home/nfs/bkarasulu/CARBON/AIRSS/Generating-Clusters/TERSOFF/Higher-Symm/FIRE-HFTN
REM
REM
REM
REM
REM
REM ./C.cell (b20cbc046b6831c77cfcea5457e17084)
REM AIRSS Version 0.9.1 bugfix July 2018 build 013d7b7c2542+ Fri, 06 Jul 2018 19:26:36 +0100
REM compiler GCC version 9.2.1 20190827 (Red Hat 9.2.1-1)
REM options -cpp -mtune=generic -march=x86-64 -g -O0 -fpre-include=/usr/include/finclude/math-vector-fortran.h
REM seed -2120603500 -1341028499 -322508695 -1979907855 -530659130 1251085261 1623688257 635259219 1579160587 1637864515 1522681649 -177304771 1536209585 913054757 1599547876 -1112324888 -806814820 -978720697 735500477 -1672566344 792287289 -1929790652 -1399367307 28308651 1735789954 575317129 170281812 1900463958 -2064571755 935065721 -459134933 -1515023550 1050677118
REM
CELL 1.54180   50.00000   50.00000   50.00000   90.00000   90.00000   90.00000
LATT -1
SFAC C  
C      1  0.5850620000000  0.4588500000000  0.4942770000000 1.0
C      1  0.4845640000000  0.4710910000000  0.4265260000000 1.0
C      1  0.4816330000000  0.5557140000000  0.5578800000000 1.0
C      1  0.4300260000000  0.5543150000000  0.5059190000000 1.0
C      1  0.5003860000000  0.4956780000000  0.5364750000000 1.0
C      1  0.5308990000000  0.4989020000000  0.5273250000000 1.0
C      1  0.4965320000000  0.4621820000000  0.5680820000000 1.0
C      1  0.4515080000000  0.4599470000000  0.4561170000000 1.0
C      1  0.4368650000000  0.5234920000000  0.5067130000000 1.0
C      1  0.4543760000000  0.4953560000000  0.5051940000000 1.0
C      1  0.4690930000000  0.5268430000000  0.4309120000000 1.0
C      1  0.4726220000000  0.4769190000000  0.5615690000000 1.0
C      1  0.4906610000000  0.4428110000000  0.4256740000000 1.0
C      1  0.5795020000000  0.5270740000000  0.4847680000000 1.0
C      1  0.5535370000000  0.5608020000000  0.5218080000000 1.0
C      1  0.5467530000000  0.4738040000000  0.4857550000000 1.0
C      1  0.4978540000000  0.4729510000000  0.4903220000000 1.0
C      1  0.5316720000000  0.4390100000000  0.4421650000000 1.0
C      1  0.5263810000000  0.5541310000000  0.5376600000000 1.0
C      1  0.4652430000000  0.4961320000000  0.4724010000000 1.0
C      1  0.4956730000000  0.5020030000000  0.5047900000000 1.0
C      1  0.4916310000000  0.4317330000000  0.4525420000000 1.0
C      1  0.5120590000000  0.4495160000000  0.5041190000000 1.0
C      1  0.5329780000000  0.4694570000000  0.4442470000000 1.0
C      1  0.4834200000000  0.5313960000000  0.5227960000000 1.0
C      1  0.5029070000000  0.5710450000000  0.5439700000000 1.0
C      1  0.5653530000000  0.5323830000000  0.5325010000000 1.0
C      1  0.4935050000000  0.5617490000000  0.4630600000000 1.0
C      1  0.4431190000000  0.5200040000000  0.4459320000000 1.0
C      1  0.4950900000000  0.5232720000000  0.4833260000000 1.0
C      1  0.4369330000000  0.4989640000000  0.5624340000000 1.0
C      1  0.4367330000000  0.5614980000000  0.4763390000000 1.0
C      1  0.4305360000000  0.4714830000000  0.5513450000000 1.0
C      1  0.4541870000000  0.5638340000000  0.5533870000000 1.0
C      1  0.4993210000000  0.4417520000000  0.5468680000000 1.0
C      1  0.5413720000000  0.4118000000000  0.4876230000000 1.0
C      1  0.5182330000000  0.4188590000000  0.4645660000000 1.0
C      1  0.4293320000000  0.4560160000000  0.5018840000000 1.0
C      1  0.5239850000000  0.5340410000000  0.5613350000000 1.0
C      1  0.5009410000000  0.5991660000000  0.5373640000000 1.0
C      1  0.5491160000000  0.5413010000000  0.4430540000000 1.0
C      1  0.5203250000000  0.5652820000000  0.4793620000000 1.0
C      1  0.5411040000000  0.4865060000000  0.5573750000000 1.0
C      1  0.5223890000000  0.5345350000000  0.4872880000000 1.0
C      1  0.5270970000000  0.4428530000000  0.5304130000000 1.0
C      1  0.4469700000000  0.4569010000000  0.5279880000000 1.0
C      1  0.4896720000000  0.5238760000000  0.5565800000000 1.0
C      1  0.5379490000000  0.4162540000000  0.5172900000000 1.0
C      1  0.5553070000000  0.4891620000000  0.5102150000000 1.0
C      1  0.5201690000000  0.4773730000000  0.5763140000000 1.0
C      1  0.4628380000000  0.5291050000000  0.4818780000000 1.0
C      1  0.5207860000000  0.4834370000000  0.4708510000000 1.0
C      1  0.5505910000000  0.5188710000000  0.5583770000000 1.0
C      1  0.4205960000000  0.4805740000000  0.4851910000000 1.0
C      1  0.4946810000000  0.5417030000000  0.4410740000000 1.0
C      1  0.4668060000000  0.5055080000000  0.5717280000000 1.0
C      1  0.5719730000000  0.5144420000000  0.5098560000000 1.0
C      1  0.4377370000000  0.4870890000000  0.4596960000000 1.0
C      1  0.5211490000000  0.5285030000000  0.4353300000000 1.0
C      1  0.5498540000000  0.5660640000000  0.4908880000000 1.0
C      1  0.5622180000000  0.5464730000000  0.4714130000000 1.0
C      1  0.5371890000000  0.5115690000000  0.4701910000000 1.0
C      1  0.4722990000000  0.5577730000000  0.5110730000000 1.0
C      1  0.5494900000000  0.4609650000000  0.5407400000000 1.0
C      1  0.4271620000000  0.5426250000000  0.4559100000000 1.0
C      1  0.4777330000000  0.4169220000000  0.5069910000000 1.0
C      1  0.4690040000000  0.5604830000000  0.4801850000000 1.0
C      1  0.5168740000000  0.4983890000000  0.4318940000000 1.0
C      1  0.5639550000000  0.4994440000000  0.4573400000000 1.0
C      1  0.5263060000000  0.5292090000000  0.5170660000000 1.0
C      1  0.4720650000000  0.4339220000000  0.5309870000000 1.0
C      1  0.4138300000000  0.5048410000000  0.4997530000000 1.0
C      1  0.4773510000000  0.4522290000000  0.4691890000000 1.0
C      1  0.5019610000000  0.4253740000000  0.4927030000000 1.0
C      1  0.5721130000000  0.4696690000000  0.4676840000000 1.0
C      1  0.5737350000000  0.4664830000000  0.5220890000000 1.0
C      1  0.4479570000000  0.5694300000000  0.5254890000000 1.0
C      1  0.4686680000000  0.4803930000000  0.5285690000000 1.0
C      1  0.4905040000000  0.4885010000000  0.4520130000000 1.0
END
