TITL C-862129-6180-236 2.60340316247146 125000 -627.803418604738 0 0 120 (C3) n - 1
REM
REM in /home/nfs/bkarasulu/CARBON/AIRSS/Generating-Clusters/TERSOFF/Higher-Symm/FIRE-HFTN
REM
REM
REM
REM
REM
REM ./C.cell (b20cbc046b6831c77cfcea5457e17084)
REM AIRSS Version 0.9.1 bugfix July 2018 build 013d7b7c2542+ Fri, 06 Jul 2018 19:26:36 +0100
REM compiler GCC version 9.2.1 20190827 (Red Hat 9.2.1-1)
REM options -cpp -mtune=generic -march=x86-64 -g -O0 -fpre-include=/usr/include/finclude/math-vector-fortran.h
REM seed 2119319142 713793398 -1875856076 -802027975 189509278 867997629 -2087591708 387854244 1030330181 2129733120 1427532944 31671511 -1466545968 -516077081 1417142709 -338696051 -2030649522 -146237786 2559566 -1198776595 -683709137 436133969 -1885275052 -11339601 -2112470820 24602795 511111280 -2070427938 -1101867430 1190985861 1778999361 -1166650198 2094415765
REM
CELL 1.54180   50.00000   50.00000   50.00000   90.00000   90.00000   90.00000
LATT -1
SFAC C  
C      1  0.4387670000000  0.5493670000000  0.5587510000000 1.0
C      1  0.4878630000000  0.4222880000000  0.5587520000000 1.0
C      1  0.5733690000000  0.5283460000000  0.5587510000000 1.0
C      1  0.5317550000000  0.5543830000000  0.5709470000000 1.0
C      1  0.4370260000000  0.5003100000000  0.5709470000000 1.0
C      1  0.5312180000000  0.4453090000000  0.5709480000000 1.0
C      1  0.4473730000000  0.4586500000000  0.4456410000000 1.0
C      1  0.5621240000000  0.4750970000000  0.4456420000000 1.0
C      1  0.4905050000000  0.5662510000000  0.4456410000000 1.0
C      1  0.5152690000000  0.4884400000000  0.4367990000000 1.0
C      1  0.5023770000000  0.5190020000000  0.4367980000000 1.0
C      1  0.4823550000000  0.4925560000000  0.4367980000000 1.0
C      1  0.4547570000000  0.5225350000000  0.5513020000000 1.0
C      1  0.5031050000000  0.4495520000000  0.5513030000000 1.0
C      1  0.5421370000000  0.5279140000000  0.5513020000000 1.0
C      1  0.5154950000000  0.4880770000000  0.3833640000000 1.0
C      1  0.5025780000000  0.5193780000000  0.3833640000000 1.0
C      1  0.4819290000000  0.4925420000000  0.3833640000000 1.0
C      1  0.4130370000000  0.5144070000000  0.6144170000000 1.0
C      1  0.5310040000000  0.4174850000000  0.6144180000000 1.0
C      1  0.5559570000000  0.5681100000000  0.6144180000000 1.0
C      1  0.4979130000000  0.4162070000000  0.4813220000000 1.0
C      1  0.5736110000000  0.5400890000000  0.4813220000000 1.0
C      1  0.4284770000000  0.5437040000000  0.4813210000000 1.0
C      1  0.5543040000000  0.4910520000000  0.5218450000000 1.0
C      1  0.4805970000000  0.5515030000000  0.5218450000000 1.0
C      1  0.4650990000000  0.4574450000000  0.5218450000000 1.0
C      1  0.4688420000000  0.4864960000000  0.4084380000000 1.0
C      1  0.5272740000000  0.4797670000000  0.4084380000000 1.0
C      1  0.5038850000000  0.5337350000000  0.4084380000000 1.0
C      1  0.5489010000000  0.4465630000000  0.4366130000000 1.0
C      1  0.5218280000000  0.5690670000000  0.4366120000000 1.0
C      1  0.4292720000000  0.4843690000000  0.4366120000000 1.0
C      1  0.4047030000000  0.4655650000000  0.4865080000000 1.0
C      1  0.5774700000000  0.4346880000000  0.4865090000000 1.0
C      1  0.5178270000000  0.5997470000000  0.4865070000000 1.0
C      1  0.4566020000000  0.4323450000000  0.4590480000000 1.0
C      1  0.5802900000000  0.4962430000000  0.4590480000000 1.0
C      1  0.4631080000000  0.5714110000000  0.4590470000000 1.0
C      1  0.5533600000000  0.5245280000000  0.4286070000000 1.0
C      1  0.4520780000000  0.5339460000000  0.4286070000000 1.0
C      1  0.4945630000000  0.4415240000000  0.4286070000000 1.0
C      1  0.4468740000000  0.4252290000000  0.4856750000000 1.0
C      1  0.5913160000000  0.4913770000000  0.4856750000000 1.0
C      1  0.4618090000000  0.5833930000000  0.4856740000000 1.0
C      1  0.5964700000000  0.4695900000000  0.5276750000000 1.0
C      1  0.4781010000000  0.5987510000000  0.5276730000000 1.0
C      1  0.4254290000000  0.4316600000000  0.5276740000000 1.0
C      1  0.5586890000000  0.5195130000000  0.5986550000000 1.0
C      1  0.4537570000000  0.5410710000000  0.5986540000000 1.0
C      1  0.4875530000000  0.4394180000000  0.5986550000000 1.0
C      1  0.5359530000000  0.5782170000000  0.4750900000000 1.0
C      1  0.4142850000000  0.4920270000000  0.4750900000000 1.0
C      1  0.5497620000000  0.4297550000000  0.4750910000000 1.0
C      1  0.4859090000000  0.4252270000000  0.4538790000000 1.0
C      1  0.5718010000000  0.5251820000000  0.4538780000000 1.0
C      1  0.4422910000000  0.5495900000000  0.4538780000000 1.0
C      1  0.4002530000000  0.4838660000000  0.4363540000000 1.0
C      1  0.5638460000000  0.4216820000000  0.4363560000000 1.0
C      1  0.5359020000000  0.5944500000000  0.4363540000000 1.0
C      1  0.4889430000000  0.5945490000000  0.4988030000000 1.0
C      1  0.4236470000000  0.4431500000000  0.4988040000000 1.0
C      1  0.5874100000000  0.4623010000000  0.4988050000000 1.0
C      1  0.4785150000000  0.5492750000000  0.4202280000000 1.0
C      1  0.4680690000000  0.4567550000000  0.4202290000000 1.0
C      1  0.5534170000000  0.4939680000000  0.4202290000000 1.0
C      1  0.5359630000000  0.5369970000000  0.4996790000000 1.0
C      1  0.4499790000000  0.5126470000000  0.4996790000000 1.0
C      1  0.5140590000000  0.4503570000000  0.4996800000000 1.0
C      1  0.4720900000000  0.4127790000000  0.5021990000000 1.0
C      1  0.5894910000000  0.5194400000000  0.5021990000000 1.0
C      1  0.4384190000000  0.5677820000000  0.5021980000000 1.0
C      1  0.4993250000000  0.5387940000000  0.4579160000000 1.0
C      1  0.4667410000000  0.4800180000000  0.4579160000000 1.0
C      1  0.5339340000000  0.4811870000000  0.4579170000000 1.0
C      1  0.4333890000000  0.4913010000000  0.5124770000000 1.0
C      1  0.5408390000000  0.4466630000000  0.5124780000000 1.0
C      1  0.5257710000000  0.5620360000000  0.5124770000000 1.0
C      1  0.5271270000000  0.4944600000000  0.5308940000000 1.0
C      1  0.4912350000000  0.5262630000000  0.5308940000000 1.0
C      1  0.4816380000000  0.4792780000000  0.5308940000000 1.0
C      1  0.4139790000000  0.5298950000000  0.5309980000000 1.0
C      1  0.5171210000000  0.4105560000000  0.5309990000000 1.0
C      1  0.5689000000000  0.5595490000000  0.5309980000000 1.0
C      1  0.5008070000000  0.5446980000000  0.5751110000000 1.0
C      1  0.4608870000000  0.4783510000000  0.5751110000000 1.0
C      1  0.5383050000000  0.4769530000000  0.5751120000000 1.0
C      1  0.5277470000000  0.4127220000000  0.4870330000000 1.0
C      1  0.5617120000000  0.5676690000000  0.4870320000000 1.0
C      1  0.4105420000000  0.5196090000000  0.4870320000000 1.0
C      1  0.4440410000000  0.5309210000000  0.5214570000000 1.0
C      1  0.5012010000000  0.4360780000000  0.5214580000000 1.0
C      1  0.5547570000000  0.5330020000000  0.5214580000000 1.0
C      1  0.4749800000000  0.4950870000000  0.5538330000000 1.0
C      1  0.5167650000000  0.4807890000000  0.5538330000000 1.0
C      1  0.5082540000000  0.5241250000000  0.5538330000000 1.0
C      1  0.4361350000000  0.5697600000000  0.5353040000000 1.0
C      1  0.4715180000000  0.4098120000000  0.5353050000000 1.0
C      1  0.5923460000000  0.5204290000000  0.5353050000000 1.0
C      1  0.5802800000000  0.4928820000000  0.5373390000000 1.0
C      1  0.4660240000000  0.5730840000000  0.5373380000000 1.0
C      1  0.4536950000000  0.4340350000000  0.5373390000000 1.0
C      1  0.5166840000000  0.4337840000000  0.5950810000000 1.0
C      1  0.5490030000000  0.5475580000000  0.5950810000000 1.0
C      1  0.4343120000000  0.5186600000000  0.5950810000000 1.0
C      1  0.5232240000000  0.4505780000000  0.4204910000000 1.0
C      1  0.5311890000000  0.5448230000000  0.4204910000000 1.0
C      1  0.4455880000000  0.5045980000000  0.4204910000000 1.0
C      1  0.4749790000000  0.4663780000000  0.5984180000000 1.0
C      1  0.5416280000000  0.4951440000000  0.5984180000000 1.0
C      1  0.4833920000000  0.5384800000000  0.5984180000000 1.0
C      1  0.4196390000000  0.5003190000000  0.5405150000000 1.0
C      1  0.5399040000000  0.4302460000000  0.5405160000000 1.0
C      1  0.5404570000000  0.5694350000000  0.5405150000000 1.0
C      1  0.5372660000000  0.6123480000000  0.4136480000000 1.0
C      1  0.3840710000000  0.4761020000000  0.4136470000000 1.0
C      1  0.5786630000000  0.4115510000000  0.4136490000000 1.0
C      1  0.5591030000000  0.4673380000000  0.5076460000000 1.0
C      1  0.4987350000000  0.5675160000000  0.5076450000000 1.0
C      1  0.4421620000000  0.4651470000000  0.5076450000000 1.0
END
