TITL C-862131-2149-1106 -0.000385764353055861 125000 -354.144501613507 0 0 65 (C1) n - 1
REM
REM in /home/nfs/bkarasulu/CARBON/AIRSS/Generating-Clusters/TERSOFF/Higher-Symm/FIRE-HFTN
REM
REM
REM
REM
REM
REM ./C.cell (b20cbc046b6831c77cfcea5457e17084)
REM AIRSS Version 0.9.1 bugfix July 2018 build 013d7b7c2542+ Fri, 06 Jul 2018 19:26:36 +0100
REM compiler GCC version 9.2.1 20190827 (Red Hat 9.2.1-1)
REM options -cpp -mtune=generic -march=x86-64 -g -O0 -fpre-include=/usr/include/finclude/math-vector-fortran.h
REM seed 1590166827 -1666593487 -1212565106 -1561257570 1071277149 122622263 -16574916 1539850415 -393691982 852203702 -814854895 750866198 -2032808791 501398075 -522342748 -526732464 -1483901132 1315176817 -651565843 434883225 406233430 -1015461793 1797902840 -1357362818 -1920949636 1590525710 821434173 1933016630 1436465002 -1904424285 -1921227789 -583176567 -305043997
REM
CELL 1.54180   50.00000   50.00000   50.00000   90.00000   90.00000   90.00000
LATT -1
SFAC C  
C      1  0.5144840000000  0.4833470000000  0.5514440000000 1.0
C      1  0.4810290000000  0.5089690000000  0.4569050000000 1.0
C      1  0.5474130000000  0.4701030000000  0.4763810000000 1.0
C      1  0.4519730000000  0.5289680000000  0.5249020000000 1.0
C      1  0.5089320000000  0.5007880000000  0.5892440000000 1.0
C      1  0.4929170000000  0.5019380000000  0.4133880000000 1.0
C      1  0.5098840000000  0.4342840000000  0.4332020000000 1.0
C      1  0.4955190000000  0.5593080000000  0.5651490000000 1.0
C      1  0.4652440000000  0.4525230000000  0.5304910000000 1.0
C      1  0.5357400000000  0.5464340000000  0.4743700000000 1.0
C      1  0.4328410000000  0.4778840000000  0.5221410000000 1.0
C      1  0.5689540000000  0.5207620000000  0.4755840000000 1.0
C      1  0.4408270000000  0.5005680000000  0.4482100000000 1.0
C      1  0.5563180000000  0.5031920000000  0.5507850000000 1.0
C      1  0.4919820000000  0.5728980000000  0.5395160000000 1.0
C      1  0.5109020000000  0.4253790000000  0.4609610000000 1.0
C      1  0.5049000000000  0.4629790000000  0.4367290000000 1.0
C      1  0.4948350000000  0.5310650000000  0.5571640000000 1.0
C      1  0.5051830000000  0.5787130000000  0.4916310000000 1.0
C      1  0.4951140000000  0.4300490000000  0.5030920000000 1.0
C      1  0.4399320000000  0.4712560000000  0.4925760000000 1.0
C      1  0.5621650000000  0.5288700000000  0.5047420000000 1.0
C      1  0.5195870000000  0.5726920000000  0.4657150000000 1.0
C      1  0.4817140000000  0.4259260000000  0.5289960000000 1.0
C      1  0.5428300000000  0.5465150000000  0.5477450000000 1.0
C      1  0.4560330000000  0.4497790000000  0.4458790000000 1.0
C      1  0.4468100000000  0.5285730000000  0.4939240000000 1.0
C      1  0.5504510000000  0.4747340000000  0.5074360000000 1.0
C      1  0.4688360000000  0.4604840000000  0.5616940000000 1.0
C      1  0.5276720000000  0.5266730000000  0.4506340000000 1.0
C      1  0.5053110000000  0.4580310000000  0.4985210000000 1.0
C      1  0.4907850000000  0.5506470000000  0.5021070000000 1.0
C      1  0.4833440000000  0.5268580000000  0.5282040000000 1.0
C      1  0.5153460000000  0.4706530000000  0.4662660000000 1.0
C      1  0.4791080000000  0.5385110000000  0.4561710000000 1.0
C      1  0.5205560000000  0.4558540000000  0.5457980000000 1.0
C      1  0.4846010000000  0.5100070000000  0.5753760000000 1.0
C      1  0.5183890000000  0.4868240000000  0.4208570000000 1.0
C      1  0.4423380000000  0.5000480000000  0.4780770000000 1.0
C      1  0.5523310000000  0.5027910000000  0.5203180000000 1.0
C      1  0.4749870000000  0.4677480000000  0.4341060000000 1.0
C      1  0.5219490000000  0.5265350000000  0.5446650000000 1.0
C      1  0.5106540000000  0.5029050000000  0.4636460000000 1.0
C      1  0.4919030000000  0.4945450000000  0.5328200000000 1.0
C      1  0.4805200000000  0.4737710000000  0.5129490000000 1.0
C      1  0.5198830000000  0.5400750000000  0.4989800000000 1.0
C      1  0.5569090000000  0.4958560000000  0.4602940000000 1.0
C      1  0.4462920000000  0.5000860000000  0.5390130000000 1.0
C      1  0.5371350000000  0.4356550000000  0.4742640000000 1.0
C      1  0.4622880000000  0.5631330000000  0.5302930000000 1.0
C      1  0.4971170000000  0.4393940000000  0.5543560000000 1.0
C      1  0.5048180000000  0.5506910000000  0.4463290000000 1.0
C      1  0.5407350000000  0.5031110000000  0.4343370000000 1.0
C      1  0.4635440000000  0.4909060000000  0.5635170000000 1.0
C      1  0.4555390000000  0.4441280000000  0.4746000000000 1.0
C      1  0.5501170000000  0.5588830000000  0.5210350000000 1.0
C      1  0.4686880000000  0.5457810000000  0.4823510000000 1.0
C      1  0.5285140000000  0.4571710000000  0.5173090000000 1.0
C      1  0.5240500000000  0.5151200000000  0.5155660000000 1.0
C      1  0.4734040000000  0.4963450000000  0.4899860000000 1.0
C      1  0.5337060000000  0.4964250000000  0.5712940000000 1.0
C      1  0.4675090000000  0.4963420000000  0.4315770000000 1.0
C      1  0.5188000000000  0.5767990000000  0.5192590000000 1.0
C      1  0.4824000000000  0.4241980000000  0.4780350000000 1.0
C      1  0.5061840000000  0.5007820000000  0.4938600000000 1.0
END
