TITL C-862127-1500-14 -0.00684639039621519 125000 -449.58447089993 0 0 84 (C3) n - 1
REM
REM in /home/nfs/bkarasulu/CARBON/AIRSS/Generating-Clusters/TERSOFF/Higher-Symm/FIRE-HFTN
REM
REM
REM
REM
REM
REM ./C.cell (b20cbc046b6831c77cfcea5457e17084)
REM AIRSS Version 0.9.1 bugfix July 2018 build 013d7b7c2542+ Fri, 06 Jul 2018 19:26:36 +0100
REM compiler GCC version 9.2.1 20190827 (Red Hat 9.2.1-1)
REM options -cpp -mtune=generic -march=x86-64 -g -O0 -fpre-include=/usr/include/finclude/math-vector-fortran.h
REM seed 301352088 -17345497 -432199621 -1001459885 516994614 -2141626651 537782067 -1203797904 1619228306 -1644148830 1857495020 1620347714 759556194 1845357792 -1336607555 -337408477 1239185995 758359430 936969001 -1212500648 -930346582 -15644395 933020806 -1044288577 686995161 -1682780812 -950941556 -1539204709 1182218930 207056735 -1759586259 -1703790711 1992778510
REM
CELL 1.54180   50.00000   50.00000   50.00000   90.00000   90.00000   90.00000
LATT -1
SFAC C  
C      1  0.5120270000000  0.4564310000000  0.5712990000000 1.0
C      1  0.4322400000000  0.4564300000000  0.4747660000000 1.0
C      1  0.5557330000000  0.4564310000000  0.4539350000000 1.0
C      1  0.5187300000000  0.5125340000000  0.4083710000000 1.0
C      1  0.5699880000000  0.5125340000000  0.5620350000000 1.0
C      1  0.4112820000000  0.5125340000000  0.5295930000000 1.0
C      1  0.5396550000000  0.4345470000000  0.5097460000000 1.0
C      1  0.4717320000000  0.4345470000000  0.5294690000000 1.0
C      1  0.4886130000000  0.4345470000000  0.4607850000000 1.0
C      1  0.4403990000000  0.5616540000000  0.4719710000000 1.0
C      1  0.5540740000000  0.5616540000000  0.4623990000000 1.0
C      1  0.5055270000000  0.5616540000000  0.5656300000000 1.0
C      1  0.5459490000000  0.4823020000000  0.4448880000000 1.0
C      1  0.5247540000000  0.4823020000000  0.5673490000000 1.0
C      1  0.4292970000000  0.4823020000000  0.4877630000000 1.0
C      1  0.4074270000000  0.5367010000000  0.4648940000000 1.0
C      1  0.5766890000000  0.5367010000000  0.4373820000000 1.0
C      1  0.5158840000000  0.5367010000000  0.5977240000000 1.0
C      1  0.5299410000000  0.4833040000000  0.5111570000000 1.0
C      1  0.4753680000000  0.4833040000000  0.5203510000000 1.0
C      1  0.4946920000000  0.4833040000000  0.4684920000000 1.0
C      1  0.5557190000000  0.4603310000000  0.5095230000000 1.0
C      1  0.4638930000000  0.4603310000000  0.5434930000000 1.0
C      1  0.4803880000000  0.4603310000000  0.4469840000000 1.0
C      1  0.4515570000000  0.5011520000000  0.5264740000000 1.0
C      1  0.5012950000000  0.5011520000000  0.4448100000000 1.0
C      1  0.5471490000000  0.5011520000000  0.5287160000000 1.0
C      1  0.4741290000000  0.4453320000000  0.4856550000000 1.0
C      1  0.5253590000000  0.4453320000000  0.4847680000000 1.0
C      1  0.5005120000000  0.4453320000000  0.5295770000000 1.0
C      1  0.5833880000000  0.5647740000000  0.4508870000000 1.0
C      1  0.5008390000000  0.5647740000000  0.5967730000000 1.0
C      1  0.4157730000000  0.5647730000000  0.4523400000000 1.0
C      1  0.5496440000000  0.5346650000000  0.5561720000000 1.0
C      1  0.4265310000000  0.5346650000000  0.5149070000000 1.0
C      1  0.5238250000000  0.5346650000000  0.4289210000000 1.0
C      1  0.4950980000000  0.5348050000000  0.4814080000000 1.0
C      1  0.5185520000000  0.5348050000000  0.5050510000000 1.0
C      1  0.4863490000000  0.5348050000000  0.5135410000000 1.0
C      1  0.4335720000000  0.4330740000000  0.4923370000000 1.0
C      1  0.5398500000000  0.4330740000000  0.4463030000000 1.0
C      1  0.5265780000000  0.4330740000000  0.5613600000000 1.0
C      1  0.5479720000000  0.5031250000000  0.4684040000000 1.0
C      1  0.5033770000000  0.5031250000000  0.5573430000000 1.0
C      1  0.4486510000000  0.5031250000000  0.4742530000000 1.0
C      1  0.5231740000000  0.4271440000000  0.5326640000000 1.0
C      1  0.4601250000000  0.4271440000000  0.5037370000000 1.0
C      1  0.5167010000000  0.4271440000000  0.4635990000000 1.0
C      1  0.4713950000000  0.4792800000000  0.4895460000000 1.0
C      1  0.5233560000000  0.4792800000000  0.4804550000000 1.0
C      1  0.5052490000000  0.4792800000000  0.5299990000000 1.0
C      1  0.4825540000000  0.5224760000000  0.4317550000000 1.0
C      1  0.5678250000000  0.5224760000000  0.5190140000000 1.0
C      1  0.4496210000000  0.5224760000000  0.5492310000000 1.0
C      1  0.4463360000000  0.5487670000000  0.5341820000000 1.0
C      1  0.4972290000000  0.5487670000000  0.4364350000000 1.0
C      1  0.5564340000000  0.5487670000000  0.5293830000000 1.0
C      1  0.4486950000000  0.4574540000000  0.4487740000000 1.0
C      1  0.5700160000000  0.4574540000000  0.4811810000000 1.0
C      1  0.4812900000000  0.4574540000000  0.5700450000000 1.0
C      1  0.5728470000000  0.4681980000000  0.5325510000000 1.0
C      1  0.4353860000000  0.4681980000000  0.5468110000000 1.0
C      1  0.4917670000000  0.4681980000000  0.4206370000000 1.0
C      1  0.4202420000000  0.5131150000000  0.5607580000000 1.0
C      1  0.4872610000000  0.5131150000000  0.4005490000000 1.0
C      1  0.5924970000000  0.5131150000000  0.5386930000000 1.0
C      1  0.5206410000000  0.5315100000000  0.5649510000000 1.0
C      1  0.4334300000000  0.5315100000000  0.4854000000000 1.0
C      1  0.5459290000000  0.5315100000000  0.4496490000000 1.0
C      1  0.5216600000000  0.4856230000000  0.4248940000000 1.0
C      1  0.5542130000000  0.4856230000000  0.5563110000000 1.0
C      1  0.4241270000000  0.4856230000000  0.5187950000000 1.0
C      1  0.5912730000000  0.4878430000000  0.5175820000000 1.0
C      1  0.4391370000000  0.4878430000000  0.5702540000000 1.0
C      1  0.4695900000000  0.4878430000000  0.4121640000000 1.0
C      1  0.4668370000000  0.5723930000000  0.4675240000000 1.0
C      1  0.5447060000000  0.5723930000000  0.4875180000000 1.0
C      1  0.4884560000000  0.5723930000000  0.5449580000000 1.0
C      1  0.4902920000000  0.5563170000000  0.4632480000000 1.0
C      1  0.5366820000000  0.5563170000000  0.5099690000000 1.0
C      1  0.4730260000000  0.5563170000000  0.5267830000000 1.0
C      1  0.4711240000000  0.5051510000000  0.5682490000000 1.0
C      1  0.4553320000000  0.5051510000000  0.4408680000000 1.0
C      1  0.5735440000000  0.5051510000000  0.4908820000000 1.0
END
