TITL C-862127-1500-937 0.00923339373664433 125000 -618.570040538367 0 0 108 (C4) n - 1
REM
REM in /home/nfs/bkarasulu/CARBON/AIRSS/Generating-Clusters/TERSOFF/Higher-Symm/FIRE-HFTN
REM
REM
REM
REM
REM
REM ./C.cell (b20cbc046b6831c77cfcea5457e17084)
REM AIRSS Version 0.9.1 bugfix July 2018 build 013d7b7c2542+ Fri, 06 Jul 2018 19:26:36 +0100
REM compiler GCC version 9.2.1 20190827 (Red Hat 9.2.1-1)
REM options -cpp -mtune=generic -march=x86-64 -g -O0 -fpre-include=/usr/include/finclude/math-vector-fortran.h
REM seed -1932331797 -773694756 -940308624 1656804102 389629156 -100455828 -536076512 -543687112 -542103087 -2073664244 -1409975338 -1757720416 1200160364 -696418502 -1441522430 -1859150365 929568002 -522143989 -1603050370 -1081438034 -2051059871 1514381869 -1610448851 -328483549 -2089773302 -1713712274 2110731562 -10691657 1456157998 2069846279 1936606170 -1018712797 -1806323863
REM
CELL 1.54180   50.00000   50.00000   50.00000   90.00000   90.00000   90.00000
LATT -1
SFAC C  
C      1  0.5526930000000  0.5550610000000  0.4834650000000 1.0
C      1  0.5526930000000  0.5165350000000  0.5550610000000 1.0
C      1  0.5526930000000  0.4449390000000  0.5165360000000 1.0
C      1  0.5526930000000  0.4834650000000  0.4449390000000 1.0
C      1  0.5530230000000  0.5533370000000  0.5120580000000 1.0
C      1  0.5530240000000  0.5120580000000  0.4466630000000 1.0
C      1  0.5530230000000  0.4466630000000  0.4879420000000 1.0
C      1  0.5530230000000  0.4879420000000  0.5533370000000 1.0
C      1  0.4941870000000  0.5799270000000  0.5614790000000 1.0
C      1  0.4941870000000  0.4385210000000  0.5799270000000 1.0
C      1  0.4941870000000  0.4200730000000  0.4385210000000 1.0
C      1  0.4941870000000  0.5614790000000  0.4200730000000 1.0
C      1  0.4820840000000  0.5832260000000  0.4373980000000 1.0
C      1  0.4820840000000  0.4373980000000  0.4167740000000 1.0
C      1  0.4820840000000  0.4167740000000  0.5626020000000 1.0
C      1  0.4820840000000  0.5626020000000  0.5832260000000 1.0
C      1  0.4398470000000  0.5572710000000  0.5389310000000 1.0
C      1  0.4398470000000  0.4610690000000  0.5572710000000 1.0
C      1  0.4398470000000  0.4427290000000  0.4610690000000 1.0
C      1  0.4398470000000  0.5389310000000  0.4427280000000 1.0
C      1  0.4361400000000  0.5577780000000  0.4692670000000 1.0
C      1  0.4361410000000  0.4692670000000  0.4422220000000 1.0
C      1  0.4361400000000  0.4422230000000  0.5307330000000 1.0
C      1  0.4361400000000  0.5307330000000  0.5577770000000 1.0
C      1  0.4520870000000  0.5804690000000  0.4777880000000 1.0
C      1  0.4520860000000  0.5222120000000  0.5804690000000 1.0
C      1  0.4520860000000  0.4195310000000  0.5222120000000 1.0
C      1  0.4520870000000  0.4777880000000  0.4195310000000 1.0
C      1  0.4548230000000  0.5809180000000  0.5282790000000 1.0
C      1  0.4548230000000  0.5282790000000  0.4190820000000 1.0
C      1  0.4548230000000  0.4190820000000  0.4717210000000 1.0
C      1  0.4548230000000  0.4717210000000  0.5809180000000 1.0
C      1  0.5698250000000  0.4423070000000  0.4240570000000 1.0
C      1  0.5698250000000  0.5759430000000  0.4423070000000 1.0
C      1  0.5698250000000  0.5576930000000  0.5759430000000 1.0
C      1  0.5698250000000  0.4240570000000  0.5576930000000 1.0
C      1  0.5713080000000  0.4492330000000  0.5794000000000 1.0
C      1  0.5713080000000  0.5794000000000  0.5507670000000 1.0
C      1  0.5713080000000  0.5507660000000  0.4206010000000 1.0
C      1  0.5713080000000  0.4206000000000  0.4492340000000 1.0
C      1  0.4853670000000  0.4886510000000  0.4671570000000 1.0
C      1  0.4853670000000  0.5328430000000  0.4886510000000 1.0
C      1  0.4853660000000  0.5113490000000  0.5328430000000 1.0
C      1  0.4853660000000  0.4671570000000  0.5113490000000 1.0
C      1  0.4745700000000  0.4846160000000  0.5316120000000 1.0
C      1  0.4745700000000  0.5316120000000  0.5153840000000 1.0
C      1  0.4745700000000  0.5153850000000  0.4683880000000 1.0
C      1  0.4745700000000  0.4683880000000  0.4846150000000 1.0
C      1  0.4443150000000  0.4832800000000  0.5340360000000 1.0
C      1  0.4443150000000  0.4659640000000  0.4832800000000 1.0
C      1  0.4443150000000  0.5167200000000  0.4659640000000 1.0
C      1  0.4443150000000  0.5340360000000  0.5167190000000 1.0
C      1  0.4325110000000  0.4896540000000  0.4652570000000 1.0
C      1  0.4325110000000  0.4652570000000  0.5103460000000 1.0
C      1  0.4325110000000  0.5103460000000  0.5347430000000 1.0
C      1  0.4325110000000  0.5347430000000  0.4896540000000 1.0
C      1  0.5042530000000  0.5687180000000  0.5140310000000 1.0
C      1  0.5042530000000  0.4859690000000  0.5687180000000 1.0
C      1  0.5042530000000  0.4312820000000  0.4859690000000 1.0
C      1  0.5042530000000  0.5140310000000  0.4312820000000 1.0
C      1  0.5036900000000  0.5702830000000  0.4836550000000 1.0
C      1  0.5036900000000  0.4836550000000  0.4297170000000 1.0
C      1  0.5036900000000  0.4297170000000  0.5163450000000 1.0
C      1  0.5036900000000  0.5163450000000  0.5702830000000 1.0
C      1  0.4886180000000  0.5147240000000  0.6094510000000 1.0
C      1  0.4886180000000  0.3905490000000  0.5147240000000 1.0
C      1  0.4886180000000  0.4852760000000  0.3905490000000 1.0
C      1  0.4886180000000  0.6094510000000  0.4852760000000 1.0
C      1  0.4909770000000  0.5149250000000  0.3910330000000 1.0
C      1  0.4909770000000  0.3910330000000  0.4850750000000 1.0
C      1  0.4909760000000  0.4850750000000  0.6089670000000 1.0
C      1  0.4909770000000  0.6089670000000  0.5149250000000 1.0
C      1  0.5386140000000  0.4234150000000  0.4478530000000 1.0
C      1  0.5386140000000  0.5521470000000  0.4234160000000 1.0
C      1  0.5386130000000  0.5765850000000  0.5521470000000 1.0
C      1  0.5386130000000  0.4478530000000  0.5765850000000 1.0
C      1  0.5362630000000  0.4234290000000  0.5572000000000 1.0
C      1  0.5362630000000  0.5572000000000  0.5765710000000 1.0
C      1  0.5362640000000  0.5765710000000  0.4428000000000 1.0
C      1  0.5362640000000  0.4428000000000  0.4234300000000 1.0
C      1  0.5302270000000  0.4360160000000  0.4734350000000 1.0
C      1  0.5302270000000  0.5265650000000  0.4360160000000 1.0
C      1  0.5302270000000  0.5639840000000  0.5265650000000 1.0
C      1  0.5302270000000  0.4734350000000  0.5639840000000 1.0
C      1  0.5295310000000  0.4334350000000  0.5298410000000 1.0
C      1  0.5295310000000  0.5298410000000  0.5665650000000 1.0
C      1  0.5295320000000  0.5665650000000  0.4701590000000 1.0
C      1  0.5295320000000  0.4701590000000  0.4334350000000 1.0
C      1  0.5776340000000  0.4707540000000  0.5545860000000 1.0
C      1  0.5776340000000  0.4454140000000  0.4707550000000 1.0
C      1  0.5776340000000  0.5292450000000  0.4454150000000 1.0
C      1  0.5776340000000  0.5545860000000  0.5292460000000 1.0
C      1  0.5767570000000  0.4658500000000  0.4460370000000 1.0
C      1  0.5767570000000  0.4460370000000  0.5341500000000 1.0
C      1  0.5767570000000  0.5341500000000  0.5539630000000 1.0
C      1  0.5767570000000  0.5539630000000  0.4658510000000 1.0
C      1  0.4803360000000  0.5320340000000  0.5842980000000 1.0
C      1  0.4803360000000  0.4157020000000  0.5320340000000 1.0
C      1  0.4803360000000  0.4679660000000  0.4157020000000 1.0
C      1  0.4803360000000  0.5842980000000  0.4679660000000 1.0
C      1  0.4841750000000  0.5325640000000  0.4162080000000 1.0
C      1  0.4841750000000  0.4162080000000  0.4674360000000 1.0
C      1  0.4841750000000  0.4674360000000  0.5837920000000 1.0
C      1  0.4841750000000  0.5837920000000  0.5325640000000 1.0
C      1  0.4453280000000  0.5921120000000  0.5033750000000 1.0
C      1  0.4453280000000  0.5033750000000  0.4078880000000 1.0
C      1  0.4453280000000  0.4966250000000  0.5921120000000 1.0
C      1  0.4453280000000  0.4078880000000  0.4966250000000 1.0
END
