TITL C-862505-1648-314 1.85785330021082e-06 125000 -23.1555288512055 0 0 7 (D(inf)h) n - 1
REM
REM in /home/nfs/bkarasulu/CARBON/AIRSS/Generating-Clusters/TERSOFF/Higher-Symm/FIRE-HFTN
REM
REM
REM
REM
REM
REM ./C.cell (b20cbc046b6831c77cfcea5457e17084)
REM AIRSS Version 0.9.1 bugfix July 2018 build 013d7b7c2542+ Fri, 06 Jul 2018 19:26:36 +0100
REM compiler GCC version 9.2.1 20190827 (Red Hat 9.2.1-1)
REM options -cpp -mtune=generic -march=x86-64 -g -O0 -fpre-include=/usr/include/finclude/math-vector-fortran.h
REM seed -642140064 4084168 1298312687 -703192552 -1856710593 493671513 2055308897 934119354 1212257937 -2045033401 985938695 -1570740849 -820715296 740326163 1304302868 -195700368 2057218430 545678393 1162257218 208943929 -1952364416 1583571266 51295202 -1903979793 374142231 1653274176 18647436 -1232350716 1249973504 825731994 -1794227367 -1535095478 -686577022
REM
CELL 1.54180   50.00000   50.00000   50.00000   90.00000   90.00000   90.00000
LATT -1
SFAC C  
C      1  0.5010000000000  0.5007810000000  0.5619770000000 1.0
C      1  0.5010000000000  0.5007810000000  0.5000000000000 1.0
C      1  0.5010000000000  0.5007810000000  0.5309890000000 1.0
C      1  0.5010000000000  0.5007810000000  0.4080900000000 1.0
C      1  0.5010000000000  0.5007810000000  0.5919100000000 1.0
C      1  0.5010000000000  0.5007810000000  0.4380230000000 1.0
C      1  0.5010000000000  0.5007810000000  0.4690110000000 1.0
END
