TITL C-862127-1500-948 -8.80486054133604 125000 -914.380967205319 0 0 156 (C1) n - 1
REM
REM in /home/nfs/bkarasulu/CARBON/AIRSS/Generating-Clusters/TERSOFF/Higher-Symm/FIRE-HFTN
REM
REM
REM
REM
REM
REM ./C.cell (b20cbc046b6831c77cfcea5457e17084)
REM AIRSS Version 0.9.1 bugfix July 2018 build 013d7b7c2542+ Fri, 06 Jul 2018 19:26:36 +0100
REM compiler GCC version 9.2.1 20190827 (Red Hat 9.2.1-1)
REM options -cpp -mtune=generic -march=x86-64 -g -O0 -fpre-include=/usr/include/finclude/math-vector-fortran.h
REM seed 1787512291 1019378158 -208587831 444381065 -41249835 1889012304 1892559463 1040161493 -470834735 -633895951 785265741 -308207781 -1920923289 176584146 675585490 -1152198218 621429342 -1815566860 -1376780460 -1820046137 195598615 1936321934 1512539625 510856191 -2053088962 1675048491 -315462325 559081824 1437496560 -1959595480 1613391596 556501725 -1818586076
REM
CELL 1.54180   50.00000   50.00000   50.00000   90.00000   90.00000   90.00000
LATT -1
SFAC C  
C      1  0.5443910000000  0.4255690000000  0.4411100000000 1.0
C      1  0.4185190000000  0.5819470000000  0.5267380000000 1.0
C      1  0.5482030000000  0.4327560000000  0.4899210000000 1.0
C      1  0.5629230000000  0.4688640000000  0.4611320000000 1.0
C      1  0.4874030000000  0.6116340000000  0.4894090000000 1.0
C      1  0.5352350000000  0.4864450000000  0.5329480000000 1.0
C      1  0.4593840000000  0.4423030000000  0.5432770000000 1.0
C      1  0.5429130000000  0.5458900000000  0.5295860000000 1.0
C      1  0.3931230000000  0.5109570000000  0.5260170000000 1.0
C      1  0.4301330000000  0.5324530000000  0.5926160000000 1.0
C      1  0.4240080000000  0.4277530000000  0.5139400000000 1.0
C      1  0.5061160000000  0.5017330000000  0.3869400000000 1.0
C      1  0.5706340000000  0.5547650000000  0.5263940000000 1.0
C      1  0.5429060000000  0.4847200000000  0.4467840000000 1.0
C      1  0.5784180000000  0.5818330000000  0.5335250000000 1.0
C      1  0.5320580000000  0.5027580000000  0.5573760000000 1.0
C      1  0.5584270000000  0.5705960000000  0.4536280000000 1.0
C      1  0.5500750000000  0.4482010000000  0.5419090000000 1.0
C      1  0.4340810000000  0.5170600000000  0.5190640000000 1.0
C      1  0.6043290000000  0.5421330000000  0.4901210000000 1.0
C      1  0.5097740000000  0.4431690000000  0.5738940000000 1.0
C      1  0.6022160000000  0.5701280000000  0.4815660000000 1.0
C      1  0.4980650000000  0.4737530000000  0.5069950000000 1.0
C      1  0.4172420000000  0.4520550000000  0.4499920000000 1.0
C      1  0.4924150000000  0.5766680000000  0.5119470000000 1.0
C      1  0.4636270000000  0.4322320000000  0.5838200000000 1.0
C      1  0.5089160000000  0.4502800000000  0.4301230000000 1.0
C      1  0.5216440000000  0.4911480000000  0.5092440000000 1.0
C      1  0.5375800000000  0.5999630000000  0.4916150000000 1.0
C      1  0.6104960000000  0.4936860000000  0.4630180000000 1.0
C      1  0.4075310000000  0.5548260000000  0.5203380000000 1.0
C      1  0.4842070000000  0.5467450000000  0.6003500000000 1.0
C      1  0.5070800000000  0.4820060000000  0.6101770000000 1.0
C      1  0.4208540000000  0.5060700000000  0.4501880000000 1.0
C      1  0.4896720000000  0.4205510000000  0.5765750000000 1.0
C      1  0.6094800000000  0.5234920000000  0.4662540000000 1.0
C      1  0.4240530000000  0.5725860000000  0.4287280000000 1.0
C      1  0.4654790000000  0.5961030000000  0.5066740000000 1.0
C      1  0.5196000000000  0.5745090000000  0.5742220000000 1.0
C      1  0.6030760000000  0.5363570000000  0.4412730000000 1.0
C      1  0.4533480000000  0.4151590000000  0.4458160000000 1.0
C      1  0.4235340000000  0.5770240000000  0.4798470000000 1.0
C      1  0.5905010000000  0.5357530000000  0.5158160000000 1.0
C      1  0.5214730000000  0.4439620000000  0.5447890000000 1.0
C      1  0.5541520000000  0.5452660000000  0.4352570000000 1.0
C      1  0.5079980000000  0.4539190000000  0.4644970000000 1.0
C      1  0.4739930000000  0.4041430000000  0.5337350000000 1.0
C      1  0.5652030000000  0.4205110000000  0.5101900000000 1.0
C      1  0.4177760000000  0.5296290000000  0.5424840000000 1.0
C      1  0.4653520000000  0.5258050000000  0.3853160000000 1.0
C      1  0.6024750000000  0.4796360000000  0.4373940000000 1.0
C      1  0.5102930000000  0.5860820000000  0.4216560000000 1.0
C      1  0.5859660000000  0.5794350000000  0.4592340000000 1.0
C      1  0.4281400000000  0.5849850000000  0.5532370000000 1.0
C      1  0.4592220000000  0.4556650000000  0.4727670000000 1.0
C      1  0.5279420000000  0.5387290000000  0.4186570000000 1.0
C      1  0.5771430000000  0.5071710000000  0.4110490000000 1.0
C      1  0.5904820000000  0.4524290000000  0.4340400000000 1.0
C      1  0.5288430000000  0.5467660000000  0.5794040000000 1.0
C      1  0.4420210000000  0.4735800000000  0.3977470000000 1.0
C      1  0.4566360000000  0.4607060000000  0.4211440000000 1.0
C      1  0.5938140000000  0.4239640000000  0.5080800000000 1.0
C      1  0.5134080000000  0.3830600000000  0.5492780000000 1.0
C      1  0.5159070000000  0.4081190000000  0.4484750000000 1.0
C      1  0.5042910000000  0.5536980000000  0.4932900000000 1.0
C      1  0.5103710000000  0.5329230000000  0.5988610000000 1.0
C      1  0.4628000000000  0.5485640000000  0.4611430000000 1.0
C      1  0.4532370000000  0.4062970000000  0.4753320000000 1.0
C      1  0.4905210000000  0.5737860000000  0.5859510000000 1.0
C      1  0.4973350000000  0.5280930000000  0.4276580000000 1.0
C      1  0.5788410000000  0.5309850000000  0.4272680000000 1.0
C      1  0.5094060000000  0.5849350000000  0.4508880000000 1.0
C      1  0.5545970000000  0.4013950000000  0.5284110000000 1.0
C      1  0.5581050000000  0.4400220000000  0.4644990000000 1.0
C      1  0.4101780000000  0.4661790000000  0.5492450000000 1.0
C      1  0.4788530000000  0.6094390000000  0.5533810000000 1.0
C      1  0.5342620000000  0.5128460000000  0.4937590000000 1.0
C      1  0.4115800000000  0.5094370000000  0.4987290000000 1.0
C      1  0.4813610000000  0.4142510000000  0.4863190000000 1.0
C      1  0.5207320000000  0.4419600000000  0.4916040000000 1.0
C      1  0.5851910000000  0.5085540000000  0.5583080000000 1.0
C      1  0.4437640000000  0.4721370000000  0.5081640000000 1.0
C      1  0.5145350000000  0.4842890000000  0.4540550000000 1.0
C      1  0.5627610000000  0.5089120000000  0.4881580000000 1.0
C      1  0.5560160000000  0.4308660000000  0.5980190000000 1.0
C      1  0.5525650000000  0.4942240000000  0.4044470000000 1.0
C      1  0.5203740000000  0.3808870000000  0.4968850000000 1.0
C      1  0.5284450000000  0.5390710000000  0.5042620000000 1.0
C      1  0.5967010000000  0.5119370000000  0.5313070000000 1.0
C      1  0.5626350000000  0.4466810000000  0.4232950000000 1.0
C      1  0.4497300000000  0.5045480000000  0.4821670000000 1.0
C      1  0.4497250000000  0.5684250000000  0.5616170000000 1.0
C      1  0.6099700000000  0.4899780000000  0.5183140000000 1.0
C      1  0.4479290000000  0.5393450000000  0.5552030000000 1.0
C      1  0.4091330000000  0.5528350000000  0.4888690000000 1.0
C      1  0.4756820000000  0.5804300000000  0.5614110000000 1.0
C      1  0.4845130000000  0.4172570000000  0.4387280000000 1.0
C      1  0.5213120000000  0.4589490000000  0.6202800000000 1.0
C      1  0.4581140000000  0.4829580000000  0.4649120000000 1.0
C      1  0.4355900000000  0.5913990000000  0.5033720000000 1.0
C      1  0.4936660000000  0.4740770000000  0.5836910000000 1.0
C      1  0.5140590000000  0.6018110000000  0.5119280000000 1.0
C      1  0.5210790000000  0.5820980000000  0.5421180000000 1.0
C      1  0.4818220000000  0.4382160000000  0.4662770000000 1.0
C      1  0.4897990000000  0.3986110000000  0.5564520000000 1.0
C      1  0.3987630000000  0.4793810000000  0.5250330000000 1.0
C      1  0.4651380000000  0.4881390000000  0.4377060000000 1.0
C      1  0.5064310000000  0.3997510000000  0.4779700000000 1.0
C      1  0.4939620000000  0.4984290000000  0.4376340000000 1.0
C      1  0.5196590000000  0.5642660000000  0.4057260000000 1.0
C      1  0.4409240000000  0.4411110000000  0.4371130000000 1.0
C      1  0.4526870000000  0.5023170000000  0.3993520000000 1.0
C      1  0.5042670000000  0.5579970000000  0.4641310000000 1.0
C      1  0.5357040000000  0.5320620000000  0.5554800000000 1.0
C      1  0.4667540000000  0.5347960000000  0.4364080000000 1.0
C      1  0.4856290000000  0.5380740000000  0.5329690000000 1.0
C      1  0.4407370000000  0.4757880000000  0.5927920000000 1.0
C      1  0.4292910000000  0.4067130000000  0.4928710000000 1.0
C      1  0.4582500000000  0.5301410000000  0.6033220000000 1.0
C      1  0.5291970000000  0.5112760000000  0.4019750000000 1.0
C      1  0.4996310000000  0.4974780000000  0.5647990000000 1.0
C      1  0.4420090000000  0.4259290000000  0.5638460000000 1.0
C      1  0.4616210000000  0.5781940000000  0.4622100000000 1.0
C      1  0.4866830000000  0.4587680000000  0.4119740000000 1.0
C      1  0.4834450000000  0.4874380000000  0.3985020000000 1.0
C      1  0.4178840000000  0.4365450000000  0.5459370000000 1.0
C      1  0.4465660000000  0.5120850000000  0.4300300000000 1.0
C      1  0.5296890000000  0.3878120000000  0.5249930000000 1.0
C      1  0.4878100000000  0.5376210000000  0.3988100000000 1.0
C      1  0.4164570000000  0.4776470000000  0.4643220000000 1.0
C      1  0.4533360000000  0.4954420000000  0.5229840000000 1.0
C      1  0.4168300000000  0.4780280000000  0.4953240000000 1.0
C      1  0.4999410000000  0.6195160000000  0.5351790000000 1.0
C      1  0.5173420000000  0.5093200000000  0.6148300000000 1.0
C      1  0.5038110000000  0.4442030000000  0.5188050000000 1.0
C      1  0.5748840000000  0.4834770000000  0.4827450000000 1.0
C      1  0.4849820000000  0.5959410000000  0.4640740000000 1.0
C      1  0.4221340000000  0.4850260000000  0.5717280000000 1.0
C      1  0.4218140000000  0.5880210000000  0.4531100000000 1.0
C      1  0.4478940000000  0.4460250000000  0.5174690000000 1.0
C      1  0.5752880000000  0.4459850000000  0.5834770000000 1.0
C      1  0.4096670000000  0.5260540000000  0.4741420000000 1.0
C      1  0.4653610000000  0.4610060000000  0.5881460000000 1.0
C      1  0.4849490000000  0.5334220000000  0.5034730000000 1.0
C      1  0.5359030000000  0.5868920000000  0.4647070000000 1.0
C      1  0.4179270000000  0.5146830000000  0.5710080000000 1.0
C      1  0.4923570000000  0.5663720000000  0.5404990000000 1.0
C      1  0.5663060000000  0.4620670000000  0.5614390000000 1.0
C      1  0.6065290000000  0.4460980000000  0.4950660000000 1.0
C      1  0.5981110000000  0.4735520000000  0.4977300000000 1.0
C      1  0.5622710000000  0.4911560000000  0.5647300000000 1.0
C      1  0.4755270000000  0.5187230000000  0.5533170000000 1.0
C      1  0.4825800000000  0.4226720000000  0.5136480000000 1.0
C      1  0.4626900000000  0.5305770000000  0.4849060000000 1.0
C      1  0.5503200000000  0.4648630000000  0.4038020000000 1.0
C      1  0.5285700000000  0.4396210000000  0.5998450000000 1.0
END
