TITL C-862506-1665-688 179030.532448337 125000 -1039.04544533329 0 0 175 (C1) n - 1
REM
REM in /home/nfs/bkarasulu/CARBON/AIRSS/Generating-Clusters/TERSOFF/Higher-Symm/FIRE-HFTN
REM
REM
REM
REM
REM
REM ./C.cell (b20cbc046b6831c77cfcea5457e17084)
REM AIRSS Version 0.9.1 bugfix July 2018 build 013d7b7c2542+ Fri, 06 Jul 2018 19:26:36 +0100
REM compiler GCC version 9.2.1 20190827 (Red Hat 9.2.1-1)
REM options -cpp -mtune=generic -march=x86-64 -g -O0 -fpre-include=/usr/include/finclude/math-vector-fortran.h
REM seed 523477798 -458221729 -1374873551 -927659835 -1637947390 -1309398375 -2027174650 56094006 1035769268 -1846317792 904004246 1588080575 -690634818 -1735180359 -2024017250 -234313047 2130840356 -1050581653 -86761192 -1542333851 -851531724 1311684571 434647584 -424996545 105340052 -1919949327 -838054415 -926732813 -750689166 -985485535 -607932331 1401988410 65733879
REM
CELL 1.54180   50.00000   50.00000   50.00000   90.00000   90.00000   90.00000
LATT -1
SFAC C  
C      1  0.5170150000000  0.4808120000000  0.6382260000000 1.0
C      1  0.5068620000000  0.5800720000000  0.5088820000000 1.0
C      1  0.4692210000000  0.4886070000000  0.3961300000000 1.0
C      1  0.5739790000000  0.5769840000000  0.5054800000000 1.0
C      1  0.4006050000000  0.4723590000000  0.5678330000000 1.0
C      1  0.5051960000000  0.3964250000000  0.4705850000000 1.0
C      1  0.5934370000000  0.5409740000000  0.4741900000000 1.0
C      1  0.5565840000000  0.5115570000000  0.4621480000000 1.0
C      1  0.5468170000000  0.5724750000000  0.4485610000000 1.0
C      1  0.5498110000000  0.4835730000000  0.4605980000000 1.0
C      1  0.4958310000000  0.4148210000000  0.5071370000000 1.0
C      1  0.4954050000000  0.4996150000000  0.4051880000000 1.0
C      1  0.4629450000000  0.4119200000000  0.5424200000000 1.0
C      1  0.3719410000000  0.4952540000000  0.5247130000000 1.0
C      1  0.4166670000000  0.5201170000000  0.4337750000000 1.0
C      1  0.3839670000000  0.4939930000000  0.5518670000000 1.0
C      1  0.4633010000000  0.6013590000000  0.5191790000000 1.0
C      1  0.5108760000000  0.4358850000000  0.4933400000000 1.0
C      1  0.5296150000000  0.4638760000000  0.3928830000000 1.0
C      1  0.5455800000000  0.5574450000000  0.5910120000000 1.0
C      1  0.4496970000000  0.4717400000000  0.4690670000000 1.0
C      1  0.5973840000000  0.5211270000000  0.4265460000000 1.0
C      1  0.5307190000000  0.5941430000000  0.4344970000000 1.0
C      1  0.5784590000000  0.4117950000000  0.5096190000000 1.0
C      1  0.4454240000000  0.5058960000000  0.3929620000000 1.0
C      1  0.4320170000000  0.3967320000000  0.4419840000000 1.0
C      1  0.5736420000000  0.5658490000000  0.4357580000000 1.0
C      1  0.4182210000000  0.4223920000000  0.4930710000000 1.0
C      1  0.5370790000000  0.5454750000000  0.3948450000000 1.0
C      1  0.5277220000000  0.5466680000000  0.4933830000000 1.0
C      1  0.4817450000000  0.3984860000000  0.4523460000000 1.0
C      1  0.4037350000000  0.5579510000000  0.5130300000000 1.0
C      1  0.5090920000000  0.5480080000000  0.3958640000000 1.0
C      1  0.5398740000000  0.5277010000000  0.5132760000000 1.0
C      1  0.4629760000000  0.4562570000000  0.5916650000000 1.0
C      1  0.5241620000000  0.4209910000000  0.4694590000000 1.0
C      1  0.4973280000000  0.4631940000000  0.4918500000000 1.0
C      1  0.4509520000000  0.5501060000000  0.4175310000000 1.0
C      1  0.4993450000000  0.4782800000000  0.5638550000000 1.0
C      1  0.4538910000000  0.5754330000000  0.5278650000000 1.0
C      1  0.4684730000000  0.5248320000000  0.5335860000000 1.0
C      1  0.5417510000000  0.5866370000000  0.5459190000000 1.0
C      1  0.4922130000000  0.5363000000000  0.4395500000000 1.0
C      1  0.4559830000000  0.5625260000000  0.4669490000000 1.0
C      1  0.4667460000000  0.5510980000000  0.5172060000000 1.0
C      1  0.5760530000000  0.4978850000000  0.5484720000000 1.0
C      1  0.5811200000000  0.4836630000000  0.5731590000000 1.0
C      1  0.5429230000000  0.5682100000000  0.4786080000000 1.0
C      1  0.4049780000000  0.4680800000000  0.4293060000000 1.0
C      1  0.4111720000000  0.5752230000000  0.4904490000000 1.0
C      1  0.5448770000000  0.4251440000000  0.4205980000000 1.0
C      1  0.4938940000000  0.4859680000000  0.5152920000000 1.0
C      1  0.5920780000000  0.4532400000000  0.4726070000000 1.0
C      1  0.5053200000000  0.5616020000000  0.5677020000000 1.0
C      1  0.4904030000000  0.5524160000000  0.5914180000000 1.0
C      1  0.4472170000000  0.4991050000000  0.5006530000000 1.0
C      1  0.5214900000000  0.4254560000000  0.4386960000000 1.0
C      1  0.5646990000000  0.4630710000000  0.4798100000000 1.0
C      1  0.4041010000000  0.4417570000000  0.4732780000000 1.0
C      1  0.5040090000000  0.5931240000000  0.4206160000000 1.0
C      1  0.5812390000000  0.4542640000000  0.5694470000000 1.0
C      1  0.4650010000000  0.4615070000000  0.4949120000000 1.0
C      1  0.4666360000000  0.6093880000000  0.4517700000000 1.0
C      1  0.5684330000000  0.4707230000000  0.4147570000000 1.0
C      1  0.5557260000000  0.4982320000000  0.3645830000000 1.0
C      1  0.5757950000000  0.5198590000000  0.4813740000000 1.0
C      1  0.5159540000000  0.4782590000000  0.4171570000000 1.0
C      1  0.4155100000000  0.4174030000000  0.4298280000000 1.0
C      1  0.5524910000000  0.4471350000000  0.4027710000000 1.0
C      1  0.4333280000000  0.5227800000000  0.4926850000000 1.0
C      1  0.5777680000000  0.5025510000000  0.3833920000000 1.0
C      1  0.4339800000000  0.5051340000000  0.5873510000000 1.0
C      1  0.5785890000000  0.4378390000000  0.5224600000000 1.0
C      1  0.4766870000000  0.4605410000000  0.6165970000000 1.0
C      1  0.4924800000000  0.4838900000000  0.6229310000000 1.0
C      1  0.4605380000000  0.5474040000000  0.5921240000000 1.0
C      1  0.4834010000000  0.4328250000000  0.5537870000000 1.0
C      1  0.4532720000000  0.4501160000000  0.4488460000000 1.0
C      1  0.5079040000000  0.3946420000000  0.5252980000000 1.0
C      1  0.4241110000000  0.5641110000000  0.4661050000000 1.0
C      1  0.4711450000000  0.5886880000000  0.4715180000000 1.0
C      1  0.4990340000000  0.5751170000000  0.3979350000000 1.0
C      1  0.5339420000000  0.4792200000000  0.3685290000000 1.0
C      1  0.5952570000000  0.4695620000000  0.4265530000000 1.0
C      1  0.4667530000000  0.4159500000000  0.5108110000000 1.0
C      1  0.4072040000000  0.5444090000000  0.4493070000000 1.0
C      1  0.6328910000000  0.4946880000000  0.4521090000000 1.0
C      1  0.4513890000000  0.4538460000000  0.5203140000000 1.0
C      1  0.5975090000000  0.5632710000000  0.4934260000000 1.0
C      1  0.5049910000000  0.5320000000000  0.6073290000000 1.0
C      1  0.4118770000000  0.4355960000000  0.5193540000000 1.0
C      1  0.5075150000000  0.5450340000000  0.5434770000000 1.0
C      1  0.4975880000000  0.4775710000000  0.4642170000000 1.0
C      1  0.4946020000000  0.4146830000000  0.4302720000000 1.0
C      1  0.5972950000000  0.4449510000000  0.5454270000000 1.0
C      1  0.5549890000000  0.4419330000000  0.5718720000000 1.0
C      1  0.5269740000000  0.4218180000000  0.6009530000000 1.0
C      1  0.4066510000000  0.5293890000000  0.5047200000000 1.0
C      1  0.4718130000000  0.4916390000000  0.4634470000000 1.0
C      1  0.4753080000000  0.6198520000000  0.5378970000000 1.0
C      1  0.6332500000000  0.4828440000000  0.4788180000000 1.0
C      1  0.4668310000000  0.5507300000000  0.4417690000000 1.0
C      1  0.4740610000000  0.4512750000000  0.4286370000000 1.0
C      1  0.5337680000000  0.4434340000000  0.5514270000000 1.0
C      1  0.3994620000000  0.5462620000000  0.5625290000000 1.0
C      1  0.4392550000000  0.5994440000000  0.5678250000000 1.0
C      1  0.4830430000000  0.4184670000000  0.4040000000000 1.0
C      1  0.5365650000000  0.4598600000000  0.6340490000000 1.0
C      1  0.4226870000000  0.4840150000000  0.4701690000000 1.0
C      1  0.5754220000000  0.5507710000000  0.5888300000000 1.0
C      1  0.4363860000000  0.5740890000000  0.5517120000000 1.0
C      1  0.4959350000000  0.5556640000000  0.5193180000000 1.0
C      1  0.5044620000000  0.6206860000000  0.5379410000000 1.0
C      1  0.5929730000000  0.5451570000000  0.4452990000000 1.0
C      1  0.4596860000000  0.6198640000000  0.5626940000000 1.0
C      1  0.4134080000000  0.4221150000000  0.5446580000000 1.0
C      1  0.4300670000000  0.4774380000000  0.5741840000000 1.0
C      1  0.5310820000000  0.5746860000000  0.5717240000000 1.0
C      1  0.5432030000000  0.5308580000000  0.4442190000000 1.0
C      1  0.4999800000000  0.4631500000000  0.4380320000000 1.0
C      1  0.4539460000000  0.5442760000000  0.4911710000000 1.0
C      1  0.5113910000000  0.4251350000000  0.5539630000000 1.0
C      1  0.5360510000000  0.3933720000000  0.5320770000000 1.0
C      1  0.4252010000000  0.4841140000000  0.5330280000000 1.0
C      1  0.4095500000000  0.4651630000000  0.5162460000000 1.0
C      1  0.5108750000000  0.4905880000000  0.5391750000000 1.0
C      1  0.5618290000000  0.5226690000000  0.5487060000000 1.0
C      1  0.3832110000000  0.5110430000000  0.5025040000000 1.0
C      1  0.5301830000000  0.4323180000000  0.6277450000000 1.0
C      1  0.5451870000000  0.4796200000000  0.4312040000000 1.0
C      1  0.4759530000000  0.5237470000000  0.5612070000000 1.0
C      1  0.4854800000000  0.3897330000000  0.5445580000000 1.0
C      1  0.5393550000000  0.4806510000000  0.5764050000000 1.0
C      1  0.5266320000000  0.5207940000000  0.5423940000000 1.0
C      1  0.4831040000000  0.6121110000000  0.4283700000000 1.0
C      1  0.5792500000000  0.4971060000000  0.5993100000000 1.0
C      1  0.4657700000000  0.4606750000000  0.4025860000000 1.0
C      1  0.4460530000000  0.4123060000000  0.4886990000000 1.0
C      1  0.4368150000000  0.4088080000000  0.5541670000000 1.0
C      1  0.5837990000000  0.4838310000000  0.5236800000000 1.0
C      1  0.5979210000000  0.4481400000000  0.4452090000000 1.0
C      1  0.5331900000000  0.5272420000000  0.5968530000000 1.0
C      1  0.5173010000000  0.5424220000000  0.4529190000000 1.0
C      1  0.4507470000000  0.4711310000000  0.5475290000000 1.0
C      1  0.5679800000000  0.5786100000000  0.5344510000000 1.0
C      1  0.4752120000000  0.4597690000000  0.5643760000000 1.0
C      1  0.4362840000000  0.5257600000000  0.4127150000000 1.0
C      1  0.4043400000000  0.4688360000000  0.4868780000000 1.0
C      1  0.5309390000000  0.5083790000000  0.5732430000000 1.0
C      1  0.5576360000000  0.3918310000000  0.5128160000000 1.0
C      1  0.5658650000000  0.5230470000000  0.6039750000000 1.0
C      1  0.4218690000000  0.5253320000000  0.5672410000000 1.0
C      1  0.4075490000000  0.5661020000000  0.5418940000000 1.0
C      1  0.4124620000000  0.4925080000000  0.4444060000000 1.0
C      1  0.6094750000000  0.4953960000000  0.4343910000000 1.0
C      1  0.5629450000000  0.4628080000000  0.5110550000000 1.0
C      1  0.4534760000000  0.4016840000000  0.4613200000000 1.0
C      1  0.6092170000000  0.4686630000000  0.5302560000000 1.0
C      1  0.4498770000000  0.5726000000000  0.3992550000000 1.0
C      1  0.4062680000000  0.4413730000000  0.4434410000000 1.0
C      1  0.5207120000000  0.5983580000000  0.5280480000000 1.0
C      1  0.6144230000000  0.4629930000000  0.4883050000000 1.0
C      1  0.4424070000000  0.5487740000000  0.5681700000000 1.0
C      1  0.4851410000000  0.5100940000000  0.6125380000000 1.0
C      1  0.4567460000000  0.5185930000000  0.6040170000000 1.0
C      1  0.4990440000000  0.5887410000000  0.4823420000000 1.0
C      1  0.5521740000000  0.5322080000000  0.4150310000000 1.0
C      1  0.6244360000000  0.5716360000000  0.5005240000000 1.0
C      1  0.4108500000000  0.5066650000000  0.5458900000000 1.0
C      1  0.4967920000000  0.5276470000000  0.4125220000000 1.0
C      1  0.4688550000000  0.5008250000000  0.5182270000000 1.0
C      1  0.5371010000000  0.4602230000000  0.5267640000000 1.0
C      1  0.5762610000000  0.5192890000000  0.4072740000000 1.0
C      1  0.5660800000000  0.5181210000000  0.5072310000000 1.0
C      1  0.5750720000000  0.5458230000000  0.5597230000000 1.0
END
