TITL C-862134-6730-1433 16.1838628069621 125000 -794.985566276247 0 0 148 (Ci) n - 1
REM
REM in /home/nfs/bkarasulu/CARBON/AIRSS/Generating-Clusters/TERSOFF/Higher-Symm/FIRE-HFTN
REM
REM
REM
REM
REM
REM ./C.cell (b20cbc046b6831c77cfcea5457e17084)
REM AIRSS Version 0.9.1 bugfix July 2018 build 013d7b7c2542+ Fri, 06 Jul 2018 19:26:36 +0100
REM compiler GCC version 9.2.1 20190827 (Red Hat 9.2.1-1)
REM options -cpp -mtune=generic -march=x86-64 -g -O0 -fpre-include=/usr/include/finclude/math-vector-fortran.h
REM seed 842716263 1432351042 1228590384 -384245603 -1966125860 1920394449 1845464889 -1918314868 -232433537 -166982148 -1399423770 -1968101111 -2136326850 -420513815 1084926285 265788431 -989517587 1528016341 94066088 -1007624895 501177706 -962490723 -652094589 -969059659 -25503506 722323672 621953464 1522950346 -201533632 1936938031 -18152608 1852286689 -694653254
REM
CELL 1.54180   50.00000   50.00000   50.00000   90.00000   90.00000   90.00000
LATT -1
SFAC C  
C      1  0.5138580000000  0.5177400000000  0.5098010000000 1.0
C      1  0.4861420000000  0.4822600000000  0.4901990000000 1.0
C      1  0.5074420000000  0.6009810000000  0.5012530000000 1.0
C      1  0.4925580000000  0.3990190000000  0.4987470000000 1.0
C      1  0.5007320000000  0.4865350000000  0.4035550000000 1.0
C      1  0.4992680000000  0.5134650000000  0.5964450000000 1.0
C      1  0.4575470000000  0.4460620000000  0.5292690000000 1.0
C      1  0.5424530000000  0.5539380000000  0.4707310000000 1.0
C      1  0.5525460000000  0.5482960000000  0.5681670000000 1.0
C      1  0.4474540000000  0.4517040000000  0.4318330000000 1.0
C      1  0.4253820000000  0.5428230000000  0.4622060000000 1.0
C      1  0.5746180000000  0.4571770000000  0.5377940000000 1.0
C      1  0.5497180000000  0.5405060000000  0.4972980000000 1.0
C      1  0.4502820000000  0.4594940000000  0.5027020000000 1.0
C      1  0.5331920000000  0.5005180000000  0.5575850000000 1.0
C      1  0.4668080000000  0.4994820000000  0.4424150000000 1.0
C      1  0.5613590000000  0.5102590000000  0.5022950000000 1.0
C      1  0.4386410000000  0.4897410000000  0.4977050000000 1.0
C      1  0.4992800000000  0.5438540000000  0.4429380000000 1.0
C      1  0.5007200000000  0.4561460000000  0.5570620000000 1.0
C      1  0.5237900000000  0.5702840000000  0.5695340000000 1.0
C      1  0.4762100000000  0.4297160000000  0.4304660000000 1.0
C      1  0.5902900000000  0.5471390000000  0.5163980000000 1.0
C      1  0.4097100000000  0.4528610000000  0.4836020000000 1.0
C      1  0.5487520000000  0.4286140000000  0.5544380000000 1.0
C      1  0.4512480000000  0.5713860000000  0.4455620000000 1.0
C      1  0.5740790000000  0.4786220000000  0.5144760000000 1.0
C      1  0.4259210000000  0.5213780000000  0.4855240000000 1.0
C      1  0.4435090000000  0.5647890000000  0.5433520000000 1.0
C      1  0.5564910000000  0.4352110000000  0.4566480000000 1.0
C      1  0.5594260000000  0.4652500000000  0.4245140000000 1.0
C      1  0.4405740000000  0.5347500000000  0.5754860000000 1.0
C      1  0.4929590000000  0.4838920000000  0.5964400000000 1.0
C      1  0.5070410000000  0.5161080000000  0.4035600000000 1.0
C      1  0.4890120000000  0.5712090000000  0.4272090000000 1.0
C      1  0.5109880000000  0.4287910000000  0.5727910000000 1.0
C      1  0.5809580000000  0.4815950000000  0.4386260000000 1.0
C      1  0.4190420000000  0.5184050000000  0.5613740000000 1.0
C      1  0.4516420000000  0.4887860000000  0.5487030000000 1.0
C      1  0.5483580000000  0.5112140000000  0.4512970000000 1.0
C      1  0.5502020000000  0.4956510000000  0.4764790000000 1.0
C      1  0.4497980000000  0.5043490000000  0.5235210000000 1.0
C      1  0.3976350000000  0.4806450000000  0.4808790000000 1.0
C      1  0.6023650000000  0.5193550000000  0.5191210000000 1.0
C      1  0.5447140000000  0.5855600000000  0.5229190000000 1.0
C      1  0.4552860000000  0.4144400000000  0.4770810000000 1.0
C      1  0.4751310000000  0.5048980000000  0.5586110000000 1.0
C      1  0.5248690000000  0.4951020000000  0.4413890000000 1.0
C      1  0.5302800000000  0.4515280000000  0.5432830000000 1.0
C      1  0.4697200000000  0.5484720000000  0.4567170000000 1.0
C      1  0.5266050000000  0.4397540000000  0.5167720000000 1.0
C      1  0.4733950000000  0.5602460000000  0.4832280000000 1.0
C      1  0.4907000000000  0.6018130000000  0.4760020000000 1.0
C      1  0.5093000000000  0.3981870000000  0.5239980000000 1.0
C      1  0.5897110000000  0.5033720000000  0.5445030000000 1.0
C      1  0.4102890000000  0.4966280000000  0.4554970000000 1.0
C      1  0.5016420000000  0.4183500000000  0.4769020000000 1.0
C      1  0.4983580000000  0.5816500000000  0.5230980000000 1.0
C      1  0.5597930000000  0.5144420000000  0.5372000000000 1.0
C      1  0.4402070000000  0.4855580000000  0.4628000000000 1.0
C      1  0.5532190000000  0.4590330000000  0.5017570000000 1.0
C      1  0.4467810000000  0.5409670000000  0.4982430000000 1.0
C      1  0.5271060000000  0.4650250000000  0.4328950000000 1.0
C      1  0.4728940000000  0.5349750000000  0.5671050000000 1.0
C      1  0.4662280000000  0.5791280000000  0.5608130000000 1.0
C      1  0.5337720000000  0.4208720000000  0.4391870000000 1.0
C      1  0.5258300000000  0.4897190000000  0.5102200000000 1.0
C      1  0.4741700000000  0.5102810000000  0.4897800000000 1.0
C      1  0.5365880000000  0.6015010000000  0.4992980000000 1.0
C      1  0.4634120000000  0.3984990000000  0.5007020000000 1.0
C      1  0.4506440000000  0.4027860000000  0.5273880000000 1.0
C      1  0.5493560000000  0.5972140000000  0.4726120000000 1.0
C      1  0.6046580000000  0.5060570000000  0.4916970000000 1.0
C      1  0.3953420000000  0.4939430000000  0.5083030000000 1.0
C      1  0.5332310000000  0.5293350000000  0.4154430000000 1.0
C      1  0.4667690000000  0.4706650000000  0.5845570000000 1.0
C      1  0.5091420000000  0.5596020000000  0.4802810000000 1.0
C      1  0.4908580000000  0.4403980000000  0.5197190000000 1.0
C      1  0.5874920000000  0.5522990000000  0.4832880000000 1.0
C      1  0.4125080000000  0.4477010000000  0.5167120000000 1.0
C      1  0.4676480000000  0.3973090000000  0.5516960000000 1.0
C      1  0.5323520000000  0.6026910000000  0.4483040000000 1.0
C      1  0.6008430000000  0.4444360000000  0.4922700000000 1.0
C      1  0.3991570000000  0.5555640000000  0.5077300000000 1.0
C      1  0.5066720000000  0.5442550000000  0.5575620000000 1.0
C      1  0.4933280000000  0.4557450000000  0.4424380000000 1.0
C      1  0.4223110000000  0.4882640000000  0.5607040000000 1.0
C      1  0.5776890000000  0.5117360000000  0.4392960000000 1.0
C      1  0.5376470000000  0.4788780000000  0.5353000000000 1.0
C      1  0.4623530000000  0.5211220000000  0.4647000000000 1.0
C      1  0.4965470000000  0.4044580000000  0.5505090000000 1.0
C      1  0.5034530000000  0.5955420000000  0.4494910000000 1.0
C      1  0.4380280000000  0.4792540000000  0.5872680000000 1.0
C      1  0.5619720000000  0.5207460000000  0.4127320000000 1.0
C      1  0.4347840000000  0.4543320000000  0.4607680000000 1.0
C      1  0.5652160000000  0.5456680000000  0.5392320000000 1.0
C      1  0.5217240000000  0.4801110000000  0.5843090000000 1.0
C      1  0.4782760000000  0.5198890000000  0.4156910000000 1.0
C      1  0.5171920000000  0.5217520000000  0.5742290000000 1.0
C      1  0.4828080000000  0.4782480000000  0.4257710000000 1.0
C      1  0.5633070000000  0.4656190000000  0.5679450000000 1.0
C      1  0.4366930000000  0.5343810000000  0.4320550000000 1.0
C      1  0.5736390000000  0.4962570000000  0.5723760000000 1.0
C      1  0.4263610000000  0.5037430000000  0.4276240000000 1.0
C      1  0.4054450000000  0.4751860000000  0.5316620000000 1.0
C      1  0.5945550000000  0.5248140000000  0.4683380000000 1.0
C      1  0.4958420000000  0.5844620000000  0.5523470000000 1.0
C      1  0.5041580000000  0.4155380000000  0.4476530000000 1.0
C      1  0.4798820000000  0.4591250000000  0.4703210000000 1.0
C      1  0.5201180000000  0.5408750000000  0.5296790000000 1.0
C      1  0.4020750000000  0.5239630000000  0.5092240000000 1.0
C      1  0.5979250000000  0.4760370000000  0.4907760000000 1.0
C      1  0.4655140000000  0.5464600000000  0.4150510000000 1.0
C      1  0.5344860000000  0.4535400000000  0.5849490000000 1.0
C      1  0.4639010000000  0.5909230000000  0.4804570000000 1.0
C      1  0.5360990000000  0.4090770000000  0.5195430000000 1.0
C      1  0.4890810000000  0.4720240000000  0.5199720000000 1.0
C      1  0.5109190000000  0.5279760000000  0.4800280000000 1.0
C      1  0.5317660000000  0.5392510000000  0.4453860000000 1.0
C      1  0.4682340000000  0.4607490000000  0.5546140000000 1.0
C      1  0.4241410000000  0.5708160000000  0.4776130000000 1.0
C      1  0.5758590000000  0.4291840000000  0.5223870000000 1.0
C      1  0.5463900000000  0.4134460000000  0.4909400000000 1.0
C      1  0.4536100000000  0.5865540000000  0.5090600000000 1.0
C      1  0.4183050000000  0.5297540000000  0.5347450000000 1.0
C      1  0.5816950000000  0.4702460000000  0.4652550000000 1.0
C      1  0.5004240000000  0.5093770000000  0.4516920000000 1.0
C      1  0.4995760000000  0.4906230000000  0.5483080000000 1.0
C      1  0.5667400000000  0.5720960000000  0.4698880000000 1.0
C      1  0.4332600000000  0.4279040000000  0.5301120000000 1.0
C      1  0.4789060000000  0.5615240000000  0.5154790000000 1.0
C      1  0.5210940000000  0.4384760000000  0.4845210000000 1.0
C      1  0.5754020000000  0.4248370000000  0.4865370000000 1.0
C      1  0.4245980000000  0.5751630000000  0.5134630000000 1.0
C      1  0.4773940000000  0.5327850000000  0.5983430000000 1.0
C      1  0.5226060000000  0.4672150000000  0.4016570000000 1.0
C      1  0.5443870000000  0.5562450000000  0.5217070000000 1.0
C      1  0.4556130000000  0.4437550000000  0.4782930000000 1.0
C      1  0.5438390000000  0.6145930000000  0.4244350000000 1.0
C      1  0.4561610000000  0.3854070000000  0.5755650000000 1.0
C      1  0.5158560000000  0.4720460000000  0.4876900000000 1.0
C      1  0.4841440000000  0.5279540000000  0.5123100000000 1.0
C      1  0.4630070000000  0.4073690000000  0.4495680000000 1.0
C      1  0.5369930000000  0.5926310000000  0.5504320000000 1.0
C      1  0.5579980000000  0.5215350000000  0.5841620000000 1.0
C      1  0.4420020000000  0.4784650000000  0.4158380000000 1.0
C      1  0.4462350000000  0.5371110000000  0.5274620000000 1.0
C      1  0.5537650000000  0.4628890000000  0.4725380000000 1.0
END
