TITL C-862500-986-340 0.0375449538106866 125000 -729.271168947881 0 0 135 (C1) n - 1
REM
REM in /home/nfs/bkarasulu/CARBON/AIRSS/Generating-Clusters/TERSOFF/Higher-Symm/FIRE-HFTN
REM
REM
REM
REM
REM
REM ./C.cell (b20cbc046b6831c77cfcea5457e17084)
REM AIRSS Version 0.9.1 bugfix July 2018 build 013d7b7c2542+ Fri, 06 Jul 2018 19:26:36 +0100
REM compiler GCC version 9.2.1 20190827 (Red Hat 9.2.1-1)
REM options -cpp -mtune=generic -march=x86-64 -g -O0 -fpre-include=/usr/include/finclude/math-vector-fortran.h
REM seed -497111773 -2025541724 -1719774066 -1330617848 -1935151455 -2072376170 33381884 815249076 1863507446 -343222994 -1673397843 -1405995266 -401742841 -418395217 -841776233 -1162515966 688366518 -841289592 344986712 1292966159 1672594622 443808867 558257524 468294962 53983377 1733049777 -1294770541 -81571465 -193975383 1760734989 -512784285 1967105800 -1504257240
REM
CELL 1.54180   50.00000   50.00000   50.00000   90.00000   90.00000   90.00000
LATT -1
SFAC C  
C      1  0.4672570000000  0.5238870000000  0.4097630000000 1.0
C      1  0.4057550000000  0.5245100000000  0.5026160000000 1.0
C      1  0.4745850000000  0.5266000000000  0.5899500000000 1.0
C      1  0.5790160000000  0.5261110000000  0.5513600000000 1.0
C      1  0.5742320000000  0.5238250000000  0.4401060000000 1.0
C      1  0.5675510000000  0.4710060000000  0.4978000000000 1.0
C      1  0.5180590000000  0.4699840000000  0.4348760000000 1.0
C      1  0.4445950000000  0.4710310000000  0.4612240000000 1.0
C      1  0.4477360000000  0.4714500000000  0.5410060000000 1.0
C      1  0.5233820000000  0.4726610000000  0.5633960000000 1.0
C      1  0.4882870000000  0.5382020000000  0.4267360000000 1.0
C      1  0.4284030000000  0.5385910000000  0.4875820000000 1.0
C      1  0.4675980000000  0.5401560000000  0.5634680000000 1.0
C      1  0.5518760000000  0.5401790000000  0.5496500000000 1.0
C      1  0.5646200000000  0.5384340000000  0.4651920000000 1.0
C      1  0.4750280000000  0.4452800000000  0.5112610000000 1.0
C      1  0.5076340000000  0.4394300000000  0.5368500000000 1.0
C      1  0.5366110000000  0.4401810000000  0.5067670000000 1.0
C      1  0.5130810000000  0.4423910000000  0.4722630000000 1.0
C      1  0.4712530000000  0.4397640000000  0.4698310000000 1.0
C      1  0.5879930000000  0.5463470000000  0.5291920000000 1.0
C      1  0.5565370000000  0.5444320000000  0.4244540000000 1.0
C      1  0.4471140000000  0.5446560000000  0.4218210000000 1.0
C      1  0.4110350000000  0.5456940000000  0.5251170000000 1.0
C      1  0.4979460000000  0.5474780000000  0.5915090000000 1.0
C      1  0.4679340000000  0.5170890000000  0.5391480000000 1.0
C      1  0.5285380000000  0.5173330000000  0.5420860000000 1.0
C      1  0.5499130000000  0.5161100000000  0.4854110000000 1.0
C      1  0.5026330000000  0.5158840000000  0.4472490000000 1.0
C      1  0.4520750000000  0.5159600000000  0.4805830000000 1.0
C      1  0.5975590000000  0.5366460000000  0.5028240000000 1.0
C      1  0.5342730000000  0.5351720000000  0.4071750000000 1.0
C      1  0.4238030000000  0.5356080000000  0.4378220000000 1.0
C      1  0.4188800000000  0.5371110000000  0.5524050000000 1.0
C      1  0.5261950000000  0.5384860000000  0.5926520000000 1.0
C      1  0.5240490000000  0.4010550000000  0.4361330000000 1.0
C      1  0.4478270000000  0.4021800000000  0.4570260000000 1.0
C      1  0.4456320000000  0.4016740000000  0.5377320000000 1.0
C      1  0.5193480000000  0.4044530000000  0.5681440000000 1.0
C      1  0.5673820000000  0.4023080000000  0.5043210000000 1.0
C      1  0.5546130000000  0.4905590000000  0.4145760000000 1.0
C      1  0.4364730000000  0.4907670000000  0.4208940000000 1.0
C      1  0.4062640000000  0.4921450000000  0.5358200000000 1.0
C      1  0.5058340000000  0.4938530000000  0.6000300000000 1.0
C      1  0.5978020000000  0.4924670000000  0.5252660000000 1.0
C      1  0.5568440000000  0.4098000000000  0.5321810000000 1.0
C      1  0.5439030000000  0.4091830000000  0.4581180000000 1.0
C      1  0.4726130000000  0.4079230000000  0.4403010000000 1.0
C      1  0.4412270000000  0.4093820000000  0.5083430000000 1.0
C      1  0.4897840000000  0.4106180000000  0.5637620000000 1.0
C      1  0.4717340000000  0.3934030000000  0.5481040000000 1.0
C      1  0.5367870000000  0.3939230000000  0.5469330000000 1.0
C      1  0.5498320000000  0.3933740000000  0.4823240000000 1.0
C      1  0.4970330000000  0.3914500000000  0.4419150000000 1.0
C      1  0.4492150000000  0.3931330000000  0.4850960000000 1.0
C      1  0.4257230000000  0.4945620000000  0.4706890000000 1.0
C      1  0.4502550000000  0.4958330000000  0.5610170000000 1.0
C      1  0.5437350000000  0.4967140000000  0.5662330000000 1.0
C      1  0.5771150000000  0.4945250000000  0.4786710000000 1.0
C      1  0.5042510000000  0.4940090000000  0.4197680000000 1.0
C      1  0.5367730000000  0.4864160000000  0.4527750000000 1.0
C      1  0.4673660000000  0.4865740000000  0.4490360000000 1.0
C      1  0.4428810000000  0.4867400000000  0.5151540000000 1.0
C      1  0.4976990000000  0.4883170000000  0.5590940000000 1.0
C      1  0.5563550000000  0.4875150000000  0.5206180000000 1.0
C      1  0.4654240000000  0.5314490000000  0.5062240000000 1.0
C      1  0.4966540000000  0.5320240000000  0.5340420000000 1.0
C      1  0.5327790000000  0.5317200000000  0.5129690000000 1.0
C      1  0.5238710000000  0.5309810000000  0.4721080000000 1.0
C      1  0.4822560000000  0.5309890000000  0.4679390000000 1.0
C      1  0.5204390000000  0.5677660000000  0.5534750000000 1.0
C      1  0.5591460000000  0.5666630000000  0.4958040000000 1.0
C      1  0.5162990000000  0.5659120000000  0.4412710000000 1.0
C      1  0.4510380000000  0.5661100000000  0.4652370000000 1.0
C      1  0.4536270000000  0.5671800000000  0.5345150000000 1.0
C      1  0.4684000000000  0.5639930000000  0.4404920000000 1.0
C      1  0.4354790000000  0.5646420000000  0.5103900000000 1.0
C      1  0.4918260000000  0.5659440000000  0.5633040000000 1.0
C      1  0.5596590000000  0.5653480000000  0.5260720000000 1.0
C      1  0.5451840000000  0.5639300000000  0.4502060000000 1.0
C      1  0.4680310000000  0.4939780000000  0.4174630000000 1.0
C      1  0.4131240000000  0.4944320000000  0.5047980000000 1.0
C      1  0.4784360000000  0.4964950000000  0.5839250000000 1.0
C      1  0.5742130000000  0.4959200000000  0.5464260000000 1.0
C      1  0.5671010000000  0.4938620000000  0.4437080000000 1.0
C      1  0.4541390000000  0.4556010000000  0.4893190000000 1.0
C      1  0.4763810000000  0.4569560000000  0.5410640000000 1.0
C      1  0.5343710000000  0.4561050000000  0.5377220000000 1.0
C      1  0.5440580000000  0.4561810000000  0.4809800000000 1.0
C      1  0.4942490000000  0.4543890000000  0.4510990000000 1.0
C      1  0.4285950000000  0.4483110000000  0.5353960000000 1.0
C      1  0.5117320000000  0.4509380000000  0.5818830000000 1.0
C      1  0.5814320000000  0.4487070000000  0.5139120000000 1.0
C      1  0.5380680000000  0.4477860000000  0.4284510000000 1.0
C      1  0.4424660000000  0.4481110000000  0.4400500000000 1.0
C      1  0.5873240000000  0.4236730000000  0.4992210000000 1.0
C      1  0.5276050000000  0.4228970000000  0.4162130000000 1.0
C      1  0.4290020000000  0.4234990000000  0.4493830000000 1.0
C      1  0.4310180000000  0.4236340000000  0.5517790000000 1.0
C      1  0.5284140000000  0.4267550000000  0.5852650000000 1.0
C      1  0.4649930000000  0.4879510000000  0.4946060000000 1.0
C      1  0.4849380000000  0.4887510000000  0.5315370000000 1.0
C      1  0.5262700000000  0.4884430000000  0.5243630000000 1.0
C      1  0.5313510000000  0.4878520000000  0.4826930000000 1.0
C      1  0.4937500000000  0.4878030000000  0.4640680000000 1.0
C      1  0.4832870000000  0.4407280000000  0.5707920000000 1.0
C      1  0.5634440000000  0.4398020000000  0.5388830000000 1.0
C      1  0.5512220000000  0.4386110000000  0.4551490000000 1.0
C      1  0.4722100000000  0.4379900000000  0.4280180000000 1.0
C      1  0.4338480000000  0.4386670000000  0.5063220000000 1.0
C      1  0.4213290000000  0.5076920000000  0.5562330000000 1.0
C      1  0.5301420000000  0.5090390000000  0.5919950000000 1.0
C      1  0.5976630000000  0.5070940000000  0.4993680000000 1.0
C      1  0.5303360000000  0.5056790000000  0.4063240000000 1.0
C      1  0.4214360000000  0.5061940000000  0.4414260000000 1.0
C      1  0.5112890000000  0.5523460000000  0.4143100000000 1.0
C      1  0.4237820000000  0.5527370000000  0.4618490000000 1.0
C      1  0.4417760000000  0.5543410000000  0.5596270000000 1.0
C      1  0.5404480000000  0.5550240000000  0.5727470000000 1.0
C      1  0.5833670000000  0.5531790000000  0.4829070000000 1.0
C      1  0.5314560000000  0.5626330000000  0.4812000000000 1.0
C      1  0.4937010000000  0.5624720000000  0.4630550000000 1.0
C      1  0.4648220000000  0.5627790000000  0.4933980000000 1.0
C      1  0.4847160000000  0.5634490000000  0.5302510000000 1.0
C      1  0.5259230000000  0.5634370000000  0.5227140000000 1.0
C      1  0.5003760000000  0.4904650000000  0.4993900000000 1.0
C      1  0.5028390000000  0.4276880000000  0.5029360000000 1.0
C      1  0.5087830000000  0.6486450000000  0.5191270000000 1.0
C      1  0.5001140000000  0.5722330000000  0.4979750000000 1.0
C      1  0.5000740000000  0.6029590000000  0.4974820000000 1.0
C      1  0.5060620000000  0.6198490000000  0.5202110000000 1.0
C      1  0.5068910000000  0.3790170000000  0.5203820000000 1.0
C      1  0.4988390000000  0.3984800000000  0.5005300000000 1.0
C      1  0.5056140000000  0.6663960000000  0.5417680000000 1.0
C      1  0.5002090000000  0.5244950000000  0.4987700000000 1.0
END
