TITL C-862506-1665-538 355.815600187076 125000 -626.372045881145 0 0 111 (C1) n - 1
REM
REM in /home/nfs/bkarasulu/CARBON/AIRSS/Generating-Clusters/TERSOFF/Higher-Symm/FIRE-HFTN
REM
REM
REM
REM
REM
REM ./C.cell (b20cbc046b6831c77cfcea5457e17084)
REM AIRSS Version 0.9.1 bugfix July 2018 build 013d7b7c2542+ Fri, 06 Jul 2018 19:26:36 +0100
REM compiler GCC version 9.2.1 20190827 (Red Hat 9.2.1-1)
REM options -cpp -mtune=generic -march=x86-64 -g -O0 -fpre-include=/usr/include/finclude/math-vector-fortran.h
REM seed -1082537742 1940274825 1742299688 -1679806831 -1238523521 -191368754 1495692761 1314919705 -1865549659 1945063020 1917403158 594499129 -903907695 -513888936 -258397574 -2010968047 -134168063 -872017233 1765447307 -1361505353 826033025 2056452346 2032488135 -1086436989 1362969169 513635686 -1837940214 -540374645 -1661704931 -1140055968 1889817594 247267637 -1658221377
REM
CELL 1.54180   50.00000   50.00000   50.00000   90.00000   90.00000   90.00000
LATT -1
SFAC C  
C      1  0.5642250000000  0.5474860000000  0.4583570000000 1.0
C      1  0.5622230000000  0.4513620000000  0.5467220000000 1.0
C      1  0.5590860000000  0.5404390000000  0.5470240000000 1.0
C      1  0.5666600000000  0.4534710000000  0.4543730000000 1.0
C      1  0.4675930000000  0.5692230000000  0.4494560000000 1.0
C      1  0.4669430000000  0.4336420000000  0.5519120000000 1.0
C      1  0.4661900000000  0.5703570000000  0.5512250000000 1.0
C      1  0.4669120000000  0.4318530000000  0.4503680000000 1.0
C      1  0.4246060000000  0.5564580000000  0.4722750000000 1.0
C      1  0.4309390000000  0.4515880000000  0.5231230000000 1.0
C      1  0.4303050000000  0.5510000000000  0.5221420000000 1.0
C      1  0.4245110000000  0.4454080000000  0.4734830000000 1.0
C      1  0.4855270000000  0.4776490000000  0.5412750000000 1.0
C      1  0.4916570000000  0.5251750000000  0.4635600000000 1.0
C      1  0.4929580000000  0.4748880000000  0.4641410000000 1.0
C      1  0.4841000000000  0.5269650000000  0.5405470000000 1.0
C      1  0.5769760000000  0.5652920000000  0.4795450000000 1.0
C      1  0.5758790000000  0.4341620000000  0.5257120000000 1.0
C      1  0.5686300000000  0.5621200000000  0.5294190000000 1.0
C      1  0.5822890000000  0.4369340000000  0.4753080000000 1.0
C      1  0.4201040000000  0.5151290000000  0.4452640000000 1.0
C      1  0.4164620000000  0.4871960000000  0.5523340000000 1.0
C      1  0.4161460000000  0.5157360000000  0.5520540000000 1.0
C      1  0.4202940000000  0.4861060000000  0.4456030000000 1.0
C      1  0.5521870000000  0.5295310000000  0.4813840000000 1.0
C      1  0.5497470000000  0.4689860000000  0.5222280000000 1.0
C      1  0.5369860000000  0.5209180000000  0.5262920000000 1.0
C      1  0.5549290000000  0.4688490000000  0.4791740000000 1.0
C      1  0.5149250000000  0.5559810000000  0.4471670000000 1.0
C      1  0.5127470000000  0.4456230000000  0.5542140000000 1.0
C      1  0.5131410000000  0.5561080000000  0.5568170000000 1.0
C      1  0.5151450000000  0.4443970000000  0.4457640000000 1.0
C      1  0.4732470000000  0.4771430000000  0.5813140000000 1.0
C      1  0.4687160000000  0.5265400000000  0.4240710000000 1.0
C      1  0.4687100000000  0.4738180000000  0.4245380000000 1.0
C      1  0.4719670000000  0.5276720000000  0.5806870000000 1.0
C      1  0.4819070000000  0.4629950000000  0.5148680000000 1.0
C      1  0.5001100000000  0.5369690000000  0.4907250000000 1.0
C      1  0.5023870000000  0.4634460000000  0.4916270000000 1.0
C      1  0.4799380000000  0.5399160000000  0.5137150000000 1.0
C      1  0.5345020000000  0.5355150000000  0.5654170000000 1.0
C      1  0.5384730000000  0.4642840000000  0.4408680000000 1.0
C      1  0.5380900000000  0.5369890000000  0.4425840000000 1.0
C      1  0.5360370000000  0.4623600000000  0.5612680000000 1.0
C      1  0.4429210000000  0.4752170000000  0.5655020000000 1.0
C      1  0.4391650000000  0.5334110000000  0.4306130000000 1.0
C      1  0.4390200000000  0.4675280000000  0.4309150000000 1.0
C      1  0.4423040000000  0.5283900000000  0.5648870000000 1.0
C      1  0.5096540000000  0.5744150000000  0.5282160000000 1.0
C      1  0.5090910000000  0.4244020000000  0.4745810000000 1.0
C      1  0.5103400000000  0.5748690000000  0.4750940000000 1.0
C      1  0.5090760000000  0.4258310000000  0.5275370000000 1.0
C      1  0.4389820000000  0.5610600000000  0.4452930000000 1.0
C      1  0.4418010000000  0.4478170000000  0.5503660000000 1.0
C      1  0.4411550000000  0.5555010000000  0.5493350000000 1.0
C      1  0.4384760000000  0.4402110000000  0.4463270000000 1.0
C      1  0.4495060000000  0.5385460000000  0.4791230000000 1.0
C      1  0.4528970000000  0.4675170000000  0.5080410000000 1.0
C      1  0.4516520000000  0.5340410000000  0.5072720000000 1.0
C      1  0.4500900000000  0.4624570000000  0.4799820000000 1.0
C      1  0.4111120000000  0.4761150000000  0.4726840000000 1.0
C      1  0.4116480000000  0.5264820000000  0.5242660000000 1.0
C      1  0.4121010000000  0.4758430000000  0.5247870000000 1.0
C      1  0.4103040000000  0.5253450000000  0.4723470000000 1.0
C      1  0.4859840000000  0.4540700000000  0.5638150000000 1.0
C      1  0.4853980000000  0.5471540000000  0.4404330000000 1.0
C      1  0.4851260000000  0.4534230000000  0.4412240000000 1.0
C      1  0.4846860000000  0.5499500000000  0.5633260000000 1.0
C      1  0.5804180000000  0.4716660000000  0.5600380000000 1.0
C      1  0.5814620000000  0.5269380000000  0.4447000000000 1.0
C      1  0.5821320000000  0.4761360000000  0.4420670000000 1.0
C      1  0.5808270000000  0.5235570000000  0.5590630000000 1.0
C      1  0.4783400000000  0.4191970000000  0.4752270000000 1.0
C      1  0.4791630000000  0.5815280000000  0.5264880000000 1.0
C      1  0.4786370000000  0.4205320000000  0.5271900000000 1.0
C      1  0.4796290000000  0.5811710000000  0.4746930000000 1.0
C      1  0.5884440000000  0.4465050000000  0.5025220000000 1.0
C      1  0.5843290000000  0.5550950000000  0.5059860000000 1.0
C      1  0.4582980000000  0.5017060000000  0.5455020000000 1.0
C      1  0.4731190000000  0.4996890000000  0.4699610000000 1.0
C      1  0.4883840000000  0.5029250000000  0.5746930000000 1.0
C      1  0.4824000000000  0.5001540000000  0.4259750000000 1.0
C      1  0.4344800000000  0.5719730000000  0.4995700000000 1.0
C      1  0.4338260000000  0.4299490000000  0.5009540000000 1.0
C      1  0.5241990000000  0.4288700000000  0.5010760000000 1.0
C      1  0.5247560000000  0.5687470000000  0.5025930000000 1.0
C      1  0.6007140000000  0.4732970000000  0.5066720000000 1.0
C      1  0.5985410000000  0.5291950000000  0.5078390000000 1.0
C      1  0.5601270000000  0.4996510000000  0.4811250000000 1.0
C      1  0.5595890000000  0.4973940000000  0.5230490000000 1.0
C      1  0.5354100000000  0.4572190000000  0.4985280000000 1.0
C      1  0.5312300000000  0.5382710000000  0.5003050000000 1.0
C      1  0.5349830000000  0.4985260000000  0.5644570000000 1.0
C      1  0.5366110000000  0.5007420000000  0.4380290000000 1.0
C      1  0.5677120000000  0.4976380000000  0.5540280000000 1.0
C      1  0.5681030000000  0.5009920000000  0.4491030000000 1.0
C      1  0.5088110000000  0.5050990000000  0.5440110000000 1.0
C      1  0.5076200000000  0.5001690000000  0.4463020000000 1.0
C      1  0.4629670000000  0.4192730000000  0.5010910000000 1.0
C      1  0.4639330000000  0.5820860000000  0.5000360000000 1.0
C      1  0.6287470000000  0.5096540000000  0.4696990000000 1.0
C      1  0.6019570000000  0.4995340000000  0.4739000000000 1.0
C      1  0.3816360000000  0.5003740000000  0.5056320000000 1.0
C      1  0.4467000000000  0.5010160000000  0.5142130000000 1.0
C      1  0.3605380000000  0.5009390000000  0.4858250000000 1.0
C      1  0.5268190000000  0.4975730000000  0.4912890000000 1.0
C      1  0.6517090000000  0.5028490000000  0.4859530000000 1.0
C      1  0.5857470000000  0.5013670000000  0.5017170000000 1.0
C      1  0.4759390000000  0.5010980000000  0.4983950000000 1.0
C      1  0.5035820000000  0.5005370000000  0.5111170000000 1.0
C      1  0.4132150000000  0.5009200000000  0.4989330000000 1.0
END
