TITL C-862129-6180-1067 100908.426389762 125000 -1176.30730977831 0 0 200 (C1) n - 1
REM
REM in /home/nfs/bkarasulu/CARBON/AIRSS/Generating-Clusters/TERSOFF/Higher-Symm/FIRE-HFTN
REM
REM
REM
REM
REM
REM ./C.cell (b20cbc046b6831c77cfcea5457e17084)
REM AIRSS Version 0.9.1 bugfix July 2018 build 013d7b7c2542+ Fri, 06 Jul 2018 19:26:36 +0100
REM compiler GCC version 9.2.1 20190827 (Red Hat 9.2.1-1)
REM options -cpp -mtune=generic -march=x86-64 -g -O0 -fpre-include=/usr/include/finclude/math-vector-fortran.h
REM seed -794906174 -398675685 1489351319 281530842 1100356339 921865700 1349112880 -1937138967 269121225 595570824 1429025333 299429953 -616431429 -243715186 1910240646 -561982918 307470700 1684342505 -810770259 1589936100 785302371 1078560816 1156674467 -1424109451 -1116310303 -448158364 -505785111 1591752402 1855185580 -1602560120 125571285 1667230574 -738966189
REM
CELL 1.54180   50.00000   50.00000   50.00000   90.00000   90.00000   90.00000
LATT -1
SFAC C  
C      1  0.5436740000000  0.3992130000000  0.4845420000000 1.0
C      1  0.4565280000000  0.3992140000000  0.5151900000000 1.0
C      1  0.5382110000000  0.4155380000000  0.5089940000000 1.0
C      1  0.4621630000000  0.4156120000000  0.4908670000000 1.0
C      1  0.4140390000000  0.5269960000000  0.4322420000000 1.0
C      1  0.5858550000000  0.5269520000000  0.5677950000000 1.0
C      1  0.4144210000000  0.5276930000000  0.5686930000000 1.0
C      1  0.5854030000000  0.5276430000000  0.4314950000000 1.0
C      1  0.5089740000000  0.3755170000000  0.4562970000000 1.0
C      1  0.4911160000000  0.3754220000000  0.5434330000000 1.0
C      1  0.5191200000000  0.3785240000000  0.5391480000000 1.0
C      1  0.4809660000000  0.3786210000000  0.4605530000000 1.0
C      1  0.4788690000000  0.5994570000000  0.4848400000000 1.0
C      1  0.5211130000000  0.5993500000000  0.5151850000000 1.0
C      1  0.4791360000000  0.5989220000000  0.5142740000000 1.0
C      1  0.5208450000000  0.5989580000000  0.4857520000000 1.0
C      1  0.5157440000000  0.4578540000000  0.4838710000000 1.0
C      1  0.4842190000000  0.4577480000000  0.5159590000000 1.0
C      1  0.5159440000000  0.4582100000000  0.5161680000000 1.0
C      1  0.4841040000000  0.4583340000000  0.4836720000000 1.0
C      1  0.5292490000000  0.4053800000000  0.5361560000000 1.0
C      1  0.4708800000000  0.4054830000000  0.4636410000000 1.0
C      1  0.5264800000000  0.3984200000000  0.4597920000000 1.0
C      1  0.4735950000000  0.3983190000000  0.5399880000000 1.0
C      1  0.5299630000000  0.5038250000000  0.4413810000000 1.0
C      1  0.4699620000000  0.5037630000000  0.5583450000000 1.0
C      1  0.5287620000000  0.5039650000000  0.5576480000000 1.0
C      1  0.4711820000000  0.5040810000000  0.4421010000000 1.0
C      1  0.4117220000000  0.5583480000000  0.5619300000000 1.0
C      1  0.5882030000000  0.5582570000000  0.4382020000000 1.0
C      1  0.4108090000000  0.5577560000000  0.4382420000000 1.0
C      1  0.5891040000000  0.5576610000000  0.5616940000000 1.0
C      1  0.4856560000000  0.5586290000000  0.5474660000000 1.0
C      1  0.5143240000000  0.5588040000000  0.4524200000000 1.0
C      1  0.4859230000000  0.5591960000000  0.4516470000000 1.0
C      1  0.5140580000000  0.5589680000000  0.5481970000000 1.0
C      1  0.4812060000000  0.4251200000000  0.5553490000000 1.0
C      1  0.5188140000000  0.4252500000000  0.4444980000000 1.0
C      1  0.4829610000000  0.4272930000000  0.4429520000000 1.0
C      1  0.5171170000000  0.4271920000000  0.5569180000000 1.0
C      1  0.6114830000000  0.4733720000000  0.4166940000000 1.0
C      1  0.3887050000000  0.4730040000000  0.5835270000000 1.0
C      1  0.6136880000000  0.4740820000000  0.5788210000000 1.0
C      1  0.3862030000000  0.4739260000000  0.4217070000000 1.0
C      1  0.4030800000000  0.4353480000000  0.5140850000000 1.0
C      1  0.5967790000000  0.4348940000000  0.4858770000000 1.0
C      1  0.4178930000000  0.4317490000000  0.4877380000000 1.0
C      1  0.5830070000000  0.4311280000000  0.5130140000000 1.0
C      1  0.4741140000000  0.4296900000000  0.4138600000000 1.0
C      1  0.5260570000000  0.4296110000000  0.5860410000000 1.0
C      1  0.4726100000000  0.4287090000000  0.5849800000000 1.0
C      1  0.5272920000000  0.4289020000000  0.4147730000000 1.0
C      1  0.4852620000000  0.4891820000000  0.5774880000000 1.0
C      1  0.5146270000000  0.4893420000000  0.4221880000000 1.0
C      1  0.4860110000000  0.4893250000000  0.4225590000000 1.0
C      1  0.5138760000000  0.4891300000000  0.5771130000000 1.0
C      1  0.5849610000000  0.4485500000000  0.4552710000000 1.0
C      1  0.4148160000000  0.4485540000000  0.5443840000000 1.0
C      1  0.5835800000000  0.4490540000000  0.5433280000000 1.0
C      1  0.4164780000000  0.4491370000000  0.4572040000000 1.0
C      1  0.5146690000000  0.5092190000000  0.4819780000000 1.0
C      1  0.4852800000000  0.5091660000000  0.5185040000000 1.0
C      1  0.5154310000000  0.5092630000000  0.5144000000000 1.0
C      1  0.4845680000000  0.5093050000000  0.4859400000000 1.0
C      1  0.5559690000000  0.5355110000000  0.4634010000000 1.0
C      1  0.4438110000000  0.5355760000000  0.5367820000000 1.0
C      1  0.5550230000000  0.5357210000000  0.5370480000000 1.0
C      1  0.4452060000000  0.5357730000000  0.4630470000000 1.0
C      1  0.4213920000000  0.5097130000000  0.4077160000000 1.0
C      1  0.5784880000000  0.5099210000000  0.5924700000000 1.0
C      1  0.4218990000000  0.5114420000000  0.5938300000000 1.0
C      1  0.5780240000000  0.5115290000000  0.4062380000000 1.0
C      1  0.6023960000000  0.5677990000000  0.5317560000000 1.0
C      1  0.3976170000000  0.5679540000000  0.4681890000000 1.0
C      1  0.6019830000000  0.5682610000000  0.4685850000000 1.0
C      1  0.3978760000000  0.5684460000000  0.5313700000000 1.0
C      1  0.4207540000000  0.5762790000000  0.4846540000000 1.0
C      1  0.5792850000000  0.5763370000000  0.5153180000000 1.0
C      1  0.4208880000000  0.5764370000000  0.5143610000000 1.0
C      1  0.5790640000000  0.5764040000000  0.4856190000000 1.0
C      1  0.4013280000000  0.5020950000000  0.5288610000000 1.0
C      1  0.5983860000000  0.5017250000000  0.4712890000000 1.0
C      1  0.4041490000000  0.5023450000000  0.4733780000000 1.0
C      1  0.5960900000000  0.5019040000000  0.5268140000000 1.0
C      1  0.5547410000000  0.4918780000000  0.5518720000000 1.0
C      1  0.4452460000000  0.4920010000000  0.4480510000000 1.0
C      1  0.5556720000000  0.4912750000000  0.4479160000000 1.0
C      1  0.4442050000000  0.4912750000000  0.5518980000000 1.0
C      1  0.6159240000000  0.5198800000000  0.4852920000000 1.0
C      1  0.3840760000000  0.5204240000000  0.5147570000000 1.0
C      1  0.6148270000000  0.5197920000000  0.5139670000000 1.0
C      1  0.3854290000000  0.5203460000000  0.4860980000000 1.0
C      1  0.5370140000000  0.5711490000000  0.4193230000000 1.0
C      1  0.4630240000000  0.5710470000000  0.5805760000000 1.0
C      1  0.5379920000000  0.5709500000000  0.5805460000000 1.0
C      1  0.4619620000000  0.5710050000000  0.4192540000000 1.0
C      1  0.4564080000000  0.4515210000000  0.5966800000000 1.0
C      1  0.5434100000000  0.4517370000000  0.4028980000000 1.0
C      1  0.4576320000000  0.4520090000000  0.4020890000000 1.0
C      1  0.5423040000000  0.4521230000000  0.5979610000000 1.0
C      1  0.5162480000000  0.5922770000000  0.5736800000000 1.0
C      1  0.4837330000000  0.5923850000000  0.4260090000000 1.0
C      1  0.5150130000000  0.5921100000000  0.4268510000000 1.0
C      1  0.4849880000000  0.5920050000000  0.5729460000000 1.0
C      1  0.5626700000000  0.6050930000000  0.5609050000000 1.0
C      1  0.4372950000000  0.6051830000000  0.4388370000000 1.0
C      1  0.5612600000000  0.6052610000000  0.4398510000000 1.0
C      1  0.4387120000000  0.6052990000000  0.5602810000000 1.0
C      1  0.6060560000000  0.4676520000000  0.5511340000000 1.0
C      1  0.3937720000000  0.4674030000000  0.4494000000000 1.0
C      1  0.6046500000000  0.4693890000000  0.4449200000000 1.0
C      1  0.3952900000000  0.4693750000000  0.5551950000000 1.0
C      1  0.4691590000000  0.5771740000000  0.5309010000000 1.0
C      1  0.5308310000000  0.5772970000000  0.4690340000000 1.0
C      1  0.4690320000000  0.5781220000000  0.4676510000000 1.0
C      1  0.5309480000000  0.5779270000000  0.5322720000000 1.0
C      1  0.4848740000000  0.5453870000000  0.3902410000000 1.0
C      1  0.5149500000000  0.5455010000000  0.6095620000000 1.0
C      1  0.4854950000000  0.5462370000000  0.6088020000000 1.0
C      1  0.5143310000000  0.5463360000000  0.3910830000000 1.0
C      1  0.4693970000000  0.5352140000000  0.5596290000000 1.0
C      1  0.5305440000000  0.5353340000000  0.4402800000000 1.0
C      1  0.4699510000000  0.5353610000000  0.4399480000000 1.0
C      1  0.5300330000000  0.5352080000000  0.5600040000000 1.0
C      1  0.5280470000000  0.4847510000000  0.5203150000000 1.0
C      1  0.4721340000000  0.4849110000000  0.4794510000000 1.0
C      1  0.5277220000000  0.4840080000000  0.4783240000000 1.0
C      1  0.4720630000000  0.4838630000000  0.5214360000000 1.0
C      1  0.4229690000000  0.5120820000000  0.5449640000000 1.0
C      1  0.5768130000000  0.5119520000000  0.4551740000000 1.0
C      1  0.4244260000000  0.5124960000000  0.4558960000000 1.0
C      1  0.5757050000000  0.5122330000000  0.5441490000000 1.0
C      1  0.4685430000000  0.5306720000000  0.5906240000000 1.0
C      1  0.5313630000000  0.5308070000000  0.4092260000000 1.0
C      1  0.4677720000000  0.5307230000000  0.4090270000000 1.0
C      1  0.5320760000000  0.5307190000000  0.5909050000000 1.0
C      1  0.5963860000000  0.4874950000000  0.5984820000000 1.0
C      1  0.4036650000000  0.4870490000000  0.4019600000000 1.0
C      1  0.5968040000000  0.4906680000000  0.3981850000000 1.0
C      1  0.4031260000000  0.4906020000000  0.6019610000000 1.0
C      1  0.4431990000000  0.5653950000000  0.4705090000000 1.0
C      1  0.5569060000000  0.5653990000000  0.5295620000000 1.0
C      1  0.4431200000000  0.5650180000000  0.5282010000000 1.0
C      1  0.5567650000000  0.5649810000000  0.4718850000000 1.0
C      1  0.5856840000000  0.4252820000000  0.5630570000000 1.0
C      1  0.4149760000000  0.4249680000000  0.4379700000000 1.0
C      1  0.5903320000000  0.4247920000000  0.4359410000000 1.0
C      1  0.4090040000000  0.4246840000000  0.5634790000000 1.0
C      1  0.4508180000000  0.5076610000000  0.4000220000000 1.0
C      1  0.5490030000000  0.5077070000000  0.6000470000000 1.0
C      1  0.4514600000000  0.5080830000000  0.6003780000000 1.0
C      1  0.5484760000000  0.5082520000000  0.3994610000000 1.0
C      1  0.3737730000000  0.5611220000000  0.5149700000000 1.0
C      1  0.6260130000000  0.5606300000000  0.4849080000000 1.0
C      1  0.3737310000000  0.5606510000000  0.4848640000000 1.0
C      1  0.6261430000000  0.5602100000000  0.5150130000000 1.0
C      1  0.4204870000000  0.3992270000000  0.4507090000000 1.0
C      1  0.5821090000000  0.3990750000000  0.5506660000000 1.0
C      1  0.3917580000000  0.4045790000000  0.5508920000000 1.0
C      1  0.6065650000000  0.4039300000000  0.4484760000000 1.0
C      1  0.4677900000000  0.4453710000000  0.5376760000000 1.0
C      1  0.5321430000000  0.4455080000000  0.4621430000000 1.0
C      1  0.4688500000000  0.4473450000000  0.4609640000000 1.0
C      1  0.5312220000000  0.4472390000000  0.5389290000000 1.0
C      1  0.4131260000000  0.4285970000000  0.4093790000000 1.0
C      1  0.5873120000000  0.4293860000000  0.5916010000000 1.0
C      1  0.4116980000000  0.4272800000000  0.5921410000000 1.0
C      1  0.5882710000000  0.4278610000000  0.4072650000000 1.0
C      1  0.4680360000000  0.4800200000000  0.4007680000000 1.0
C      1  0.5317980000000  0.4800830000000  0.5989890000000 1.0
C      1  0.4677790000000  0.4792340000000  0.5994260000000 1.0
C      1  0.5320710000000  0.4794330000000  0.4002350000000 1.0
C      1  0.4423490000000  0.4610610000000  0.5455670000000 1.0
C      1  0.5574970000000  0.4611320000000  0.4542260000000 1.0
C      1  0.4434590000000  0.4624310000000  0.4535670000000 1.0
C      1  0.5565590000000  0.4623170000000  0.5464780000000 1.0
C      1  0.5338740000000  0.5333400000000  0.5152410000000 1.0
C      1  0.4660950000000  0.5333570000000  0.4850940000000 1.0
C      1  0.5341450000000  0.5318810000000  0.4843780000000 1.0
C      1  0.4657490000000  0.5318300000000  0.5159610000000 1.0
C      1  0.5666810000000  0.5779110000000  0.4276520000000 1.0
C      1  0.4333280000000  0.5779210000000  0.5724190000000 1.0
C      1  0.5677890000000  0.5774260000000  0.5726000000000 1.0
C      1  0.4321460000000  0.5774820000000  0.4272380000000 1.0
C      1  0.4674160000000  0.6130810000000  0.5602960000000 1.0
C      1  0.5325690000000  0.6131050000000  0.4396760000000 1.0
C      1  0.4658870000000  0.6134040000000  0.4384200000000 1.0
C      1  0.5340650000000  0.6132950000000  0.5612360000000 1.0
C      1  0.5940560000000  0.4767790000000  0.4848820000000 1.0
C      1  0.4055990000000  0.4772310000000  0.5152450000000 1.0
C      1  0.5913050000000  0.4769850000000  0.5129360000000 1.0
C      1  0.4088600000000  0.4774630000000  0.4872790000000 1.0
C      1  0.6121260000000  0.4109570000000  0.4760680000000 1.0
C      1  0.3865540000000  0.4120400000000  0.5232830000000 1.0
C      1  0.5791130000000  0.4027360000000  0.5219990000000 1.0
C      1  0.4236420000000  0.4035280000000  0.4792910000000 1.0
C      1  0.4304600000000  0.4458670000000  0.3942940000000 1.0
C      1  0.5693210000000  0.4461830000000  0.6064180000000 1.0
C      1  0.4293490000000  0.4458800000000  0.6052510000000 1.0
C      1  0.5703650000000  0.4461050000000  0.3940700000000 1.0
END
