TITL C-862131-2149-92 12562.3912273659 125000 -1110.49521907084 0 0 189 (C1) n - 1
REM
REM in /home/nfs/bkarasulu/CARBON/AIRSS/Generating-Clusters/TERSOFF/Higher-Symm/FIRE-HFTN
REM
REM
REM
REM
REM
REM ./C.cell (b20cbc046b6831c77cfcea5457e17084)
REM AIRSS Version 0.9.1 bugfix July 2018 build 013d7b7c2542+ Fri, 06 Jul 2018 19:26:36 +0100
REM compiler GCC version 9.2.1 20190827 (Red Hat 9.2.1-1)
REM options -cpp -mtune=generic -march=x86-64 -g -O0 -fpre-include=/usr/include/finclude/math-vector-fortran.h
REM seed -2055613460 1351673070 2112427228 -1290296144 -988746224 -182812540 -1713470869 -2043326999 -1131980438 -316961156 231736436 -1738432008 -1594896265 78016238 1217313912 -1224618278 785153144 -1941247497 899147702 -480720447 1496244993 1730484952 397973710 -579455610 1364528744 -546293013 -1571672965 -929233144 557994475 -349515703 -1147868448 1740888137 1528559966
REM
CELL 1.54180   50.00000   50.00000   50.00000   90.00000   90.00000   90.00000
LATT -1
SFAC C  
C      1  0.4478410000000  0.4421510000000  0.5216470000000 1.0
C      1  0.4205940000000  0.4725850000000  0.4157170000000 1.0
C      1  0.4089930000000  0.5182220000000  0.5465370000000 1.0
C      1  0.5580230000000  0.5666220000000  0.4817560000000 1.0
C      1  0.4659600000000  0.4928640000000  0.4934760000000 1.0
C      1  0.6041540000000  0.5287350000000  0.4620640000000 1.0
C      1  0.5238060000000  0.4381580000000  0.3890970000000 1.0
C      1  0.5865330000000  0.5093930000000  0.5030060000000 1.0
C      1  0.5752270000000  0.4461300000000  0.5558460000000 1.0
C      1  0.4894240000000  0.5320680000000  0.5076290000000 1.0
C      1  0.5504830000000  0.5345840000000  0.4115260000000 1.0
C      1  0.4181330000000  0.5850150000000  0.5373020000000 1.0
C      1  0.5402560000000  0.4957520000000  0.4784630000000 1.0
C      1  0.5675540000000  0.3954020000000  0.4662960000000 1.0
C      1  0.4648330000000  0.4108140000000  0.4077010000000 1.0
C      1  0.5722960000000  0.5344300000000  0.4894780000000 1.0
C      1  0.5788170000000  0.4357840000000  0.4379360000000 1.0
C      1  0.6149340000000  0.5384630000000  0.5144590000000 1.0
C      1  0.5631410000000  0.5777440000000  0.4307490000000 1.0
C      1  0.3863200000000  0.5263440000000  0.4946440000000 1.0
C      1  0.5265440000000  0.4930090000000  0.5260550000000 1.0
C      1  0.4694200000000  0.3606700000000  0.4756430000000 1.0
C      1  0.4304940000000  0.5864050000000  0.5115440000000 1.0
C      1  0.5498920000000  0.5099450000000  0.5233310000000 1.0
C      1  0.5284700000000  0.3927180000000  0.4896380000000 1.0
C      1  0.5221310000000  0.4678020000000  0.3821170000000 1.0
C      1  0.5075660000000  0.6331060000000  0.5317860000000 1.0
C      1  0.4764810000000  0.5256320000000  0.6386010000000 1.0
C      1  0.4894720000000  0.4661800000000  0.5692370000000 1.0
C      1  0.5854960000000  0.4094230000000  0.4479530000000 1.0
C      1  0.5239510000000  0.5352180000000  0.4260330000000 1.0
C      1  0.4571740000000  0.5745920000000  0.5679910000000 1.0
C      1  0.5180320000000  0.3855120000000  0.5167660000000 1.0
C      1  0.4388780000000  0.4489090000000  0.4263950000000 1.0
C      1  0.4822060000000  0.6035990000000  0.4830570000000 1.0
C      1  0.4321710000000  0.4697870000000  0.4840120000000 1.0
C      1  0.5713300000000  0.5492770000000  0.4273830000000 1.0
C      1  0.5340660000000  0.5534480000000  0.5419210000000 1.0
C      1  0.5328410000000  0.4684200000000  0.5410290000000 1.0
C      1  0.5968560000000  0.5540050000000  0.5338020000000 1.0
C      1  0.4251840000000  0.4246260000000  0.5240910000000 1.0
C      1  0.4420240000000  0.3731800000000  0.4651240000000 1.0
C      1  0.5053190000000  0.4652130000000  0.4901730000000 1.0
C      1  0.5350460000000  0.4576620000000  0.5909240000000 1.0
C      1  0.4836520000000  0.5138190000000  0.5792330000000 1.0
C      1  0.3913570000000  0.4804350000000  0.4253950000000 1.0
C      1  0.5827260000000  0.5781510000000  0.5156350000000 1.0
C      1  0.5268480000000  0.4852580000000  0.4075160000000 1.0
C      1  0.5381400000000  0.4286250000000  0.5809770000000 1.0
C      1  0.5160270000000  0.4150120000000  0.5664120000000 1.0
C      1  0.4328630000000  0.5897900000000  0.5611780000000 1.0
C      1  0.4721390000000  0.5282300000000  0.5564210000000 1.0
C      1  0.4183610000000  0.4958700000000  0.5652860000000 1.0
C      1  0.4609280000000  0.4158950000000  0.5706320000000 1.0
C      1  0.5797450000000  0.4605570000000  0.5139460000000 1.0
C      1  0.4811880000000  0.5864660000000  0.4553860000000 1.0
C      1  0.4780490000000  0.6345090000000  0.5248790000000 1.0
C      1  0.4256070000000  0.4700560000000  0.5558020000000 1.0
C      1  0.4921910000000  0.4227920000000  0.4672040000000 1.0
C      1  0.5487680000000  0.5354460000000  0.5859230000000 1.0
C      1  0.5012760000000  0.4764220000000  0.3634430000000 1.0
C      1  0.5210080000000  0.5389570000000  0.5800430000000 1.0
C      1  0.4243950000000  0.5430990000000  0.5453480000000 1.0
C      1  0.5709740000000  0.4404270000000  0.4100250000000 1.0
C      1  0.5126450000000  0.5482900000000  0.4999720000000 1.0
C      1  0.4599580000000  0.5249840000000  0.4383080000000 1.0
C      1  0.4769200000000  0.5821560000000  0.5041890000000 1.0
C      1  0.4960930000000  0.4212610000000  0.5187240000000 1.0
C      1  0.5817670000000  0.4677850000000  0.5743300000000 1.0
C      1  0.4521020000000  0.5658350000000  0.5035900000000 1.0
C      1  0.5546160000000  0.5339330000000  0.5377470000000 1.0
C      1  0.4269090000000  0.4988810000000  0.5929710000000 1.0
C      1  0.5981740000000  0.4909500000000  0.5648460000000 1.0
C      1  0.6055510000000  0.4986190000000  0.4671500000000 1.0
C      1  0.4646980000000  0.6221520000000  0.5003590000000 1.0
C      1  0.4354110000000  0.4389760000000  0.4537760000000 1.0
C      1  0.4624470000000  0.4440540000000  0.4975480000000 1.0
C      1  0.5272230000000  0.5064990000000  0.6076720000000 1.0
C      1  0.5591150000000  0.5077700000000  0.5962660000000 1.0
C      1  0.4610840000000  0.5394840000000  0.5174970000000 1.0
C      1  0.5628250000000  0.4970090000000  0.4430700000000 1.0
C      1  0.4041850000000  0.4355180000000  0.5418260000000 1.0
C      1  0.4805820000000  0.5121860000000  0.4217940000000 1.0
C      1  0.4654650000000  0.5345050000000  0.4654330000000 1.0
C      1  0.5185190000000  0.3849860000000  0.4606580000000 1.0
C      1  0.5973500000000  0.5385470000000  0.4351890000000 1.0
C      1  0.6135310000000  0.4874150000000  0.5395480000000 1.0
C      1  0.4201580000000  0.5550870000000  0.4676770000000 1.0
C      1  0.5390380000000  0.5801070000000  0.4073380000000 1.0
C      1  0.5040800000000  0.5251190000000  0.5979840000000 1.0
C      1  0.4162690000000  0.4451050000000  0.5690070000000 1.0
C      1  0.5263190000000  0.5397270000000  0.4758900000000 1.0
C      1  0.5657880000000  0.4517950000000  0.4581120000000 1.0
C      1  0.4214260000000  0.4042450000000  0.5040280000000 1.0
C      1  0.4789870000000  0.5168960000000  0.4850170000000 1.0
C      1  0.5790790000000  0.5374930000000  0.5512330000000 1.0
C      1  0.4803310000000  0.3941030000000  0.4255570000000 1.0
C      1  0.5064700000000  0.5108420000000  0.5396050000000 1.0
C      1  0.5766010000000  0.4832340000000  0.4951860000000 1.0
C      1  0.5850300000000  0.5167180000000  0.5727160000000 1.0
C      1  0.4565500000000  0.4265080000000  0.4725190000000 1.0
C      1  0.4469000000000  0.5548380000000  0.4769340000000 1.0
C      1  0.3881230000000  0.4575250000000  0.5290290000000 1.0
C      1  0.4915650000000  0.3528340000000  0.4587340000000 1.0
C      1  0.5517760000000  0.5926890000000  0.5171000000000 1.0
C      1  0.4328080000000  0.5185020000000  0.4335040000000 1.0
C      1  0.4508780000000  0.4715630000000  0.3734490000000 1.0
C      1  0.6150370000000  0.5081630000000  0.5165910000000 1.0
C      1  0.5110300000000  0.4563820000000  0.6101190000000 1.0
C      1  0.5060830000000  0.5886240000000  0.5989600000000 1.0
C      1  0.5514810000000  0.4134180000000  0.4902620000000 1.0
C      1  0.4073500000000  0.4542860000000  0.4809740000000 1.0
C      1  0.4403250000000  0.4341100000000  0.5839950000000 1.0
C      1  0.5480540000000  0.4253250000000  0.3992710000000 1.0
C      1  0.5086490000000  0.6178700000000  0.4835450000000 1.0
C      1  0.5095130000000  0.5843740000000  0.4115570000000 1.0
C      1  0.4742440000000  0.4773700000000  0.4553300000000 1.0
C      1  0.5447270000000  0.5744690000000  0.5600420000000 1.0
C      1  0.5228400000000  0.4853430000000  0.4977300000000 1.0
C      1  0.5095240000000  0.4329300000000  0.4282440000000 1.0
C      1  0.5015750000000  0.6004400000000  0.5715320000000 1.0
C      1  0.5130120000000  0.5370010000000  0.5524650000000 1.0
C      1  0.5201420000000  0.6161580000000  0.5538540000000 1.0
C      1  0.5200820000000  0.5506230000000  0.4511060000000 1.0
C      1  0.5438410000000  0.4378390000000  0.4743030000000 1.0
C      1  0.4626930000000  0.4398180000000  0.4114390000000 1.0
C      1  0.4756800000000  0.4878250000000  0.5834750000000 1.0
C      1  0.4839500000000  0.5851050000000  0.5549730000000 1.0
C      1  0.5238990000000  0.5697800000000  0.5191920000000 1.0
C      1  0.5011140000000  0.4054340000000  0.4435820000000 1.0
C      1  0.4889060000000  0.4196420000000  0.5808820000000 1.0
C      1  0.5527010000000  0.4707940000000  0.3753440000000 1.0
C      1  0.5601370000000  0.4754590000000  0.5925380000000 1.0
C      1  0.4455400000000  0.4793430000000  0.4593740000000 1.0
C      1  0.5108540000000  0.5789210000000  0.4540950000000 1.0
C      1  0.5492080000000  0.6149400000000  0.4967480000000 1.0
C      1  0.4508210000000  0.5475400000000  0.5580040000000 1.0
C      1  0.4477730000000  0.4653140000000  0.5386210000000 1.0
C      1  0.4989090000000  0.5329680000000  0.4116930000000 1.0
C      1  0.6116520000000  0.5484530000000  0.4853060000000 1.0
C      1  0.5764250000000  0.4798900000000  0.4642650000000 1.0
C      1  0.5585470000000  0.6129440000000  0.4691290000000 1.0
C      1  0.5291630000000  0.5814810000000  0.4792190000000 1.0
C      1  0.4344500000000  0.5627570000000  0.4289550000000 1.0
C      1  0.4753520000000  0.4871570000000  0.3712810000000 1.0
C      1  0.4370750000000  0.6132930000000  0.5022420000000 1.0
C      1  0.4273860000000  0.4864420000000  0.5086380000000 1.0
C      1  0.4600570000000  0.5737390000000  0.5977180000000 1.0
C      1  0.5655740000000  0.5865340000000  0.4589270000000 1.0
C      1  0.4269920000000  0.4800090000000  0.3878340000000 1.0
C      1  0.4541120000000  0.4835670000000  0.6036670000000 1.0
C      1  0.5141210000000  0.4443710000000  0.4733590000000 1.0
C      1  0.4656860000000  0.5683180000000  0.4333450000000 1.0
C      1  0.3997040000000  0.4827310000000  0.5176420000000 1.0
C      1  0.4890960000000  0.4534760000000  0.4172560000000 1.0
C      1  0.4108770000000  0.5121920000000  0.6134890000000 1.0
C      1  0.3834430000000  0.4672980000000  0.4721190000000 1.0
C      1  0.3901370000000  0.5100930000000  0.5218570000000 1.0
C      1  0.4943300000000  0.5797670000000  0.5264970000000 1.0
C      1  0.4883410000000  0.5618880000000  0.4130420000000 1.0
C      1  0.4420990000000  0.3994430000000  0.4838110000000 1.0
C      1  0.4301120000000  0.4906360000000  0.4379420000000 1.0
C      1  0.5548170000000  0.4874780000000  0.4168350000000 1.0
C      1  0.5189850000000  0.4114780000000  0.5358110000000 1.0
C      1  0.4887020000000  0.4080060000000  0.4940080000000 1.0
C      1  0.4120760000000  0.5383660000000  0.4438580000000 1.0
C      1  0.6057620000000  0.4617740000000  0.5272850000000 1.0
C      1  0.4783900000000  0.4674540000000  0.4959010000000 1.0
C      1  0.5454320000000  0.4229880000000  0.5215670000000 1.0
C      1  0.4268890000000  0.5138930000000  0.6375850000000 1.0
C      1  0.4571510000000  0.4523910000000  0.6041330000000 1.0
C      1  0.5564040000000  0.4491910000000  0.5317640000000 1.0
C      1  0.4854900000000  0.5697230000000  0.6111180000000 1.0
C      1  0.3847640000000  0.4893490000000  0.4532810000000 1.0
C      1  0.5712360000000  0.4685280000000  0.3995550000000 1.0
C      1  0.6233630000000  0.4938120000000  0.4902370000000 1.0
C      1  0.5450990000000  0.6011290000000  0.5476350000000 1.0
C      1  0.4549290000000  0.5054880000000  0.6322180000000 1.0
C      1  0.4413020000000  0.5144150000000  0.5197490000000 1.0
C      1  0.4877630000000  0.4821860000000  0.4298850000000 1.0
C      1  0.3925440000000  0.5175350000000  0.4638730000000 1.0
C      1  0.4917310000000  0.5411200000000  0.6184600000000 1.0
C      1  0.5455550000000  0.5557400000000  0.3902730000000 1.0
C      1  0.4690240000000  0.3865970000000  0.4943270000000 1.0
C      1  0.5475140000000  0.5227000000000  0.4775320000000 1.0
C      1  0.5188380000000  0.4639770000000  0.5664200000000 1.0
C      1  0.5469290000000  0.3785170000000  0.4533840000000 1.0
C      1  0.4865870000000  0.4409300000000  0.6027540000000 1.0
C      1  0.5983470000000  0.5750100000000  0.4894750000000 1.0
END
