TITL C-862503-991-517 3.15721450872384e-05 125000 -86.6393225942493 0 0 16 (D4h) n - 1
REM
REM in /home/nfs/bkarasulu/CARBON/AIRSS/Generating-Clusters/TERSOFF/Higher-Symm/FIRE-HFTN
REM
REM
REM
REM
REM
REM ./C.cell (b20cbc046b6831c77cfcea5457e17084)
REM AIRSS Version 0.9.1 bugfix July 2018 build 013d7b7c2542+ Fri, 06 Jul 2018 19:26:36 +0100
REM compiler GCC version 9.2.1 20190827 (Red Hat 9.2.1-1)
REM options -cpp -mtune=generic -march=x86-64 -g -O0 -fpre-include=/usr/include/finclude/math-vector-fortran.h
REM seed -1192501988 2115836942 64456320 -2001983933 1732116911 -91592893 1117035559 -1267359744 1425071688 1068764145 812335887 1772688481 971557438 -381530787 -337652867 1158358656 -122347829 1700469030 -1856181282 -1014453155 277180882 1434478667 -561613960 1345319297 -727678031 -2072571710 -1357032301 2012977561 742565426 1886698881 -1191581305 -1264784286 467488215
REM
CELL 1.54180   50.00000   50.00000   50.00000   90.00000   90.00000   90.00000
LATT -1
SFAC C  
C      1  0.4945740000000  0.5218860000000  0.5310370000000 1.0
C      1  0.4781140000000  0.4945740000000  0.5310370000000 1.0
C      1  0.5054260000000  0.4781140000000  0.5310370000000 1.0
C      1  0.5218860000000  0.5054260000000  0.5310370000000 1.0
C      1  0.4945740000000  0.5218860000000  0.4689630000000 1.0
C      1  0.4781140000000  0.4945740000000  0.4689630000000 1.0
C      1  0.5054260000000  0.4781140000000  0.4689630000000 1.0
C      1  0.5218860000000  0.5054260000000  0.4689630000000 1.0
C      1  0.4550660000000  0.4888610000000  0.4855280000000 1.0
C      1  0.5111390000000  0.4550660000000  0.4855280000000 1.0
C      1  0.5449340000000  0.5111390000000  0.4855280000000 1.0
C      1  0.4888610000000  0.5449340000000  0.4855280000000 1.0
C      1  0.4550660000000  0.4888610000000  0.5144720000000 1.0
C      1  0.5111390000000  0.4550660000000  0.5144720000000 1.0
C      1  0.5449340000000  0.5111390000000  0.5144720000000 1.0
C      1  0.4888610000000  0.5449340000000  0.5144720000000 1.0
END
