TITL C-862502-1143-706 13.2204501415882 125000 -413.172685380376 0 0 78 (Cs) n - 1
REM
REM in /home/nfs/bkarasulu/CARBON/AIRSS/Generating-Clusters/TERSOFF/Higher-Symm/FIRE-HFTN
REM
REM
REM
REM
REM
REM ./C.cell (b20cbc046b6831c77cfcea5457e17084)
REM AIRSS Version 0.9.1 bugfix July 2018 build 013d7b7c2542+ Fri, 06 Jul 2018 19:26:36 +0100
REM compiler GCC version 9.2.1 20190827 (Red Hat 9.2.1-1)
REM options -cpp -mtune=generic -march=x86-64 -g -O0 -fpre-include=/usr/include/finclude/math-vector-fortran.h
REM seed 1739634823 -901250483 -1025227703 -2027341764 1466117278 831972028 -488572589 1526409827 1581433995 -1697294133 -1887601793 191463806 -664448875 -856206348 145301383 136589067 -1807074481 1132625748 -935484770 -1132018446 -1788286683 -2018069942 1374486315 117207446 -805930121 -2133114358 -714231226 1317851999 1319679948 1307973084 966480440 855656045 114274792
REM
CELL 1.54180   50.00000   50.00000   50.00000   90.00000   90.00000   90.00000
LATT -1
SFAC C  
C      1  0.4751760000000  0.5333900000000  0.5067010000000 1.0
C      1  0.5262920000000  0.5333900000000  0.5067010000000 1.0
C      1  0.5453400000000  0.4730490000000  0.4349630000000 1.0
C      1  0.4561290000000  0.4730490000000  0.4349630000000 1.0
C      1  0.4315200000000  0.4739750000000  0.4689800000000 1.0
C      1  0.5699490000000  0.4739750000000  0.4689800000000 1.0
C      1  0.4472180000000  0.5091580000000  0.5777140000000 1.0
C      1  0.5542500000000  0.5091580000000  0.5777140000000 1.0
C      1  0.5303520000000  0.5003170000000  0.5444100000000 1.0
C      1  0.4711170000000  0.5003170000000  0.5444100000000 1.0
C      1  0.4256950000000  0.5511140000000  0.4847720000000 1.0
C      1  0.5757730000000  0.5511140000000  0.4847720000000 1.0
C      1  0.4196540000000  0.5245940000000  0.4753020000000 1.0
C      1  0.5818140000000  0.5245940000000  0.4753020000000 1.0
C      1  0.4755590000000  0.4525530000000  0.4450250000000 1.0
C      1  0.5259100000000  0.4525530000000  0.4450250000000 1.0
C      1  0.5635740000000  0.4451950000000  0.5087100000000 1.0
C      1  0.4378950000000  0.4451950000000  0.5087100000000 1.0
C      1  0.5315100000000  0.4360970000000  0.4695880000000 1.0
C      1  0.4699590000000  0.4360970000000  0.4695880000000 1.0
C      1  0.5278620000000  0.5243310000000  0.4274760000000 1.0
C      1  0.4736070000000  0.5243310000000  0.4274760000000 1.0
C      1  0.4691680000000  0.4871620000000  0.5164770000000 1.0
C      1  0.5323000000000  0.4871620000000  0.5164770000000 1.0
C      1  0.5430210000000  0.5024630000000  0.4456180000000 1.0
C      1  0.4584480000000  0.5024630000000  0.4456180000000 1.0
C      1  0.4299160000000  0.5179450000000  0.5334410000000 1.0
C      1  0.5715530000000  0.5179450000000  0.5334410000000 1.0
C      1  0.5774630000000  0.4893690000000  0.5295870000000 1.0
C      1  0.4240050000000  0.4893690000000  0.5295870000000 1.0
C      1  0.4849800000000  0.5687010000000  0.5303780000000 1.0
C      1  0.5164890000000  0.5687010000000  0.5303780000000 1.0
C      1  0.4799530000000  0.4271090000000  0.5183730000000 1.0
C      1  0.5215160000000  0.4271090000000  0.5183730000000 1.0
C      1  0.4526060000000  0.5270910000000  0.5516340000000 1.0
C      1  0.5488630000000  0.5270910000000  0.5516340000000 1.0
C      1  0.4594340000000  0.5087410000000  0.4980750000000 1.0
C      1  0.5420340000000  0.5087410000000  0.4980750000000 1.0
C      1  0.5574100000000  0.4497780000000  0.4813400000000 1.0
C      1  0.4440590000000  0.4497780000000  0.4813400000000 1.0
C      1  0.5607070000000  0.5040710000000  0.4736890000000 1.0
C      1  0.4407610000000  0.5040710000000  0.4736890000000 1.0
C      1  0.4598310000000  0.4800150000000  0.5713700000000 1.0
C      1  0.5416370000000  0.4800150000000  0.5713700000000 1.0
C      1  0.4750740000000  0.5497550000000  0.5529110000000 1.0
C      1  0.5263940000000  0.5497550000000  0.5529110000000 1.0
C      1  0.4662650000000  0.4586980000000  0.5472140000000 1.0
C      1  0.5352040000000  0.4586980000000  0.5472140000000 1.0
C      1  0.4752860000000  0.5641650000000  0.5005620000000 1.0
C      1  0.5261830000000  0.5641650000000  0.5005620000000 1.0
C      1  0.4452090000000  0.4680200000000  0.5249270000000 1.0
C      1  0.5562600000000  0.4680200000000  0.5249270000000 1.0
C      1  0.5494090000000  0.5623940000000  0.4808690000000 1.0
C      1  0.4520600000000  0.5623940000000  0.4808690000000 1.0
C      1  0.5216810000000  0.4905350000000  0.4662010000000 1.0
C      1  0.4797880000000  0.4905350000000  0.4662010000000 1.0
C      1  0.4518320000000  0.4229350000000  0.5190560000000 1.0
C      1  0.5496360000000  0.4229350000000  0.5190560000000 1.0
C      1  0.5285160000000  0.5570690000000  0.4331550000000 1.0
C      1  0.4729520000000  0.5570690000000  0.4331550000000 1.0
C      1  0.4704770000000  0.5476310000000  0.4622560000000 1.0
C      1  0.5309920000000  0.5476310000000  0.4622560000000 1.0
C      1  0.5007340000000  0.4717950000000  0.5912060000000 1.0
C      1  0.5007340000000  0.4694140000000  0.4517680000000 1.0
C      1  0.5007340000000  0.5733570000000  0.4817570000000 1.0
C      1  0.5007340000000  0.5331640000000  0.4698050000000 1.0
C      1  0.5007340000000  0.4503360000000  0.5382360000000 1.0
C      1  0.5007340000000  0.5075660000000  0.4856880000000 1.0
C      1  0.5007340000000  0.4596890000000  0.4854930000000 1.0
C      1  0.5007340000000  0.4286600000000  0.4883640000000 1.0
C      1  0.5007340000000  0.5235500000000  0.4407720000000 1.0
C      1  0.5007340000000  0.4768820000000  0.5626630000000 1.0
C      1  0.5007340000000  0.5205690000000  0.5179030000000 1.0
C      1  0.5007340000000  0.5079060000000  0.5497910000000 1.0
C      1  0.5007340000000  0.4850050000000  0.4240920000000 1.0
C      1  0.5007340000000  0.5361980000000  0.5623310000000 1.0
C      1  0.5007340000000  0.5714890000000  0.4457300000000 1.0
C      1  0.5007340000000  0.4742570000000  0.5112370000000 1.0
END
