TITL C-862506-1665-287 14.656472622907 125000 -498.495819834626 0 0 94 (C1) n - 1
REM
REM in /home/nfs/bkarasulu/CARBON/AIRSS/Generating-Clusters/TERSOFF/Higher-Symm/FIRE-HFTN
REM
REM
REM
REM
REM
REM ./C.cell (b20cbc046b6831c77cfcea5457e17084)
REM AIRSS Version 0.9.1 bugfix July 2018 build 013d7b7c2542+ Fri, 06 Jul 2018 19:26:36 +0100
REM compiler GCC version 9.2.1 20190827 (Red Hat 9.2.1-1)
REM options -cpp -mtune=generic -march=x86-64 -g -O0 -fpre-include=/usr/include/finclude/math-vector-fortran.h
REM seed -357013246 -1010667385 -674708523 -974517147 -1282126225 23995387 963714063 -1770287866 -597297632 -316120261 -2072278039 -2047907033 1325495755 -1048567153 -161006185 -91496854 1156428444 12231463 1358975356 855117315 -903979033 1129288160 891947506 -449309552 1176136012 319935972 -2135916884 1403688078 1101017369 1189762816 612788594 -2080621976 384493456
REM
CELL 1.54180   50.00000   50.00000   50.00000   90.00000   90.00000   90.00000
LATT -1
SFAC C  
C      1  0.5834520000000  0.5164910000000  0.5275260000000 1.0
C      1  0.4449750000000  0.4490880000000  0.5549010000000 1.0
C      1  0.4719190000000  0.4218450000000  0.5174270000000 1.0
C      1  0.5550080000000  0.4875580000000  0.5650170000000 1.0
C      1  0.5304180000000  0.5874800000000  0.4816620000000 1.0
C      1  0.5437620000000  0.4290320000000  0.4822710000000 1.0
C      1  0.4751430000000  0.4900490000000  0.5803820000000 1.0
C      1  0.5304050000000  0.4809590000000  0.5103200000000 1.0
C      1  0.4421760000000  0.5362360000000  0.4609950000000 1.0
C      1  0.5111160000000  0.4593540000000  0.4608670000000 1.0
C      1  0.4201620000000  0.4907210000000  0.4921220000000 1.0
C      1  0.5621210000000  0.5262090000000  0.4324080000000 1.0
C      1  0.4728030000000  0.5005990000000  0.5269810000000 1.0
C      1  0.5852390000000  0.4842220000000  0.5195450000000 1.0
C      1  0.5047850000000  0.5446920000000  0.4808110000000 1.0
C      1  0.4361760000000  0.4595230000000  0.5152210000000 1.0
C      1  0.4862550000000  0.5606630000000  0.4466960000000 1.0
C      1  0.5160570000000  0.4186110000000  0.4901870000000 1.0
C      1  0.5420150000000  0.5450380000000  0.4467460000000 1.0
C      1  0.5368270000000  0.5632200000000  0.5019540000000 1.0
C      1  0.4553870000000  0.5571790000000  0.5429230000000 1.0
C      1  0.5028600000000  0.5009770000000  0.5977300000000 1.0
C      1  0.5376130000000  0.4454320000000  0.4585930000000 1.0
C      1  0.4791800000000  0.5394870000000  0.4992680000000 1.0
C      1  0.5042930000000  0.4210760000000  0.5172600000000 1.0
C      1  0.5810970000000  0.4729470000000  0.4650820000000 1.0
C      1  0.5131840000000  0.5456710000000  0.4356350000000 1.0
C      1  0.5041300000000  0.5217210000000  0.4187170000000 1.0
C      1  0.4825870000000  0.4592680000000  0.4915720000000 1.0
C      1  0.4550030000000  0.5779790000000  0.4929740000000 1.0
C      1  0.5284200000000  0.4686040000000  0.5624330000000 1.0
C      1  0.5819520000000  0.5131920000000  0.4770340000000 1.0
C      1  0.4759010000000  0.4192040000000  0.4572810000000 1.0
C      1  0.4628820000000  0.4738460000000  0.5132740000000 1.0
C      1  0.5673000000000  0.5644180000000  0.5400310000000 1.0
C      1  0.5112640000000  0.5009740000000  0.4558280000000 1.0
C      1  0.4067890000000  0.4892170000000  0.5193730000000 1.0
C      1  0.4616110000000  0.5129910000000  0.4721200000000 1.0
C      1  0.4700120000000  0.5151190000000  0.5594770000000 1.0
C      1  0.5126530000000  0.4956280000000  0.5572770000000 1.0
C      1  0.4640490000000  0.4877300000000  0.4386660000000 1.0
C      1  0.5343930000000  0.4965440000000  0.5931800000000 1.0
C      1  0.4368080000000  0.5587040000000  0.5120610000000 1.0
C      1  0.4447950000000  0.4772110000000  0.5646280000000 1.0
C      1  0.4538140000000  0.4242990000000  0.4926050000000 1.0
C      1  0.5509060000000  0.4987580000000  0.4241890000000 1.0
C      1  0.4195330000000  0.5166120000000  0.4723950000000 1.0
C      1  0.4991680000000  0.4784740000000  0.4368540000000 1.0
C      1  0.5863620000000  0.5221250000000  0.4494700000000 1.0
C      1  0.5569730000000  0.4813170000000  0.4493000000000 1.0
C      1  0.4920710000000  0.5210020000000  0.4638600000000 1.0
C      1  0.4399050000000  0.5189140000000  0.5643450000000 1.0
C      1  0.4922090000000  0.5096620000000  0.5042230000000 1.0
C      1  0.5168890000000  0.5714740000000  0.5245260000000 1.0
C      1  0.4309230000000  0.4451100000000  0.4898200000000 1.0
C      1  0.5210280000000  0.5309310000000  0.5079930000000 1.0
C      1  0.5216220000000  0.4967630000000  0.4154210000000 1.0
C      1  0.5649540000000  0.4710210000000  0.5396680000000 1.0
C      1  0.4432650000000  0.5095060000000  0.5236080000000 1.0
C      1  0.5386080000000  0.4969990000000  0.4661840000000 1.0
C      1  0.5758510000000  0.5523200000000  0.4909650000000 1.0
C      1  0.4590380000000  0.5427480000000  0.4341280000000 1.0
C      1  0.4332460000000  0.5289780000000  0.5034690000000 1.0
C      1  0.4684770000000  0.4388920000000  0.5413110000000 1.0
C      1  0.4237780000000  0.4976740000000  0.5469600000000 1.0
C      1  0.5427690000000  0.4570120000000  0.5240040000000 1.0
C      1  0.4299360000000  0.4890670000000  0.4512690000000 1.0
C      1  0.4620310000000  0.4652610000000  0.4639360000000 1.0
C      1  0.5795850000000  0.5459860000000  0.5194080000000 1.0
C      1  0.4836320000000  0.5435680000000  0.5608030000000 1.0
C      1  0.4646890000000  0.5548350000000  0.4739130000000 1.0
C      1  0.4931530000000  0.4834620000000  0.5407530000000 1.0
C      1  0.4512870000000  0.4868650000000  0.4871880000000 1.0
C      1  0.4883290000000  0.4624260000000  0.5767580000000 1.0
C      1  0.4771160000000  0.5179630000000  0.4334330000000 1.0
C      1  0.5206800000000  0.4410310000000  0.5403820000000 1.0
C      1  0.5023090000000  0.5763950000000  0.4820780000000 1.0
C      1  0.4330150000000  0.4335570000000  0.4333960000000 1.0
C      1  0.4775950000000  0.5575520000000  0.5217360000000 1.0
C      1  0.5560820000000  0.5128960000000  0.5429140000000 1.0
C      1  0.5423700000000  0.5079760000000  0.5136610000000 1.0
C      1  0.5069180000000  0.4792170000000  0.4913800000000 1.0
C      1  0.5269340000000  0.5202420000000  0.5507040000000 1.0
C      1  0.5799350000000  0.4645620000000  0.4937860000000 1.0
C      1  0.4955250000000  0.4332240000000  0.4737470000000 1.0
C      1  0.4918270000000  0.4535940000000  0.5483890000000 1.0
C      1  0.4867080000000  0.5848770000000  0.5094070000000 1.0
C      1  0.5143760000000  0.5495340000000  0.5493070000000 1.0
C      1  0.4543020000000  0.4378770000000  0.4525920000000 1.0
C      1  0.4203630000000  0.4601490000000  0.4633420000000 1.0
C      1  0.5444990000000  0.5575590000000  0.5587200000000 1.0
C      1  0.5527230000000  0.5147130000000  0.4857320000000 1.0
C      1  0.5488560000000  0.5443780000000  0.4773240000000 1.0
C      1  0.5588540000000  0.4439300000000  0.5021870000000 1.0
END
