TITL C-862129-6180-232 3.64663398060577 125000 -727.375265644065 0 0 132 (C1) n - 1
REM
REM in /home/nfs/bkarasulu/CARBON/AIRSS/Generating-Clusters/TERSOFF/Higher-Symm/FIRE-HFTN
REM
REM
REM
REM
REM
REM ./C.cell (b20cbc046b6831c77cfcea5457e17084)
REM AIRSS Version 0.9.1 bugfix July 2018 build 013d7b7c2542+ Fri, 06 Jul 2018 19:26:36 +0100
REM compiler GCC version 9.2.1 20190827 (Red Hat 9.2.1-1)
REM options -cpp -mtune=generic -march=x86-64 -g -O0 -fpre-include=/usr/include/finclude/math-vector-fortran.h
REM seed -1455630134 28088595 -711192872 -364378118 1986392034 -1335570625 1804103669 1781522904 -1606503273 -1075561590 -544940548 2031960616 -1389656681 -409765412 858054840 147536674 -1854226692 -1547218579 1486534362 1391709620 -329553887 -1602541791 -3928287 -1746422925 -1095820222 38193128 -1359861796 -1331088175 624045412 -2071460674 1214305034 1209604714 1292591440
REM
CELL 1.54180   50.00000   50.00000   50.00000   90.00000   90.00000   90.00000
LATT -1
SFAC C  
C      1  0.5516470000000  0.4469870000000  0.5372590000000 1.0
C      1  0.4499350000000  0.4384320000000  0.4773570000000 1.0
C      1  0.5623810000000  0.5638100000000  0.5195640000000 1.0
C      1  0.4429090000000  0.5541700000000  0.4810750000000 1.0
C      1  0.4468610000000  0.4456630000000  0.5268510000000 1.0
C      1  0.5584670000000  0.4332280000000  0.4855640000000 1.0
C      1  0.4463920000000  0.5601810000000  0.5278260000000 1.0
C      1  0.5431760000000  0.5543890000000  0.4692310000000 1.0
C      1  0.5390500000000  0.5215230000000  0.5111980000000 1.0
C      1  0.4695800000000  0.5100800000000  0.4806470000000 1.0
C      1  0.5483130000000  0.4938240000000  0.5168810000000 1.0
C      1  0.4710910000000  0.4808250000000  0.4892480000000 1.0
C      1  0.4690610000000  0.5207750000000  0.5097730000000 1.0
C      1  0.5267210000000  0.5108130000000  0.4852380000000 1.0
C      1  0.4723870000000  0.4912810000000  0.5180750000000 1.0
C      1  0.5431520000000  0.4812190000000  0.4872360000000 1.0
C      1  0.4197890000000  0.5323840000000  0.5526090000000 1.0
C      1  0.5838150000000  0.5261540000000  0.4579970000000 1.0
C      1  0.4157510000000  0.4685040000000  0.5513260000000 1.0
C      1  0.5820450000000  0.4641240000000  0.4552030000000 1.0
C      1  0.5846000000000  0.5201800000000  0.5410020000000 1.0
C      1  0.4056570000000  0.5252920000000  0.4682300000000 1.0
C      1  0.5923970000000  0.4558980000000  0.5421510000000 1.0
C      1  0.4162730000000  0.4639830000000  0.4590990000000 1.0
C      1  0.5452230000000  0.5627750000000  0.3914580000000 1.0
C      1  0.4774390000000  0.5542110000000  0.5919080000000 1.0
C      1  0.5273220000000  0.4516550000000  0.3977780000000 1.0
C      1  0.4782790000000  0.4407920000000  0.5940010000000 1.0
C      1  0.4540420000000  0.5562760000000  0.4004770000000 1.0
C      1  0.5189010000000  0.5581310000000  0.5993110000000 1.0
C      1  0.4826650000000  0.4460940000000  0.4018020000000 1.0
C      1  0.5193140000000  0.4450780000000  0.6017980000000 1.0
C      1  0.5278610000000  0.5391820000000  0.3880000000000 1.0
C      1  0.4653770000000  0.5279330000000  0.5896500000000 1.0
C      1  0.5262380000000  0.4802120000000  0.3938740000000 1.0
C      1  0.4681690000000  0.4679750000000  0.5916660000000 1.0
C      1  0.4704000000000  0.5329370000000  0.3950010000000 1.0
C      1  0.5104820000000  0.5306820000000  0.6027060000000 1.0
C      1  0.4782210000000  0.4743260000000  0.3994270000000 1.0
C      1  0.5122750000000  0.4728570000000  0.6042660000000 1.0
C      1  0.5235120000000  0.4430670000000  0.4262970000000 1.0
C      1  0.4868330000000  0.4266550000000  0.5649830000000 1.0
C      1  0.5463130000000  0.5710760000000  0.4199650000000 1.0
C      1  0.4879270000000  0.5665760000000  0.5645290000000 1.0
C      1  0.4883770000000  0.4359340000000  0.4307050000000 1.0
C      1  0.5210970000000  0.4356640000000  0.5728280000000 1.0
C      1  0.4509300000000  0.5603470000000  0.4294510000000 1.0
C      1  0.5237840000000  0.5651810000000  0.5696510000000 1.0
C      1  0.5921610000000  0.5036860000000  0.5643690000000 1.0
C      1  0.3983260000000  0.5104050000000  0.4437960000000 1.0
C      1  0.6011210000000  0.4754410000000  0.5628890000000 1.0
C      1  0.4049600000000  0.4820930000000  0.4388940000000 1.0
C      1  0.4167520000000  0.5150020000000  0.5764600000000 1.0
C      1  0.5807920000000  0.5105710000000  0.4331470000000 1.0
C      1  0.4161890000000  0.4850850000000  0.5759490000000 1.0
C      1  0.5790540000000  0.4815120000000  0.4319780000000 1.0
C      1  0.5213240000000  0.4726390000000  0.4685080000000 1.0
C      1  0.4949660000000  0.4563490000000  0.5144370000000 1.0
C      1  0.5058130000000  0.5650160000000  0.4532810000000 1.0
C      1  0.4920250000000  0.5411970000000  0.5103390000000 1.0
C      1  0.4944890000000  0.4646780000000  0.4793150000000 1.0
C      1  0.5158980000000  0.4703650000000  0.5293750000000 1.0
C      1  0.4899160000000  0.5461940000000  0.4742420000000 1.0
C      1  0.5180180000000  0.5330170000000  0.5266010000000 1.0
C      1  0.4165560000000  0.5540040000000  0.4663750000000 1.0
C      1  0.5700060000000  0.5494050000000  0.5444220000000 1.0
C      1  0.4361700000000  0.4372910000000  0.4516500000000 1.0
C      1  0.5724780000000  0.4303570000000  0.5519820000000 1.0
C      1  0.5711400000000  0.5536550000000  0.4595250000000 1.0
C      1  0.4335490000000  0.5641190000000  0.5544120000000 1.0
C      1  0.5655480000000  0.4376180000000  0.4577280000000 1.0
C      1  0.4305560000000  0.4396750000000  0.5504130000000 1.0
C      1  0.4177040000000  0.5182900000000  0.5227330000000 1.0
C      1  0.5957940000000  0.5111940000000  0.4819460000000 1.0
C      1  0.4097620000000  0.4835610000000  0.5249300000000 1.0
C      1  0.5944990000000  0.4781480000000  0.4802320000000 1.0
C      1  0.5887390000000  0.5041730000000  0.5134540000000 1.0
C      1  0.4142320000000  0.5084350000000  0.4914560000000 1.0
C      1  0.5878150000000  0.4681620000000  0.5124070000000 1.0
C      1  0.4189680000000  0.4762600000000  0.4905220000000 1.0
C      1  0.5080750000000  0.4856070000000  0.5775530000000 1.0
C      1  0.4862820000000  0.4902050000000  0.4246710000000 1.0
C      1  0.5068710000000  0.5166240000000  0.5756970000000 1.0
C      1  0.4851410000000  0.5234410000000  0.4201970000000 1.0
C      1  0.4782050000000  0.4808340000000  0.5661970000000 1.0
C      1  0.5188110000000  0.4955730000000  0.4196650000000 1.0
C      1  0.4756110000000  0.5149760000000  0.5633530000000 1.0
C      1  0.5159540000000  0.5297270000000  0.4152570000000 1.0
C      1  0.4507720000000  0.4760460000000  0.5294230000000 1.0
C      1  0.5617400000000  0.4588290000000  0.4980430000000 1.0
C      1  0.4442700000000  0.5336810000000  0.5176980000000 1.0
C      1  0.5277700000000  0.5304260000000  0.4651940000000 1.0
C      1  0.5562670000000  0.4769490000000  0.5386490000000 1.0
C      1  0.4472020000000  0.4642680000000  0.4892280000000 1.0
C      1  0.5605500000000  0.5395040000000  0.5044180000000 1.0
C      1  0.4474330000000  0.5257570000000  0.4724390000000 1.0
C      1  0.4584200000000  0.5796620000000  0.5644730000000 1.0
C      1  0.5711260000000  0.5702070000000  0.4353010000000 1.0
C      1  0.4509490000000  0.4234270000000  0.5672760000000 1.0
C      1  0.5468520000000  0.4276180000000  0.4369690000000 1.0
C      1  0.5555610000000  0.5579810000000  0.5685800000000 1.0
C      1  0.4243470000000  0.5645480000000  0.4405530000000 1.0
C      1  0.5464090000000  0.4191880000000  0.5682800000000 1.0
C      1  0.4553440000000  0.4305000000000  0.4296290000000 1.0
C      1  0.5135090000000  0.4880000000000  0.6285170000000 1.0
C      1  0.4690320000000  0.4870050000000  0.3752620000000 1.0
C      1  0.5121160000000  0.5164230000000  0.6276900000000 1.0
C      1  0.4656350000000  0.5152070000000  0.3729700000000 1.0
C      1  0.4576420000000  0.4836740000000  0.6133700000000 1.0
C      1  0.5297830000000  0.4930930000000  0.3684400000000 1.0
C      1  0.4559410000000  0.5123650000000  0.6121900000000 1.0
C      1  0.5299450000000  0.5214300000000  0.3655200000000 1.0
C      1  0.4646620000000  0.5776450000000  0.4853840000000 1.0
C      1  0.5370420000000  0.5810170000000  0.5147290000000 1.0
C      1  0.4689270000000  0.4174060000000  0.4880530000000 1.0
C      1  0.5284680000000  0.4308900000000  0.5225580000000 1.0
C      1  0.5312810000000  0.5779440000000  0.4840680000000 1.0
C      1  0.4670890000000  0.5784500000000  0.5166670000000 1.0
C      1  0.5339730000000  0.4177970000000  0.4946250000000 1.0
C      1  0.4671520000000  0.4251820000000  0.5177300000000 1.0
C      1  0.5204410000000  0.5360060000000  0.5559770000000 1.0
C      1  0.4728960000000  0.5411220000000  0.4428320000000 1.0
C      1  0.5208560000000  0.4661270000000  0.5584290000000 1.0
C      1  0.4849990000000  0.4635090000000  0.4473570000000 1.0
C      1  0.4807070000000  0.5421840000000  0.5439790000000 1.0
C      1  0.5230570000000  0.5551280000000  0.4315790000000 1.0
C      1  0.4817450000000  0.4548390000000  0.5481920000000 1.0
C      1  0.5255620000000  0.4711700000000  0.4396710000000 1.0
C      1  0.4993560000000  0.5836470000000  0.4903550000000 1.0
C      1  0.4971030000000  0.4189160000000  0.5329620000000 1.0
C      1  0.5022030000000  0.5805440000000  0.5244090000000 1.0
C      1  0.5011640000000  0.4107640000000  0.4978090000000 1.0
END
