TITL C-862130-1496-185 0.0694513375315518 125000 -755.103556694599 0 0 140 (C1) n - 1
REM
REM in /home/nfs/bkarasulu/CARBON/AIRSS/Generating-Clusters/TERSOFF/Higher-Symm/FIRE-HFTN
REM
REM
REM
REM
REM
REM ./C.cell (b20cbc046b6831c77cfcea5457e17084)
REM AIRSS Version 0.9.1 bugfix July 2018 build 013d7b7c2542+ Fri, 06 Jul 2018 19:26:36 +0100
REM compiler GCC version 9.2.1 20190827 (Red Hat 9.2.1-1)
REM options -cpp -mtune=generic -march=x86-64 -g -O0 -fpre-include=/usr/include/finclude/math-vector-fortran.h
REM seed -1857796057 1611216113 -1860798999 737004428 187758915 -956682331 1761341589 -367383422 -393756603 -1854875419 1291444742 -1883875152 1061385504 -579799592 1897726993 -1276491935 2137960746 -1621644622 -1041204752 1875214664 -1350971614 -1043628607 636204444 -802259925 -2139544861 1996653928 -515251452 -622609724 -1697739324 -1781907114 406939530 1845099651 -1973564987
REM
CELL 1.54180   50.00000   50.00000   50.00000   90.00000   90.00000   90.00000
LATT -1
SFAC C  
C      1  0.5529950000000  0.5632570000000  0.5421460000000 1.0
C      1  0.5532890000000  0.4349530000000  0.4574550000000 1.0
C      1  0.5527810000000  0.5664190000000  0.4562800000000 1.0
C      1  0.5523800000000  0.4355270000000  0.5430570000000 1.0
C      1  0.4606160000000  0.4841500000000  0.4508700000000 1.0
C      1  0.4601660000000  0.5160280000000  0.5502620000000 1.0
C      1  0.4598360000000  0.4842570000000  0.5501380000000 1.0
C      1  0.4608600000000  0.5158870000000  0.4510500000000 1.0
C      1  0.5551840000000  0.4860190000000  0.4025550000000 1.0
C      1  0.5539420000000  0.5138340000000  0.5983450000000 1.0
C      1  0.5536390000000  0.4857940000000  0.5987250000000 1.0
C      1  0.5550530000000  0.5140180000000  0.4021860000000 1.0
C      1  0.4824350000000  0.5293590000000  0.4863940000000 1.0
C      1  0.4827490000000  0.4712720000000  0.5148660000000 1.0
C      1  0.4826170000000  0.5287880000000  0.5152490000000 1.0
C      1  0.4824910000000  0.4711470000000  0.4859890000000 1.0
C      1  0.5740390000000  0.5592780000000  0.4822970000000 1.0
C      1  0.5756570000000  0.4398540000000  0.5163900000000 1.0
C      1  0.5758610000000  0.5572890000000  0.5159110000000 1.0
C      1  0.5733490000000  0.4440700000000  0.4832440000000 1.0
C      1  0.5189500000000  0.4485130000000  0.4073960000000 1.0
C      1  0.5180040000000  0.5512920000000  0.5935980000000 1.0
C      1  0.5172840000000  0.4478700000000  0.5937500000000 1.0
C      1  0.5183050000000  0.5521080000000  0.4071060000000 1.0
C      1  0.5123710000000  0.5166510000000  0.6021080000000 1.0
C      1  0.5135300000000  0.4832700000000  0.3994090000000 1.0
C      1  0.5134140000000  0.5172350000000  0.3993250000000 1.0
C      1  0.5120610000000  0.4826040000000  0.6020880000000 1.0
C      1  0.4100490000000  0.4817540000000  0.4823620000000 1.0
C      1  0.4107420000000  0.5183480000000  0.5180440000000 1.0
C      1  0.4101110000000  0.4818570000000  0.5175740000000 1.0
C      1  0.4107110000000  0.5182180000000  0.4830270000000 1.0
C      1  0.5348780000000  0.4558810000000  0.5273940000000 1.0
C      1  0.5331470000000  0.5450270000000  0.4680730000000 1.0
C      1  0.5334830000000  0.4563910000000  0.4692040000000 1.0
C      1  0.5354560000000  0.5431470000000  0.5262370000000 1.0
C      1  0.4927640000000  0.5717420000000  0.5269150000000 1.0
C      1  0.4915110000000  0.4270200000000  0.4716660000000 1.0
C      1  0.4909080000000  0.5734780000000  0.4716650000000 1.0
C      1  0.4920290000000  0.4280310000000  0.5269120000000 1.0
C      1  0.5142810000000  0.5164810000000  0.5601700000000 1.0
C      1  0.5153410000000  0.4826010000000  0.4413410000000 1.0
C      1  0.5154270000000  0.5175340000000  0.4412520000000 1.0
C      1  0.5140290000000  0.4827890000000  0.5601560000000 1.0
C      1  0.4856860000000  0.4789200000000  0.4315120000000 1.0
C      1  0.4850120000000  0.5209100000000  0.5698150000000 1.0
C      1  0.4846300000000  0.4786760000000  0.5696780000000 1.0
C      1  0.4857590000000  0.5210800000000  0.4315380000000 1.0
C      1  0.5454110000000  0.4741990000000  0.4273170000000 1.0
C      1  0.5435850000000  0.5249880000000  0.5733980000000 1.0
C      1  0.5432680000000  0.4741150000000  0.5739870000000 1.0
C      1  0.5450940000000  0.5264510000000  0.4266310000000 1.0
C      1  0.5059150000000  0.4095550000000  0.5619720000000 1.0
C      1  0.5061520000000  0.5916420000000  0.4370070000000 1.0
C      1  0.5073960000000  0.4088550000000  0.4373000000000 1.0
C      1  0.5071680000000  0.5898770000000  0.5619430000000 1.0
C      1  0.5487410000000  0.5157280000000  0.5178180000000 1.0
C      1  0.5453220000000  0.4847250000000  0.4772240000000 1.0
C      1  0.5457860000000  0.5177610000000  0.4761120000000 1.0
C      1  0.5484480000000  0.4827870000000  0.5189290000000 1.0
C      1  0.5047650000000  0.5146570000000  0.5286570000000 1.0
C      1  0.5037280000000  0.4858330000000  0.4721130000000 1.0
C      1  0.5040620000000  0.5151280000000  0.4726150000000 1.0
C      1  0.5048090000000  0.4851150000000  0.5285410000000 1.0
C      1  0.5218500000000  0.6123120000000  0.4817720000000 1.0
C      1  0.5218130000000  0.3883900000000  0.5191010000000 1.0
C      1  0.5230290000000  0.6102080000000  0.5150790000000 1.0
C      1  0.5227760000000  0.3893760000000  0.4857220000000 1.0
C      1  0.4463420000000  0.4506590000000  0.4299400000000 1.0
C      1  0.4457460000000  0.5495840000000  0.5709810000000 1.0
C      1  0.4452150000000  0.4506550000000  0.5706340000000 1.0
C      1  0.4458990000000  0.5490910000000  0.4301520000000 1.0
C      1  0.4396880000000  0.4820910000000  0.5775990000000 1.0
C      1  0.4407650000000  0.5178170000000  0.4233810000000 1.0
C      1  0.4408070000000  0.4818760000000  0.4230670000000 1.0
C      1  0.4400170000000  0.5181310000000  0.5777460000000 1.0
C      1  0.5460480000000  0.5905570000000  0.4819970000000 1.0
C      1  0.5460420000000  0.4101680000000  0.5182860000000 1.0
C      1  0.5478490000000  0.5885490000000  0.5170030000000 1.0
C      1  0.5477290000000  0.4107960000000  0.4833360000000 1.0
C      1  0.4694950000000  0.4468850000000  0.4739160000000 1.0
C      1  0.4697530000000  0.5527820000000  0.5273710000000 1.0
C      1  0.4693260000000  0.4473210000000  0.5268710000000 1.0
C      1  0.4691170000000  0.5534140000000  0.4742550000000 1.0
C      1  0.5264000000000  0.4301290000000  0.5676240000000 1.0
C      1  0.5267160000000  0.5711840000000  0.4317830000000 1.0
C      1  0.5276710000000  0.4297790000000  0.4325160000000 1.0
C      1  0.5274010000000  0.5688550000000  0.5671160000000 1.0
C      1  0.4172930000000  0.4515640000000  0.4717300000000 1.0
C      1  0.4174330000000  0.5484470000000  0.5287820000000 1.0
C      1  0.4169740000000  0.4516780000000  0.5284350000000 1.0
C      1  0.4171350000000  0.5480640000000  0.4720420000000 1.0
C      1  0.4434180000000  0.5532730000000  0.4588220000000 1.0
C      1  0.4431960000000  0.4465960000000  0.5419470000000 1.0
C      1  0.4436230000000  0.5537880000000  0.5423310000000 1.0
C      1  0.4437200000000  0.4465100000000  0.4585870000000 1.0
C      1  0.5879570000000  0.5167560000000  0.4569230000000 1.0
C      1  0.5827620000000  0.4835910000000  0.5430970000000 1.0
C      1  0.5826860000000  0.5149900000000  0.5425030000000 1.0
C      1  0.5880460000000  0.4851890000000  0.4574460000000 1.0
C      1  0.4782010000000  0.5886820000000  0.4292290000000 1.0
C      1  0.4780680000000  0.4115710000000  0.5706400000000 1.0
C      1  0.4792910000000  0.5881860000000  0.5707400000000 1.0
C      1  0.4793580000000  0.4114720000000  0.4295000000000 1.0
C      1  0.4677120000000  0.5647900000000  0.5843170000000 1.0
C      1  0.4682310000000  0.4353460000000  0.4164890000000 1.0
C      1  0.4674050000000  0.5645800000000  0.4164610000000 1.0
C      1  0.4667830000000  0.4351130000000  0.5841430000000 1.0
C      1  0.5792680000000  0.4721750000000  0.5144950000000 1.0
C      1  0.5743360000000  0.5277520000000  0.4822790000000 1.0
C      1  0.5740650000000  0.4753200000000  0.4829870000000 1.0
C      1  0.5801190000000  0.5251250000000  0.5133690000000 1.0
C      1  0.5138520000000  0.4431600000000  0.5129880000000 1.0
C      1  0.5132710000000  0.5577070000000  0.4838180000000 1.0
C      1  0.5134590000000  0.4428700000000  0.4844520000000 1.0
C      1  0.5140920000000  0.5563940000000  0.5123500000000 1.0
C      1  0.4039340000000  0.5697560000000  0.4860560000000 1.0
C      1  0.4039560000000  0.4299500000000  0.5143210000000 1.0
C      1  0.4042030000000  0.5700210000000  0.5146100000000 1.0
C      1  0.4041650000000  0.4298570000000  0.4857780000000 1.0
C      1  0.4853550000000  0.4502650000000  0.6005690000000 1.0
C      1  0.4863170000000  0.5492710000000  0.4004400000000 1.0
C      1  0.4869820000000  0.4507740000000  0.4003990000000 1.0
C      1  0.4861300000000  0.5493740000000  0.6006430000000 1.0
C      1  0.4432450000000  0.5155220000000  0.4824460000000 1.0
C      1  0.4428870000000  0.4831560000000  0.5183680000000 1.0
C      1  0.4432140000000  0.5154560000000  0.5185960000000 1.0
C      1  0.4427480000000  0.4833010000000  0.4821520000000 1.0
C      1  0.5661460000000  0.4629520000000  0.4436530000000 1.0
C      1  0.5636140000000  0.5352540000000  0.5563590000000 1.0
C      1  0.5634210000000  0.4634370000000  0.5572350000000 1.0
C      1  0.5658220000000  0.5383840000000  0.4425660000000 1.0
C      1  0.4924850000000  0.3999940000000  0.4840150000000 1.0
C      1  0.4928280000000  0.5994290000000  0.5163500000000 1.0
C      1  0.4920190000000  0.4002910000000  0.5163440000000 1.0
C      1  0.4919410000000  0.6005430000000  0.4840480000000 1.0
C      1  0.4792050000000  0.4822020000000  0.6011500000000 1.0
C      1  0.4805100000000  0.5174360000000  0.4001370000000 1.0
C      1  0.4806370000000  0.4825350000000  0.4000420000000 1.0
C      1  0.4795190000000  0.5174990000000  0.6012850000000 1.0
END
