TITL C-862127-1500-8 -5.18950201333218e-06 125000 -756.035553933834 0 0 138 (C2) n - 1
REM
REM in /home/nfs/bkarasulu/CARBON/AIRSS/Generating-Clusters/TERSOFF/Higher-Symm/FIRE-HFTN
REM
REM
REM
REM
REM
REM ./C.cell (b20cbc046b6831c77cfcea5457e17084)
REM AIRSS Version 0.9.1 bugfix July 2018 build 013d7b7c2542+ Fri, 06 Jul 2018 19:26:36 +0100
REM compiler GCC version 9.2.1 20190827 (Red Hat 9.2.1-1)
REM options -cpp -mtune=generic -march=x86-64 -g -O0 -fpre-include=/usr/include/finclude/math-vector-fortran.h
REM seed 1349091996 -1213482144 982030087 1277528169 776424029 -1630055521 1840211161 1762433388 1361458101 914383164 2044315370 952969829 -832359933 -1580339721 1864671378 -1562924360 -1762472491 -550861374 -1755139077 1390686069 304980401 -1427465720 -852885039 -480550378 -1825891696 2107593622 1125479675 1647908788 993795782 54390578 167215426 -437934304 -1755921231
REM
CELL 1.54180   50.00000   50.00000   50.00000   90.00000   90.00000   90.00000
LATT -1
SFAC C  
C      1  0.4349610000000  0.5913240000000  0.4926650000000 1.0
C      1  0.5028210000000  0.5884000000000  0.4379830000000 1.0
C      1  0.5654580000000  0.5911320000000  0.5078580000000 1.0
C      1  0.4945160000000  0.5917940000000  0.5650370000000 1.0
C      1  0.5654570000000  0.4078450000000  0.4914340000000 1.0
C      1  0.4945150000000  0.4071840000000  0.4342540000000 1.0
C      1  0.4349590000000  0.4076560000000  0.5066250000000 1.0
C      1  0.5028180000000  0.4105780000000  0.5613080000000 1.0
C      1  0.4786390000000  0.5014140000000  0.5916270000000 1.0
C      1  0.4147600000000  0.4934650000000  0.4797040000000 1.0
C      1  0.5199020000000  0.4920470000000  0.4125200000000 1.0
C      1  0.5873970000000  0.4931840000000  0.5194950000000 1.0
C      1  0.5199010000000  0.5069310000000  0.5867710000000 1.0
C      1  0.5873970000000  0.5057920000000  0.4797980000000 1.0
C      1  0.4786410000000  0.4975640000000  0.4076640000000 1.0
C      1  0.4147590000000  0.5055150000000  0.5195850000000 1.0
C      1  0.4644460000000  0.5432840000000  0.5108250000000 1.0
C      1  0.4926080000000  0.5433020000000  0.4698070000000 1.0
C      1  0.5363310000000  0.5414090000000  0.4928430000000 1.0
C      1  0.5082670000000  0.5436580000000  0.5347210000000 1.0
C      1  0.5363300000000  0.4575690000000  0.5064490000000 1.0
C      1  0.5082670000000  0.4553200000000  0.4645700000000 1.0
C      1  0.4644450000000  0.4556950000000  0.4884660000000 1.0
C      1  0.4926070000000  0.4556770000000  0.5294840000000 1.0
C      1  0.4763880000000  0.5157560000000  0.5072180000000 1.0
C      1  0.4978850000000  0.5183210000000  0.4845750000000 1.0
C      1  0.5230710000000  0.5155020000000  0.5023980000000 1.0
C      1  0.5019010000000  0.5123980000000  0.5271460000000 1.0
C      1  0.5230710000000  0.4834760000000  0.4968940000000 1.0
C      1  0.5019010000000  0.4865810000000  0.4721450000000 1.0
C      1  0.4763880000000  0.4832230000000  0.4920730000000 1.0
C      1  0.4978850000000  0.4806570000000  0.5147160000000 1.0
C      1  0.5736450000000  0.5312780000000  0.5505810000000 1.0
C      1  0.4488230000000  0.5344060000000  0.5761580000000 1.0
C      1  0.4292450000000  0.5306510000000  0.4493140000000 1.0
C      1  0.5481250000000  0.5320260000000  0.4262240000000 1.0
C      1  0.4292440000000  0.4683290000000  0.5499760000000 1.0
C      1  0.5481230000000  0.4669510000000  0.5730680000000 1.0
C      1  0.5736450000000  0.4676990000000  0.4487120000000 1.0
C      1  0.4488230000000  0.4645730000000  0.4231320000000 1.0
C      1  0.4853480000000  0.5259160000000  0.3993540000000 1.0
C      1  0.6058540000000  0.5306760000000  0.4894680000000 1.0
C      1  0.5101640000000  0.5311860000000  0.6075220000000 1.0
C      1  0.3953190000000  0.5298870000000  0.5094890000000 1.0
C      1  0.5101650000000  0.4677920000000  0.3917690000000 1.0
C      1  0.3953180000000  0.4690930000000  0.4898010000000 1.0
C      1  0.4853460000000  0.4730630000000  0.5999370000000 1.0
C      1  0.6058530000000  0.4683000000000  0.5098250000000 1.0
C      1  0.6002200000000  0.4350120000000  0.4741590000000 1.0
C      1  0.5185900000000  0.4362790000000  0.5976410000000 1.0
C      1  0.4016810000000  0.4355450000000  0.5252330000000 1.0
C      1  0.4765050000000  0.4320990000000  0.3982920000000 1.0
C      1  0.4016820000000  0.5634350000000  0.4740570000000 1.0
C      1  0.4765040000000  0.5668790000000  0.6009990000000 1.0
C      1  0.6002200000000  0.5639650000000  0.5251340000000 1.0
C      1  0.5185920000000  0.5626990000000  0.4016500000000 1.0
C      1  0.4370030000000  0.4666430000000  0.4791210000000 1.0
C      1  0.5179630000000  0.4676300000000  0.4373880000000 1.0
C      1  0.5630670000000  0.4672830000000  0.5186790000000 1.0
C      1  0.4837280000000  0.4689230000000  0.5545900000000 1.0
C      1  0.5630680000000  0.5316940000000  0.4806130000000 1.0
C      1  0.4837290000000  0.5300560000000  0.4447010000000 1.0
C      1  0.4370030000000  0.5323370000000  0.5201690000000 1.0
C      1  0.5179620000000  0.5313480000000  0.5619030000000 1.0
C      1  0.5180650000000  0.5596990000000  0.4741730000000 1.0
C      1  0.5292280000000  0.5594250000000  0.5174760000000 1.0
C      1  0.4825490000000  0.5602790000000  0.5296170000000 1.0
C      1  0.4718120000000  0.5599670000000  0.4854580000000 1.0
C      1  0.4825480000000  0.4387000000000  0.4696730000000 1.0
C      1  0.4718100000000  0.4390120000000  0.5138330000000 1.0
C      1  0.5180630000000  0.4392790000000  0.5251190000000 1.0
C      1  0.5292270000000  0.4395530000000  0.4818150000000 1.0
C      1  0.4501720000000  0.4238010000000  0.5265320000000 1.0
C      1  0.4724880000000  0.4225090000000  0.4472290000000 1.0
C      1  0.5515240000000  0.4238870000000  0.4705130000000 1.0
C      1  0.5266270000000  0.4239170000000  0.5490320000000 1.0
C      1  0.5515240000000  0.5750910000000  0.5287790000000 1.0
C      1  0.5266290000000  0.5750610000000  0.4502590000000 1.0
C      1  0.4501730000000  0.5751780000000  0.4727590000000 1.0
C      1  0.4724890000000  0.5764700000000  0.5520620000000 1.0
C      1  0.4549560000000  0.4808540000000  0.4512010000000 1.0
C      1  0.5459970000000  0.4822890000000  0.4547640000000 1.0
C      1  0.5451680000000  0.4821150000000  0.5454740000000 1.0
C      1  0.4563870000000  0.4843030000000  0.5438240000000 1.0
C      1  0.5451690000000  0.5168620000000  0.4538170000000 1.0
C      1  0.4563880000000  0.5146760000000  0.4554660000000 1.0
C      1  0.4549550000000  0.5181250000000  0.5480890000000 1.0
C      1  0.5459970000000  0.5166880000000  0.5445280000000 1.0
C      1  0.5388780000000  0.4382220000000  0.5739960000000 1.0
C      1  0.4276080000000  0.4388570000000  0.5420640000000 1.0
C      1  0.4582120000000  0.4357620000000  0.4228520000000 1.0
C      1  0.5751650000000  0.4384330000000  0.4562840000000 1.0
C      1  0.4582110000000  0.5632170000000  0.5764390000000 1.0
C      1  0.5751660000000  0.5605440000000  0.5430090000000 1.0
C      1  0.5388800000000  0.5607550000000  0.4252960000000 1.0
C      1  0.4276100000000  0.5601220000000  0.4572260000000 1.0
C      1  0.4100180000000  0.4216980000000  0.4992230000000 1.0
C      1  0.5027120000000  0.4209100000000  0.4094360000000 1.0
C      1  0.5902750000000  0.4215280000000  0.4998330000000 1.0
C      1  0.4928990000000  0.4258920000000  0.5845810000000 1.0
C      1  0.5902770000000  0.5774480000000  0.4994590000000 1.0
C      1  0.4929020000000  0.5730860000000  0.4147100000000 1.0
C      1  0.4100190000000  0.5772820000000  0.5000670000000 1.0
C      1  0.5027120000000  0.5780680000000  0.5898550000000 1.0
C      1  0.4778570000000  0.4520290000000  0.5797020000000 1.0
C      1  0.4115620000000  0.4441820000000  0.4787720000000 1.0
C      1  0.5205820000000  0.4453800000000  0.4116640000000 1.0
C      1  0.5882430000000  0.4441270000000  0.5200750000000 1.0
C      1  0.5205810000000  0.5535980000000  0.5876270000000 1.0
C      1  0.5882440000000  0.5548500000000  0.4792180000000 1.0
C      1  0.4778590000000  0.5469500000000  0.4195890000000 1.0
C      1  0.4115630000000  0.5547980000000  0.5205170000000 1.0
C      1  0.4394100000000  0.5164990000000  0.4874930000000 1.0
C      1  0.5131860000000  0.5131550000000  0.4398560000000 1.0
C      1  0.5635800000000  0.5156520000000  0.5129500000000 1.0
C      1  0.4851130000000  0.5162940000000  0.5653010000000 1.0
C      1  0.5635800000000  0.4833250000000  0.4863420000000 1.0
C      1  0.4851140000000  0.4826840000000  0.4339900000000 1.0
C      1  0.4394090000000  0.4824810000000  0.5117970000000 1.0
C      1  0.5131850000000  0.4858230000000  0.5594350000000 1.0
C      1  0.5138920000000  0.4643700000000  0.6085040000000 1.0
C      1  0.3910070000000  0.4632770000000  0.5195880000000 1.0
C      1  0.4807540000000  0.4591890000000  0.3856070000000 1.0
C      1  0.6109850000000  0.4627390000000  0.4801600000000 1.0
C      1  0.4807530000000  0.5397900000000  0.6136830000000 1.0
C      1  0.6109850000000  0.5362380000000  0.5191330000000 1.0
C      1  0.5138940000000  0.5346080000000  0.3907870000000 1.0
C      1  0.3910080000000  0.5357040000000  0.4797010000000 1.0
C      1  0.5975640000000  0.5165670000000  0.5375650000000 1.0
C      1  0.4590220000000  0.5203780000000  0.6036790000000 1.0
C      1  0.4052030000000  0.5164080000000  0.4617820000000 1.0
C      1  0.5347950000000  0.5171060000000  0.4031430000000 1.0
C      1  0.4052020000000  0.4825720000000  0.5375070000000 1.0
C      1  0.5347930000000  0.4818720000000  0.5961490000000 1.0
C      1  0.5975650000000  0.4824090000000  0.4617280000000 1.0
C      1  0.4590240000000  0.4786010000000  0.3956110000000 1.0
C      1  0.5005340000000  0.4236440000000  0.4974700000000 1.0
C      1  0.5005350000000  0.5753350000000  0.5018210000000 1.0
END
