TITL C-862501-1041-423 0.528429292777999 125000 -1179.69678398005 0 0 198 (C3h) n - 1
REM
REM in /home/nfs/bkarasulu/CARBON/AIRSS/Generating-Clusters/TERSOFF/Higher-Symm/FIRE-HFTN
REM
REM
REM
REM
REM
REM ./C.cell (b20cbc046b6831c77cfcea5457e17084)
REM AIRSS Version 0.9.1 bugfix July 2018 build 013d7b7c2542+ Fri, 06 Jul 2018 19:26:36 +0100
REM compiler GCC version 9.2.1 20190827 (Red Hat 9.2.1-1)
REM options -cpp -mtune=generic -march=x86-64 -g -O0 -fpre-include=/usr/include/finclude/math-vector-fortran.h
REM seed -1590388797 -1327106148 84877508 1241665173 776101697 1623283013 -2135353761 1786848503 758347100 -1381729931 -1513866591 -392256437 1238648252 1661964156 1352453192 -1717249665 1191940497 -2090655753 -1407057857 1052010214 64385285 -1384514195 -548355633 1318350483 -1291108491 607493557 1396031705 1233779458 504836921 -1867191391 2050072908 1791323339 538026116
REM
CELL 1.54180   50.00000   50.00000   50.00000   90.00000   90.00000   90.00000
LATT -1
SFAC C  
C      1  0.3893160000000  0.5170090000000  0.4813670000000 1.0
C      1  0.3893160000000  0.4753590000000  0.4945860000000 1.0
C      1  0.3893160000000  0.5076320000000  0.5240460000000 1.0
C      1  0.6106840000000  0.5170090000000  0.4813670000000 1.0
C      1  0.6106840000000  0.4753590000000  0.4945860000000 1.0
C      1  0.6106840000000  0.5076320000000  0.5240460000000 1.0
C      1  0.4841140000000  0.5721280000000  0.6146540000000 1.0
C      1  0.4841140000000  0.5632290000000  0.3802080000000 1.0
C      1  0.4841140000000  0.3646420000000  0.5051380000000 1.0
C      1  0.5158860000000  0.5721280000000  0.6146540000000 1.0
C      1  0.5158860000000  0.5632290000000  0.3802080000000 1.0
C      1  0.5158860000000  0.3646420000000  0.5051380000000 1.0
C      1  0.5774580000000  0.4652530000000  0.5214960000000 1.0
C      1  0.5774580000000  0.5359900000000  0.5193440000000 1.0
C      1  0.5774580000000  0.4987580000000  0.4591600000000 1.0
C      1  0.4225420000000  0.4652530000000  0.5214960000000 1.0
C      1  0.4225420000000  0.5359900000000  0.5193440000000 1.0
C      1  0.4225420000000  0.4987580000000  0.4591600000000 1.0
C      1  0.5154290000000  0.6047110000000  0.5736240000000 1.0
C      1  0.5154290000000  0.5114050000000  0.3725060000000 1.0
C      1  0.5154290000000  0.3838840000000  0.5538700000000 1.0
C      1  0.4845710000000  0.6047110000000  0.5736240000000 1.0
C      1  0.4845710000000  0.5114050000000  0.3725060000000 1.0
C      1  0.4845710000000  0.3838840000000  0.5538700000000 1.0
C      1  0.4852700000000  0.6075990000000  0.5229760000000 1.0
C      1  0.4852700000000  0.4660980000000  0.3953280000000 1.0
C      1  0.4852700000000  0.4263020000000  0.5816960000000 1.0
C      1  0.5147300000000  0.6075990000000  0.5229760000000 1.0
C      1  0.5147300000000  0.4660980000000  0.3953280000000 1.0
C      1  0.5147300000000  0.4263020000000  0.5816960000000 1.0
C      1  0.5633230000000  0.4172420000000  0.5626780000000 1.0
C      1  0.5633230000000  0.5956600000000  0.5403310000000 1.0
C      1  0.5633230000000  0.4870980000000  0.3969910000000 1.0
C      1  0.4366770000000  0.4172420000000  0.5626780000000 1.0
C      1  0.4366770000000  0.5956600000000  0.5403310000000 1.0
C      1  0.4366770000000  0.4870980000000  0.3969910000000 1.0
C      1  0.4735210000000  0.3655130000000  0.5332380000000 1.0
C      1  0.4735210000000  0.5960290000000  0.5998500000000 1.0
C      1  0.4735210000000  0.5384590000000  0.3669120000000 1.0
C      1  0.5264790000000  0.3655130000000  0.5332380000000 1.0
C      1  0.5264790000000  0.5960290000000  0.5998500000000 1.0
C      1  0.5264790000000  0.5384590000000  0.3669120000000 1.0
C      1  0.4198380000000  0.5244650000000  0.4922310000000 1.0
C      1  0.4198380000000  0.4810390000000  0.4826970000000 1.0
C      1  0.4198380000000  0.4944960000000  0.5250720000000 1.0
C      1  0.5801620000000  0.5244650000000  0.4922310000000 1.0
C      1  0.5801620000000  0.4810390000000  0.4826970000000 1.0
C      1  0.5801620000000  0.4944960000000  0.5250720000000 1.0
C      1  0.4693510000000  0.5965390000000  0.5469710000000 1.0
C      1  0.4693510000000  0.4924090000000  0.3929100000000 1.0
C      1  0.4693510000000  0.4110530000000  0.5601190000000 1.0
C      1  0.5306490000000  0.5965390000000  0.5469710000000 1.0
C      1  0.5306490000000  0.4924090000000  0.3929100000000 1.0
C      1  0.5306490000000  0.4110530000000  0.5601190000000 1.0
C      1  0.4450100000000  0.4543860000000  0.5980320000000 1.0
C      1  0.4450100000000  0.6077050000000  0.4904870000000 1.0
C      1  0.4450100000000  0.4379090000000  0.4114810000000 1.0
C      1  0.5549900000000  0.4543860000000  0.5980320000000 1.0
C      1  0.5549900000000  0.6077050000000  0.4904870000000 1.0
C      1  0.5549900000000  0.4379090000000  0.4114810000000 1.0
C      1  0.5347720000000  0.4512670000000  0.4605620000000 1.0
C      1  0.5347720000000  0.4902120000000  0.5619230000000 1.0
C      1  0.5347720000000  0.5585210000000  0.4775150000000 1.0
C      1  0.4652280000000  0.4512670000000  0.4605620000000 1.0
C      1  0.4652280000000  0.4902120000000  0.5619230000000 1.0
C      1  0.4652280000000  0.5585210000000  0.4775150000000 1.0
C      1  0.4448550000000  0.4307580000000  0.4409150000000 1.0
C      1  0.4448550000000  0.4834520000000  0.5895080000000 1.0
C      1  0.4448550000000  0.5857900000000  0.4695770000000 1.0
C      1  0.5551450000000  0.4307580000000  0.4409150000000 1.0
C      1  0.5551450000000  0.4834520000000  0.5895080000000 1.0
C      1  0.5551450000000  0.5857900000000  0.4695770000000 1.0
C      1  0.3724930000000  0.4686860000000  0.4701880000000 1.0
C      1  0.3724930000000  0.4898390000000  0.5420240000000 1.0
C      1  0.3724930000000  0.5414750000000  0.4877880000000 1.0
C      1  0.6275070000000  0.4686860000000  0.4701880000000 1.0
C      1  0.6275070000000  0.4898390000000  0.5420240000000 1.0
C      1  0.6275070000000  0.5414750000000  0.4877880000000 1.0
C      1  0.5284130000000  0.5252630000000  0.5258940000000 1.0
C      1  0.5284130000000  0.5097930000000  0.4651750000000 1.0
C      1  0.5284130000000  0.4649440000000  0.5089310000000 1.0
C      1  0.4715870000000  0.5252630000000  0.5258940000000 1.0
C      1  0.4715870000000  0.5097930000000  0.4651750000000 1.0
C      1  0.4715870000000  0.4649440000000  0.5089310000000 1.0
C      1  0.5548310000000  0.5328540000000  0.5359540000000 1.0
C      1  0.5548310000000  0.5147100000000  0.4535700000000 1.0
C      1  0.5548310000000  0.4524350000000  0.5104750000000 1.0
C      1  0.4451690000000  0.5328540000000  0.5359540000000 1.0
C      1  0.4451690000000  0.5147100000000  0.4535700000000 1.0
C      1  0.4451690000000  0.4524350000000  0.5104750000000 1.0
C      1  0.5980210000000  0.4968650000000  0.4359350000000 1.0
C      1  0.5980210000000  0.4460860000000  0.5347480000000 1.0
C      1  0.5980210000000  0.5570490000000  0.5293170000000 1.0
C      1  0.4019790000000  0.4968650000000  0.4359350000000 1.0
C      1  0.4019790000000  0.4460860000000  0.5347480000000 1.0
C      1  0.4019790000000  0.5570490000000  0.5293170000000 1.0
C      1  0.5776340000000  0.4212780000000  0.5364270000000 1.0
C      1  0.5776340000000  0.5709070000000  0.5499620000000 1.0
C      1  0.5776340000000  0.5078140000000  0.4136120000000 1.0
C      1  0.4223660000000  0.4212780000000  0.5364270000000 1.0
C      1  0.4223660000000  0.5709070000000  0.5499620000000 1.0
C      1  0.4223660000000  0.5078140000000  0.4136120000000 1.0
C      1  0.4850190000000  0.4951820000000  0.5870280000000 1.0
C      1  0.4850190000000  0.5777770000000  0.4606590000000 1.0
C      1  0.4850190000000  0.4270410000000  0.4523140000000 1.0
C      1  0.5149810000000  0.4951820000000  0.5870280000000 1.0
C      1  0.5149810000000  0.5777770000000  0.4606590000000 1.0
C      1  0.5149810000000  0.4270410000000  0.4523140000000 1.0
C      1  0.5688130000000  0.4968820000000  0.5521670000000 1.0
C      1  0.5688130000000  0.5467370000000  0.4766170000000 1.0
C      1  0.5688130000000  0.4563810000000  0.4712160000000 1.0
C      1  0.4311870000000  0.4968820000000  0.5521670000000 1.0
C      1  0.4311870000000  0.5467370000000  0.4766170000000 1.0
C      1  0.4311870000000  0.4563810000000  0.4712160000000 1.0
C      1  0.5156540000000  0.5326470000000  0.4788570000000 1.0
C      1  0.5156540000000  0.4653660000000  0.4822980000000 1.0
C      1  0.5156540000000  0.5019870000000  0.5388450000000 1.0
C      1  0.4843460000000  0.5326470000000  0.4788570000000 1.0
C      1  0.4843460000000  0.4653660000000  0.4822980000000 1.0
C      1  0.4843460000000  0.5019870000000  0.5388450000000 1.0
C      1  0.5287490000000  0.4422630000000  0.6020260000000 1.0
C      1  0.5287490000000  0.6172250000000  0.4989880000000 1.0
C      1  0.5287490000000  0.4405110000000  0.3989860000000 1.0
C      1  0.4712510000000  0.4422630000000  0.6020260000000 1.0
C      1  0.4712510000000  0.6172250000000  0.4989880000000 1.0
C      1  0.4712510000000  0.4405110000000  0.3989860000000 1.0
C      1  0.5879870000000  0.5033450000000  0.5725770000000 1.0
C      1  0.5879870000000  0.5611810000000  0.4608140000000 1.0
C      1  0.5879870000000  0.4354740000000  0.4666080000000 1.0
C      1  0.4120130000000  0.5033450000000  0.5725770000000 1.0
C      1  0.4120130000000  0.5611810000000  0.4608140000000 1.0
C      1  0.4120130000000  0.4354740000000  0.4666080000000 1.0
C      1  0.6158390000000  0.4939460000000  0.5695020000000 1.0
C      1  0.6158390000000  0.5632170000000  0.4704920000000 1.0
C      1  0.6158390000000  0.4428360000000  0.4600060000000 1.0
C      1  0.3841610000000  0.4939460000000  0.5695020000000 1.0
C      1  0.3841610000000  0.5632170000000  0.4704920000000 1.0
C      1  0.3841610000000  0.4428360000000  0.4600060000000 1.0
C      1  0.5722440000000  0.5121170000000  0.5968760000000 1.0
C      1  0.5722440000000  0.5778390000000  0.4410680000000 1.0
C      1  0.5722440000000  0.4100440000000  0.4620560000000 1.0
C      1  0.4277560000000  0.5121170000000  0.5968760000000 1.0
C      1  0.4277560000000  0.5778390000000  0.4410680000000 1.0
C      1  0.4277560000000  0.4100440000000  0.4620560000000 1.0
C      1  0.5287100000000  0.5655410000000  0.5518590000000 1.0
C      1  0.5287100000000  0.5121400000000  0.4173100000000 1.0
C      1  0.5287100000000  0.4223180000000  0.5308310000000 1.0
C      1  0.4712900000000  0.5655410000000  0.5518590000000 1.0
C      1  0.4712900000000  0.5121400000000  0.4173100000000 1.0
C      1  0.4712900000000  0.4223180000000  0.5308310000000 1.0
C      1  0.4276050000000  0.4347510000000  0.5848560000000 1.0
C      1  0.4276050000000  0.6061120000000  0.5140800000000 1.0
C      1  0.4276050000000  0.4591380000000  0.4010650000000 1.0
C      1  0.5723950000000  0.4347510000000  0.5848560000000 1.0
C      1  0.5723950000000  0.6061120000000  0.5140800000000 1.0
C      1  0.5723950000000  0.4591380000000  0.4010650000000 1.0
C      1  0.6193620000000  0.4967700000000  0.4593270000000 1.0
C      1  0.6193620000000  0.4663910000000  0.5231340000000 1.0
C      1  0.6193620000000  0.5368390000000  0.5175390000000 1.0
C      1  0.3806380000000  0.4967700000000  0.4593270000000 1.0
C      1  0.3806380000000  0.4663910000000  0.5231340000000 1.0
C      1  0.3806380000000  0.5368390000000  0.5175390000000 1.0
C      1  0.5568700000000  0.4028170000000  0.4893690000000 1.0
C      1  0.5568700000000  0.5393850000000  0.5894780000000 1.0
C      1  0.5568700000000  0.5577980000000  0.4211530000000 1.0
C      1  0.4431300000000  0.4028170000000  0.4893690000000 1.0
C      1  0.4431300000000  0.5393850000000  0.5894780000000 1.0
C      1  0.4431300000000  0.5577980000000  0.4211530000000 1.0
C      1  0.5140410000000  0.5375790000000  0.4133590000000 1.0
C      1  0.5140410000000  0.4061770000000  0.5107760000000 1.0
C      1  0.5140410000000  0.5562440000000  0.5758640000000 1.0
C      1  0.4859590000000  0.5375790000000  0.4133590000000 1.0
C      1  0.4859590000000  0.4061770000000  0.5107760000000 1.0
C      1  0.4859590000000  0.5562440000000  0.5758640000000 1.0
C      1  0.5289920000000  0.5652190000000  0.4107600000000 1.0
C      1  0.5289920000000  0.3901060000000  0.4881390000000 1.0
C      1  0.5289920000000  0.5446750000000  0.6011010000000 1.0
C      1  0.4710080000000  0.5652190000000  0.4107600000000 1.0
C      1  0.4710080000000  0.3901060000000  0.4881390000000 1.0
C      1  0.4710080000000  0.5446750000000  0.6011010000000 1.0
C      1  0.4840850000000  0.5192620000000  0.6082230000000 1.0
C      1  0.4840850000000  0.5840920000000  0.4292070000000 1.0
C      1  0.4840850000000  0.3966450000000  0.4625700000000 1.0
C      1  0.5159150000000  0.5192620000000  0.6082230000000 1.0
C      1  0.5159150000000  0.5840920000000  0.4292070000000 1.0
C      1  0.5159150000000  0.3966450000000  0.4625700000000 1.0
C      1  0.4434000000000  0.5510920000000  0.5603310000000 1.0
C      1  0.4434000000000  0.5267030000000  0.4255880000000 1.0
C      1  0.4434000000000  0.4222060000000  0.5140810000000 1.0
C      1  0.5566000000000  0.5510920000000  0.5603310000000 1.0
C      1  0.5566000000000  0.5267030000000  0.4255880000000 1.0
C      1  0.5566000000000  0.4222060000000  0.5140810000000 1.0
C      1  0.5144380000000  0.4490600000000  0.5292190000000 1.0
C      1  0.5144380000000  0.5507740000000  0.5295060000000 1.0
C      1  0.5144380000000  0.5001650000000  0.4412760000000 1.0
C      1  0.4855620000000  0.4490600000000  0.5292190000000 1.0
C      1  0.4855620000000  0.5507740000000  0.5295060000000 1.0
C      1  0.4855620000000  0.5001650000000  0.4412760000000 1.0
END
