TITL C-862133-5440-1320 0.130228904377137 125000 -331.625336616926 0 0 56 (C2) n - 1
REM
REM in /home/nfs/bkarasulu/CARBON/AIRSS/Generating-Clusters/TERSOFF/Higher-Symm/FIRE-HFTN
REM
REM
REM
REM
REM
REM ./C.cell (b20cbc046b6831c77cfcea5457e17084)
REM AIRSS Version 0.9.1 bugfix July 2018 build 013d7b7c2542+ Fri, 06 Jul 2018 19:26:36 +0100
REM compiler GCC version 9.2.1 20190827 (Red Hat 9.2.1-1)
REM options -cpp -mtune=generic -march=x86-64 -g -O0 -fpre-include=/usr/include/finclude/math-vector-fortran.h
REM seed -1485397937 -884941754 -984876101 2116739677 -704950644 -54948326 -618608680 1292234910 118571175 -1292815275 1976209161 384673049 612155561 -129043521 -280987312 -20347896 -994311953 -1990254357 166200611 -2093156273 -1259722098 1306917781 -360527857 -1736677205 1371787075 -2103583068 -1251618830 1307272312 -1059533047 -1201198743 -1177658306 -1242945152 -2046110706
REM
CELL 1.54180   50.00000   50.00000   50.00000   90.00000   90.00000   90.00000
LATT -1
SFAC C  
C      1  0.4497400000000  0.4815760000000  0.5590480000000 1.0
C      1  0.5502600000000  0.4815760000000  0.4409520000000 1.0
C      1  0.4579490000000  0.4556060000000  0.4521460000000 1.0
C      1  0.5420510000000  0.4556060000000  0.5478540000000 1.0
C      1  0.4400180000000  0.5382960000000  0.5223570000000 1.0
C      1  0.5599820000000  0.5382960000000  0.4776430000000 1.0
C      1  0.5272920000000  0.5279660000000  0.4378690000000 1.0
C      1  0.4727080000000  0.5279660000000  0.5621310000000 1.0
C      1  0.4478600000000  0.4354320000000  0.4701930000000 1.0
C      1  0.5521390000000  0.4354320000000  0.5298070000000 1.0
C      1  0.5188550000000  0.5655100000000  0.4763200000000 1.0
C      1  0.4811450000000  0.5655100000000  0.5236800000000 1.0
C      1  0.4980000000000  0.4595430000000  0.4857430000000 1.0
C      1  0.5019990000000  0.4595430000000  0.5142570000000 1.0
C      1  0.4755630000000  0.5277340000000  0.4415120000000 1.0
C      1  0.5244370000000  0.5277340000000  0.5584880000000 1.0
C      1  0.4894400000000  0.4841280000000  0.4718750000000 1.0
C      1  0.5105600000000  0.4841280000000  0.5281250000000 1.0
C      1  0.5370590000000  0.5456800000000  0.4601660000000 1.0
C      1  0.4629410000000  0.5456800000000  0.5398340000000 1.0
C      1  0.5297690000000  0.5670520000000  0.5041170000000 1.0
C      1  0.4702310000000  0.5670520000000  0.4958830000000 1.0
C      1  0.4391810000000  0.5307260000000  0.4731850000000 1.0
C      1  0.5608190000000  0.5307260000000  0.5268150000000 1.0
C      1  0.5629540000000  0.4639780000000  0.4878990000000 1.0
C      1  0.4370460000000  0.4639780000000  0.5121010000000 1.0
C      1  0.5146230000000  0.4548370000000  0.5619500000000 1.0
C      1  0.4853770000000  0.4548370000000  0.4380500000000 1.0
C      1  0.5135030000000  0.5335950000000  0.5327410000000 1.0
C      1  0.4864970000000  0.5335950000000  0.4672590000000 1.0
C      1  0.5416490000000  0.4853940000000  0.5400270000000 1.0
C      1  0.4583510000000  0.4853940000000  0.4599730000000 1.0
C      1  0.5279550000000  0.5002110000000  0.5649570000000 1.0
C      1  0.4720450000000  0.5002110000000  0.4350430000000 1.0
C      1  0.5033580000000  0.4352910000000  0.4705860000000 1.0
C      1  0.4966420000000  0.4352910000000  0.5294140000000 1.0
C      1  0.4325980000000  0.4409990000000  0.4943800000000 1.0
C      1  0.5674020000000  0.4409990000000  0.5056200000000 1.0
C      1  0.4447140000000  0.5497160000000  0.4952970000000 1.0
C      1  0.5552860000000  0.5497160000000  0.5047030000000 1.0
C      1  0.4949690000000  0.5104720000000  0.4851360000000 1.0
C      1  0.5050310000000  0.5104720000000  0.5148640000000 1.0
C      1  0.4276230000000  0.5120530000000  0.5236770000000 1.0
C      1  0.5723770000000  0.5120530000000  0.4763230000000 1.0
C      1  0.5099530000000  0.5602630000000  0.5248810000000 1.0
C      1  0.4900470000000  0.5602630000000  0.4751190000000 1.0
C      1  0.5009610000000  0.4838310000000  0.5597000000000 1.0
C      1  0.4990390000000  0.4838310000000  0.4403000000000 1.0
C      1  0.5540950000000  0.4601030000000  0.4603700000000 1.0
C      1  0.4459050000000  0.4601030000000  0.5396300000000 1.0
C      1  0.4316290000000  0.4913890000000  0.5033610000000 1.0
C      1  0.5683710000000  0.4913890000000  0.4966390000000 1.0
C      1  0.4392810000000  0.5010020000000  0.4764460000000 1.0
C      1  0.5607190000000  0.5010020000000  0.5235540000000 1.0
C      1  0.4740310000000  0.4976160000000  0.5615790000000 1.0
C      1  0.5259690000000  0.4976160000000  0.4384210000000 1.0
END
