TITL C-862127-1500-778 -0.000660451586645013 125000 -430.086212171558 0 0 73 (C3) n - 1
REM
REM in /home/nfs/bkarasulu/CARBON/AIRSS/Generating-Clusters/TERSOFF/Higher-Symm/FIRE-HFTN
REM
REM
REM
REM
REM
REM ./C.cell (b20cbc046b6831c77cfcea5457e17084)
REM AIRSS Version 0.9.1 bugfix July 2018 build 013d7b7c2542+ Fri, 06 Jul 2018 19:26:36 +0100
REM compiler GCC version 9.2.1 20190827 (Red Hat 9.2.1-1)
REM options -cpp -mtune=generic -march=x86-64 -g -O0 -fpre-include=/usr/include/finclude/math-vector-fortran.h
REM seed -1672084429 -1180919624 36110296 1246513096 2122097998 -993688624 -387749360 1203818347 -1631345284 -1651407088 935022104 -1761848572 -1964989321 -897650070 899384575 675167436 1239502676 1647084 -765691479 2127262133 1803834357 -963900932 1181816793 1814172566 -975955906 -1342170535 -1008167036 1173998394 460417906 377185288 -2010980226 -1072237624 146921385
REM
CELL 1.54180   50.00000   50.00000   50.00000   90.00000   90.00000   90.00000
LATT -1
SFAC C  
C      1  0.5424140000000  0.4563550000000  0.5313290000000 1.0
C      1  0.5424140000000  0.4946400000000  0.4469310000000 1.0
C      1  0.5424140000000  0.5485880000000  0.5222860000000 1.0
C      1  0.4683570000000  0.5273180000000  0.4435480000000 1.0
C      1  0.4683570000000  0.5351780000000  0.5522770000000 1.0
C      1  0.4683570000000  0.4370860000000  0.5047200000000 1.0
C      1  0.5467520000000  0.5147840000000  0.5614150000000 1.0
C      1  0.5467520000000  0.4393700000000  0.4824890000000 1.0
C      1  0.5467520000000  0.5454290000000  0.4566420000000 1.0
C      1  0.4949990000000  0.4034110000000  0.4776710000000 1.0
C      1  0.4949990000000  0.5675810000000  0.4279100000000 1.0
C      1  0.4949990000000  0.5285900000000  0.5949650000000 1.0
C      1  0.5056090000000  0.4729010000000  0.4182120000000 1.0
C      1  0.5056090000000  0.5843290000000  0.5178190000000 1.0
C      1  0.5056090000000  0.4423530000000  0.5645150000000 1.0
C      1  0.4714780000000  0.5513930000000  0.4278570000000 1.0
C      1  0.4714780000000  0.5367300000000  0.5809720000000 1.0
C      1  0.4714780000000  0.4114600000000  0.4917160000000 1.0
C      1  0.4145630000000  0.5079960000000  0.4734670000000 1.0
C      1  0.4145630000000  0.5189290000000  0.5205850000000 1.0
C      1  0.4145630000000  0.4726570000000  0.5064940000000 1.0
C      1  0.5588730000000  0.5323470000000  0.5040100000000 1.0
C      1  0.5588730000000  0.4803030000000  0.5264020000000 1.0
C      1  0.5588730000000  0.4869330000000  0.4701340000000 1.0
C      1  0.4625400000000  0.4629430000000  0.5478420000000 1.0
C      1  0.4625400000000  0.4770450000000  0.4443800000000 1.0
C      1  0.4625400000000  0.5595950000000  0.5083230000000 1.0
C      1  0.5327090000000  0.4297460000000  0.4571200000000 1.0
C      1  0.5327090000000  0.5722110000000  0.4609920000000 1.0
C      1  0.5327090000000  0.4976250000000  0.5824340000000 1.0
C      1  0.5327640000000  0.4520460000000  0.5596230000000 1.0
C      1  0.5327640000000  0.4722910000000  0.4290520000000 1.0
C      1  0.5327640000000  0.5752460000000  0.5118700000000 1.0
C      1  0.4861950000000  0.4304430000000  0.4382290000000 1.0
C      1  0.4861950000000  0.5882220000000  0.4710410000000 1.0
C      1  0.4861950000000  0.4809170000000  0.5912750000000 1.0
C      1  0.4690410000000  0.4374140000000  0.5330730000000 1.0
C      1  0.4690410000000  0.5025990000000  0.4296550000000 1.0
C      1  0.4690410000000  0.5595690000000  0.5378170000000 1.0
C      1  0.5055990000000  0.4187820000000  0.4560920000000 1.0
C      1  0.5055990000000  0.5785830000000  0.4520100000000 1.0
C      1  0.5055980000000  0.5022170000000  0.5924430000000 1.0
C      1  0.4841180000000  0.5790000000000  0.4979460000000 1.0
C      1  0.4841180000000  0.4622280000000  0.5698360000000 1.0
C      1  0.4841180000000  0.4583550000000  0.4327640000000 1.0
C      1  0.4973070000000  0.5133510000000  0.4844090000000 1.0
C      1  0.4973070000000  0.5067750000000  0.5197510000000 1.0
C      1  0.4973070000000  0.4794560000000  0.4963850000000 1.0
C      1  0.5354640000000  0.4381270000000  0.5094410000000 1.0
C      1  0.5354640000000  0.5227100000000  0.4420890000000 1.0
C      1  0.5354640000000  0.5387460000000  0.5490160000000 1.0
C      1  0.5457180000000  0.4697920000000  0.5801900000000 1.0
C      1  0.5457180000000  0.4456060000000  0.4341370000000 1.0
C      1  0.5457180000000  0.5841840000000  0.4862190000000 1.0
C      1  0.5737940000000  0.5727170000000  0.4834490000000 1.0
C      1  0.5737940000000  0.4779240000000  0.5716430000000 1.0
C      1  0.5737940000000  0.4489420000000  0.4454530000000 1.0
C      1  0.4529530000000  0.5349470000000  0.4931060000000 1.0
C      1  0.4529530000000  0.4884460000000  0.5341050000000 1.0
C      1  0.4529530000000  0.4761900000000  0.4733350000000 1.0
C      1  0.4224320000000  0.4798960000000  0.4788960000000 1.0
C      1  0.4224320000000  0.5282770000000  0.4935350000000 1.0
C      1  0.4224320000000  0.4914090000000  0.5281140000000 1.0
C      1  0.5685320000000  0.4591550000000  0.4737610000000 1.0
C      1  0.5685320000000  0.5430950000000  0.4781400000000 1.0
C      1  0.5685320000000  0.4973320000000  0.5486450000000 1.0
C      1  0.4918950000000  0.4980730000000  0.4114360000000 1.0
C      1  0.4918950000000  0.5776110000000  0.5430070000000 1.0
C      1  0.4918950000000  0.4238980000000  0.5461030000000 1.0
C      1  0.4738590000000  0.4622310000000  0.4905790000000 1.0
C      1  0.4738590000000  0.5269920000000  0.4723950000000 1.0
C      1  0.4738590000000  0.5103590000000  0.5375720000000 1.0
C      1  0.4570480000000  0.4998610000000  0.5001820000000 1.0
END
