TITL C-862131-2149-638 -1.10881520893105e-05 125000 -874.144319752913 0 0 170 (D3) n - 1
REM
REM in /home/nfs/bkarasulu/CARBON/AIRSS/Generating-Clusters/TERSOFF/Higher-Symm/FIRE-HFTN
REM
REM
REM
REM
REM
REM ./C.cell (b20cbc046b6831c77cfcea5457e17084)
REM AIRSS Version 0.9.1 bugfix July 2018 build 013d7b7c2542+ Fri, 06 Jul 2018 19:26:36 +0100
REM compiler GCC version 9.2.1 20190827 (Red Hat 9.2.1-1)
REM options -cpp -mtune=generic -march=x86-64 -g -O0 -fpre-include=/usr/include/finclude/math-vector-fortran.h
REM seed 775607230 450959294 1013852078 -1332713676 1475131473 -866386773 600929597 1790431844 -247630148 -1666114929 688050370 -462385492 -1322729768 -166631949 1816046437 -257941649 -1390716663 -1193832925 -1581330782 -1342955740 1443442343 -188601984 -650001894 -2130851886 270508609 -962655269 400006357 -381678405 344509401 1769271509 -1891371798 1196480048 547559253
REM
CELL 1.54180   50.00000   50.00000   50.00000   90.00000   90.00000   90.00000
LATT -1
SFAC C  
C      1  0.4848090000000  0.4735890000000  0.4029340000000 1.0
C      1  0.5157420000000  0.4728540000000  0.3983760000000 1.0
C      1  0.5301720000000  0.5002300000000  0.4029340000000 1.0
C      1  0.5153420000000  0.5273860000000  0.3983760000000 1.0
C      1  0.4844190000000  0.5261960000000  0.4029340000000 1.0
C      1  0.4683160000000  0.4997740000000  0.3983760000000 1.0
C      1  0.5147910000000  0.4735880000000  0.5975080000000 1.0
C      1  0.4838580000000  0.4728540000000  0.6020660000000 1.0
C      1  0.4694270000000  0.5002290000000  0.5975080000000 1.0
C      1  0.4842580000000  0.5273860000000  0.6020660000000 1.0
C      1  0.5151810000000  0.5261950000000  0.5975080000000 1.0
C      1  0.5312840000000  0.4997730000000  0.6020660000000 1.0
C      1  0.4404390000000  0.4093560000000  0.4689520000000 1.0
C      1  0.5505080000000  0.4012750000000  0.4705050000000 1.0
C      1  0.6079850000000  0.4939210000000  0.4689520000000 1.0
C      1  0.5599480000000  0.5932830000000  0.4705060000000 1.0
C      1  0.4509760000000  0.5967370000000  0.4689530000000 1.0
C      1  0.3889440000000  0.5054550000000  0.4705050000000 1.0
C      1  0.5591610000000  0.4093550000000  0.5314900000000 1.0
C      1  0.4490920000000  0.4012750000000  0.5299370000000 1.0
C      1  0.3916150000000  0.4939210000000  0.5314900000000 1.0
C      1  0.4396520000000  0.5932830000000  0.5299370000000 1.0
C      1  0.5486240000000  0.5967370000000  0.5314900000000 1.0
C      1  0.6106560000000  0.5054550000000  0.5299370000000 1.0
C      1  0.5159550000000  0.5260360000000  0.5223800000000 1.0
C      1  0.4851630000000  0.5270160000000  0.5236580000000 1.0
C      1  0.4691780000000  0.5009790000000  0.5223800000000 1.0
C      1  0.4837250000000  0.4738230000000  0.5236580000000 1.0
C      1  0.5142670000000  0.4729980000000  0.5223800000000 1.0
C      1  0.5305110000000  0.4991740000000  0.5236580000000 1.0
C      1  0.4836450000000  0.5260360000000  0.4780620000000 1.0
C      1  0.5144360000000  0.5270160000000  0.4767840000000 1.0
C      1  0.5304220000000  0.5009790000000  0.4780620000000 1.0
C      1  0.5158740000000  0.4738230000000  0.4767840000000 1.0
C      1  0.4853330000000  0.4729980000000  0.4780620000000 1.0
C      1  0.4690890000000  0.4991740000000  0.4767840000000 1.0
C      1  0.5194230000000  0.4666530000000  0.4314660000000 1.0
C      1  0.5324700000000  0.5002770000000  0.4361740000000 1.0
C      1  0.5188720000000  0.5336740000000  0.4314670000000 1.0
C      1  0.4832300000000  0.5281610000000  0.4361740000000 1.0
C      1  0.4611050000000  0.4996870000000  0.4314660000000 1.0
C      1  0.4837010000000  0.4715760000000  0.4361740000000 1.0
C      1  0.4801770000000  0.4666520000000  0.5689760000000 1.0
C      1  0.4671300000000  0.5002760000000  0.5642680000000 1.0
C      1  0.4807270000000  0.5336740000000  0.5689760000000 1.0
C      1  0.5163700000000  0.5281610000000  0.5642680000000 1.0
C      1  0.5384950000000  0.4996870000000  0.5689760000000 1.0
C      1  0.5158990000000  0.4715760000000  0.5642680000000 1.0
C      1  0.5712020000000  0.5728130000000  0.4907140000000 1.0
C      1  0.4723130000000  0.5941600000000  0.4908740000000 1.0
C      1  0.4010450000000  0.5254360000000  0.4907140000000 1.0
C      1  0.4320020000000  0.4291220000000  0.4908730000000 1.0
C      1  0.5271530000000  0.4017640000000  0.4907130000000 1.0
C      1  0.5950850000000  0.4767310000000  0.4908740000000 1.0
C      1  0.4283980000000  0.5728130000000  0.5097290000000 1.0
C      1  0.5272870000000  0.5941600000000  0.5095690000000 1.0
C      1  0.5985550000000  0.5254360000000  0.5097290000000 1.0
C      1  0.5675980000000  0.4291220000000  0.5095680000000 1.0
C      1  0.4724470000000  0.4017640000000  0.5097280000000 1.0
C      1  0.4045150000000  0.4767310000000  0.5095680000000 1.0
C      1  0.4783050000000  0.3934610000000  0.4774540000000 1.0
C      1  0.5799790000000  0.4296710000000  0.4796670000000 1.0
C      1  0.6028170000000  0.5346610000000  0.4774550000000 1.0
C      1  0.5206210000000  0.6046090000000  0.4796670000000 1.0
C      1  0.4182780000000  0.5718920000000  0.4774550000000 1.0
C      1  0.3988000000000  0.4657340000000  0.4796670000000 1.0
C      1  0.5212950000000  0.3934610000000  0.5229870000000 1.0
C      1  0.4196210000000  0.4296710000000  0.5207750000000 1.0
C      1  0.3967830000000  0.5346610000000  0.5229880000000 1.0
C      1  0.4789790000000  0.6046090000000  0.5207760000000 1.0
C      1  0.5813220000000  0.5718920000000  0.5229880000000 1.0
C      1  0.6008000000000  0.4657340000000  0.5207750000000 1.0
C      1  0.5156910000000  0.4081240000000  0.4213200000000 1.0
C      1  0.5860260000000  0.4670380000000  0.4226730000000 1.0
C      1  0.5714250000000  0.5597070000000  0.4213210000000 1.0
C      1  0.4852360000000  0.5911620000000  0.4226730000000 1.0
C      1  0.4122830000000  0.5321830000000  0.4213200000000 1.0
C      1  0.4281370000000  0.4418140000000  0.4226730000000 1.0
C      1  0.4839090000000  0.4081240000000  0.5791220000000 1.0
C      1  0.4135740000000  0.4670380000000  0.5777690000000 1.0
C      1  0.4281750000000  0.5597070000000  0.5791220000000 1.0
C      1  0.5143630000000  0.5911610000000  0.5777700000000 1.0
C      1  0.5873160000000  0.5321820000000  0.5791220000000 1.0
C      1  0.5714630000000  0.4418140000000  0.5777690000000 1.0
C      1  0.4423150000000  0.5003900000000  0.5415380000000 1.0
C      1  0.4702300000000  0.4493130000000  0.5430280000000 1.0
C      1  0.5282080000000  0.4500280000000  0.5415380000000 1.0
C      1  0.5584850000000  0.4997420000000  0.5430280000000 1.0
C      1  0.5288760000000  0.5495950000000  0.5415380000000 1.0
C      1  0.4706850000000  0.5509590000000  0.5430280000000 1.0
C      1  0.5572840000000  0.5003910000000  0.4589040000000 1.0
C      1  0.5293700000000  0.4493130000000  0.4574140000000 1.0
C      1  0.4713920000000  0.4500280000000  0.4589040000000 1.0
C      1  0.4411150000000  0.4997420000000  0.4574140000000 1.0
C      1  0.4707230000000  0.5495950000000  0.4589040000000 1.0
C      1  0.5289150000000  0.5509590000000  0.4574140000000 1.0
C      1  0.4671290000000  0.4150710000000  0.4506090000000 1.0
C      1  0.5576650000000  0.4275300000000  0.4513140000000 1.0
C      1  0.5896900000000  0.5141780000000  0.4506100000000 1.0
C      1  0.5336330000000  0.5863550000000  0.4513140000000 1.0
C      1  0.4425800000000  0.5707660000000  0.4506100000000 1.0
C      1  0.4081020000000  0.4861300000000  0.4513140000000 1.0
C      1  0.5324710000000  0.4150700000000  0.5498320000000 1.0
C      1  0.4419350000000  0.4275290000000  0.5491280000000 1.0
C      1  0.4099090000000  0.5141770000000  0.5498330000000 1.0
C      1  0.4659670000000  0.5863540000000  0.5491290000000 1.0
C      1  0.5570190000000  0.5707650000000  0.5498330000000 1.0
C      1  0.5914980000000  0.4861300000000  0.5491280000000 1.0
C      1  0.4021770000000  0.5631090000000  0.5233130000000 1.0
C      1  0.3980610000000  0.4484590000000  0.5214280000000 1.0
C      1  0.4939610000000  0.3839080000000  0.5233120000000 1.0
C      1  0.5953090000000  0.4376690000000  0.5214280000000 1.0
C      1  0.6032620000000  0.5529960000000  0.5233130000000 1.0
C      1  0.5060300000000  0.6138850000000  0.5214280000000 1.0
C      1  0.5974220000000  0.5631100000000  0.4771300000000 1.0
C      1  0.6015390000000  0.4484600000000  0.4790140000000 1.0
C      1  0.5056390000000  0.3839080000000  0.4771290000000 1.0
C      1  0.4042910000000  0.4376690000000  0.4790140000000 1.0
C      1  0.3963380000000  0.5529960000000  0.4771290000000 1.0
C      1  0.4935700000000  0.6138860000000  0.4790150000000 1.0
C      1  0.5018890000000  0.5869100000000  0.4465100000000 1.0
C      1  0.4235030000000  0.5455690000000  0.4451480000000 1.0
C      1  0.4234930000000  0.4583610000000  0.4465100000000 1.0
C      1  0.4984880000000  0.4111470000000  0.4451480000000 1.0
C      1  0.5740180000000  0.4547430000000  0.4465100000000 1.0
C      1  0.5774080000000  0.5432970000000  0.4451480000000 1.0
C      1  0.4977110000000  0.5869100000000  0.5539320000000 1.0
C      1  0.5760960000000  0.5455690000000  0.5552940000000 1.0
C      1  0.5761070000000  0.4583610000000  0.5539320000000 1.0
C      1  0.5011120000000  0.4111470000000  0.5552940000000 1.0
C      1  0.4255820000000  0.4547420000000  0.5539320000000 1.0
C      1  0.4221910000000  0.5432970000000  0.5552940000000 1.0
C      1  0.5432710000000  0.5839850000000  0.5761590000000 1.0
C      1  0.4484320000000  0.5814500000000  0.5762130000000 1.0
C      1  0.4053350000000  0.4956610000000  0.5761590000000 1.0
C      1  0.4549500000000  0.4147960000000  0.5762130000000 1.0
C      1  0.5507930000000  0.4203670000000  0.5761590000000 1.0
C      1  0.5960180000000  0.5037680000000  0.5762130000000 1.0
C      1  0.4563290000000  0.5839850000000  0.4242830000000 1.0
C      1  0.5511680000000  0.5814500000000  0.4242290000000 1.0
C      1  0.5942650000000  0.4956620000000  0.4242830000000 1.0
C      1  0.5446500000000  0.4147960000000  0.4242290000000 1.0
C      1  0.4488060000000  0.4203670000000  0.4242830000000 1.0
C      1  0.4035820000000  0.5037680000000  0.4242290000000 1.0
C      1  0.5588810000000  0.5516670000000  0.4650100000000 1.0
C      1  0.4864680000000  0.5744050000000  0.4666410000000 1.0
C      1  0.4255180000000  0.5253390000000  0.4650090000000 1.0
C      1  0.4420340000000  0.4512580000000  0.4666410000000 1.0
C      1  0.5150000000000  0.4230070000000  0.4650090000000 1.0
C      1  0.5708990000000  0.4743510000000  0.4666410000000 1.0
C      1  0.4407180000000  0.5516670000000  0.5354330000000 1.0
C      1  0.5131320000000  0.5744050000000  0.5338010000000 1.0
C      1  0.5740820000000  0.5253390000000  0.5354330000000 1.0
C      1  0.5575660000000  0.4512580000000  0.5338010000000 1.0
C      1  0.4845990000000  0.4230070000000  0.5354330000000 1.0
C      1  0.4287010000000  0.4743500000000  0.5338010000000 1.0
C      1  0.4472400000000  0.5466710000000  0.4943680000000 1.0
C      1  0.4281720000000  0.4939580000000  0.4967340000000 1.0
C      1  0.4856660000000  0.4311540000000  0.4943680000000 1.0
C      1  0.5408500000000  0.4409960000000  0.4967340000000 1.0
C      1  0.5664940000000  0.5221890000000  0.4943680000000 1.0
C      1  0.5303770000000  0.5650600000000  0.4967340000000 1.0
C      1  0.5523590000000  0.5466710000000  0.5060740000000 1.0
C      1  0.5714280000000  0.4939580000000  0.5037080000000 1.0
C      1  0.5139340000000  0.4311540000000  0.5060740000000 1.0
C      1  0.4587490000000  0.4409960000000  0.5037080000000 1.0
C      1  0.4331060000000  0.5221890000000  0.5060740000000 1.0
C      1  0.4692220000000  0.5650590000000  0.5037080000000 1.0
C      1  0.4998000000000  0.5000040000000  0.5530180000000 1.0
C      1  0.4998000000000  0.5000050000000  0.4474250000000 1.0
END
