TITL C-862500-986-45 19.9734291121843 125000 -892.32319792775 0 0 158 (C1) n - 1
REM
REM in /home/nfs/bkarasulu/CARBON/AIRSS/Generating-Clusters/TERSOFF/Higher-Symm/FIRE-HFTN
REM
REM
REM
REM
REM
REM ./C.cell (b20cbc046b6831c77cfcea5457e17084)
REM AIRSS Version 0.9.1 bugfix July 2018 build 013d7b7c2542+ Fri, 06 Jul 2018 19:26:36 +0100
REM compiler GCC version 9.2.1 20190827 (Red Hat 9.2.1-1)
REM options -cpp -mtune=generic -march=x86-64 -g -O0 -fpre-include=/usr/include/finclude/math-vector-fortran.h
REM seed 368004670 -1832371843 667542861 1130435516 1767927495 -1226969678 -1317686253 -48763494 536865063 -1737443419 1950901846 648931860 2134523025 -1800675583 -100601191 868673245 148344519 -1776114099 815191645 1671613307 -1562790187 1769763321 -1825427476 1349867492 2081289961 -381656007 2101300855 -1310872463 -387177688 1025775910 -104298238 -679704048 -584908669
REM
CELL 1.54180   50.00000   50.00000   50.00000   90.00000   90.00000   90.00000
LATT -1
SFAC C  
C      1  0.4540440000000  0.5111370000000  0.4654740000000 1.0
C      1  0.4666330000000  0.4439330000000  0.4684380000000 1.0
C      1  0.5335540000000  0.4669830000000  0.4616000000000 1.0
C      1  0.5486770000000  0.5224490000000  0.4621620000000 1.0
C      1  0.4947870000000  0.5557700000000  0.4641930000000 1.0
C      1  0.4573050000000  0.5130600000000  0.5342270000000 1.0
C      1  0.4778410000000  0.4420250000000  0.5329850000000 1.0
C      1  0.5322810000000  0.4624140000000  0.5354650000000 1.0
C      1  0.5458520000000  0.5211130000000  0.5332070000000 1.0
C      1  0.4935040000000  0.5560710000000  0.5332750000000 1.0
C      1  0.4409950000000  0.5711740000000  0.4527460000000 1.0
C      1  0.4175190000000  0.4627750000000  0.4565970000000 1.0
C      1  0.5045360000000  0.4100010000000  0.4547250000000 1.0
C      1  0.5903130000000  0.4774650000000  0.4525830000000 1.0
C      1  0.5474220000000  0.5781230000000  0.4544290000000 1.0
C      1  0.4389460000000  0.5720350000000  0.5443360000000 1.0
C      1  0.4179690000000  0.4663210000000  0.5424010000000 1.0
C      1  0.5086150000000  0.4055180000000  0.5436170000000 1.0
C      1  0.5882440000000  0.4751230000000  0.5453820000000 1.0
C      1  0.5493930000000  0.5789020000000  0.5442600000000 1.0
C      1  0.4405350000000  0.4705140000000  0.4378810000000 1.0
C      1  0.5029230000000  0.4333950000000  0.4346910000000 1.0
C      1  0.5673950000000  0.4858270000000  0.4339050000000 1.0
C      1  0.5327050000000  0.5575470000000  0.4365560000000 1.0
C      1  0.4554980000000  0.5505200000000  0.4355080000000 1.0
C      1  0.4403430000000  0.4730270000000  0.5618400000000 1.0
C      1  0.5057190000000  0.4305910000000  0.5625320000000 1.0
C      1  0.5646120000000  0.4842790000000  0.5627790000000 1.0
C      1  0.5336000000000  0.5586070000000  0.5619480000000 1.0
C      1  0.4536940000000  0.5524380000000  0.5628660000000 1.0
C      1  0.4264860000000  0.5097740000000  0.4500770000000 1.0
C      1  0.4564160000000  0.4243150000000  0.4487150000000 1.0
C      1  0.5530530000000  0.4466780000000  0.4464300000000 1.0
C      1  0.5701030000000  0.5360100000000  0.4434900000000 1.0
C      1  0.4910910000000  0.5808260000000  0.4460800000000 1.0
C      1  0.4275460000000  0.5119980000000  0.5455290000000 1.0
C      1  0.4655710000000  0.4225590000000  0.5531720000000 1.0
C      1  0.5528800000000  0.4446670000000  0.5513240000000 1.0
C      1  0.5682950000000  0.5345050000000  0.5510500000000 1.0
C      1  0.4872720000000  0.5803020000000  0.5523400000000 1.0
C      1  0.5829070000000  0.4298000000000  0.5186540000000 1.0
C      1  0.5843760000000  0.5522460000000  0.5155950000000 1.0
C      1  0.4736250000000  0.6003450000000  0.5158110000000 1.0
C      1  0.3942330000000  0.5047110000000  0.5160400000000 1.0
C      1  0.4650340000000  0.4010140000000  0.5135430000000 1.0
C      1  0.5764340000000  0.4374110000000  0.4847570000000 1.0
C      1  0.5859160000000  0.5560490000000  0.4837710000000 1.0
C      1  0.4718540000000  0.6019250000000  0.4826800000000 1.0
C      1  0.4032860000000  0.5043410000000  0.4852600000000 1.0
C      1  0.4612960000000  0.3944820000000  0.4810680000000 1.0
C      1  0.4623100000000  0.4904260000000  0.5549710000000 1.0
C      1  0.5011440000000  0.4575940000000  0.5482790000000 1.0
C      1  0.5398060000000  0.4909650000000  0.5482070000000 1.0
C      1  0.5197370000000  0.5366310000000  0.5471510000000 1.0
C      1  0.4735680000000  0.5363210000000  0.5487990000000 1.0
C      1  0.4618740000000  0.4873650000000  0.4470340000000 1.0
C      1  0.5066600000000  0.4616120000000  0.4439540000000 1.0
C      1  0.5430460000000  0.4932670000000  0.4478370000000 1.0
C      1  0.5195980000000  0.5344950000000  0.4508980000000 1.0
C      1  0.4748090000000  0.5335450000000  0.4502050000000 1.0
C      1  0.4845130000000  0.3905570000000  0.5336580000000 1.0
C      1  0.5936280000000  0.4462340000000  0.5412750000000 1.0
C      1  0.5771360000000  0.5726060000000  0.5357520000000 1.0
C      1  0.4523730000000  0.5976610000000  0.5366980000000 1.0
C      1  0.3959730000000  0.4852560000000  0.5383400000000 1.0
C      1  0.4813420000000  0.3920890000000  0.4588980000000 1.0
C      1  0.5920500000000  0.4489710000000  0.4618550000000 1.0
C      1  0.5760210000000  0.5736180000000  0.4612180000000 1.0
C      1  0.4543320000000  0.5967750000000  0.4586610000000 1.0
C      1  0.3978320000000  0.4832060000000  0.4654710000000 1.0
C      1  0.5054950000000  0.6023610000000  0.5216220000000 1.0
C      1  0.4066200000000  0.5353050000000  0.5134350000000 1.0
C      1  0.4427360000000  0.4245240000000  0.5179970000000 1.0
C      1  0.5515100000000  0.4230740000000  0.5153350000000 1.0
C      1  0.5969310000000  0.5235280000000  0.5223530000000 1.0
C      1  0.5043810000000  0.6004930000000  0.4872310000000 1.0
C      1  0.4083630000000  0.5353150000000  0.4780070000000 1.0
C      1  0.4384090000000  0.4184950000000  0.4862090000000 1.0
C      1  0.5449860000000  0.4304100000000  0.4842870000000 1.0
C      1  0.5991390000000  0.5258330000000  0.4864740000000 1.0
C      1  0.5552500000000  0.4712610000000  0.5145260000000 1.0
C      1  0.5430390000000  0.5452910000000  0.5133480000000 1.0
C      1  0.4694940000000  0.5586420000000  0.5134890000000 1.0
C      1  0.4708270000000  0.4942470000000  0.5140390000000 1.0
C      1  0.4955620000000  0.4297830000000  0.5119320000000 1.0
C      1  0.5559730000000  0.4740220000000  0.4828380000000 1.0
C      1  0.5452390000000  0.5458190000000  0.4821370000000 1.0
C      1  0.4703700000000  0.5597690000000  0.4826730000000 1.0
C      1  0.4550040000000  0.4907650000000  0.4883260000000 1.0
C      1  0.4918610000000  0.4401050000000  0.4810790000000 1.0
C      1  0.5690210000000  0.5003850000000  0.4080780000000 1.0
C      1  0.5199770000000  0.5636200000000  0.4101480000000 1.0
C      1  0.4435210000000  0.5365960000000  0.4123590000000 1.0
C      1  0.4467190000000  0.4566910000000  0.4126050000000 1.0
C      1  0.5204310000000  0.4348520000000  0.4102540000000 1.0
C      1  0.5666170000000  0.5004240000000  0.5875300000000 1.0
C      1  0.5189510000000  0.5648950000000  0.5872100000000 1.0
C      1  0.4416110000000  0.5371830000000  0.5854460000000 1.0
C      1  0.4471570000000  0.4570830000000  0.5851070000000 1.0
C      1  0.5214130000000  0.4343210000000  0.5877650000000 1.0
C      1  0.5748190000000  0.5265090000000  0.5779860000000 1.0
C      1  0.4975960000000  0.5827660000000  0.5791000000000 1.0
C      1  0.4215370000000  0.5202450000000  0.5725890000000 1.0
C      1  0.4540770000000  0.4300780000000  0.5784890000000 1.0
C      1  0.5486500000000  0.4347970000000  0.5779580000000 1.0
C      1  0.5768470000000  0.5269820000000  0.4168570000000 1.0
C      1  0.4993420000000  0.5822740000000  0.4185240000000 1.0
C      1  0.4226280000000  0.5198520000000  0.4234200000000 1.0
C      1  0.4526900000000  0.4296710000000  0.4206000000000 1.0
C      1  0.5475510000000  0.4349310000000  0.4206420000000 1.0
C      1  0.5170660000000  0.5626980000000  0.5143500000000 1.0
C      1  0.4484130000000  0.5360650000000  0.5151780000000 1.0
C      1  0.4604060000000  0.4625970000000  0.5189660000000 1.0
C      1  0.5193680000000  0.4496810000000  0.5112770000000 1.0
C      1  0.5610660000000  0.5020030000000  0.5137310000000 1.0
C      1  0.5182130000000  0.5610560000000  0.4833880000000 1.0
C      1  0.4498570000000  0.5363070000000  0.4838490000000 1.0
C      1  0.4491180000000  0.4601490000000  0.4855950000000 1.0
C      1  0.5139080000000  0.4632360000000  0.4852120000000 1.0
C      1  0.5634240000000  0.5042140000000  0.4828620000000 1.0
C      1  0.4633170000000  0.4708940000000  0.3917660000000 1.0
C      1  0.5137420000000  0.4555210000000  0.3899620000000 1.0
C      1  0.5450850000000  0.4988960000000  0.3896120000000 1.0
C      1  0.5126010000000  0.5410910000000  0.3914260000000 1.0
C      1  0.4619580000000  0.5240200000000  0.3924090000000 1.0
C      1  0.4630170000000  0.4709460000000  0.6062650000000 1.0
C      1  0.5135580000000  0.4558190000000  0.6072360000000 1.0
C      1  0.5437510000000  0.4994900000000  0.6069580000000 1.0
C      1  0.5116550000000  0.5420400000000  0.6057690000000 1.0
C      1  0.4607600000000  0.5243770000000  0.6051700000000 1.0
C      1  0.5361730000000  0.5984690000000  0.5252060000000 1.0
C      1  0.4172760000000  0.5636990000000  0.5241440000000 1.0
C      1  0.4181300000000  0.4423430000000  0.5243030000000 1.0
C      1  0.5325960000000  0.4009700000000  0.5252800000000 1.0
C      1  0.6005770000000  0.4928280000000  0.5245850000000 1.0
C      1  0.5334460000000  0.5987860000000  0.4731920000000 1.0
C      1  0.4199950000000  0.5637750000000  0.4730250000000 1.0
C      1  0.4161020000000  0.4369440000000  0.4731640000000 1.0
C      1  0.5274980000000  0.4071490000000  0.4741760000000 1.0
C      1  0.6035640000000  0.4964100000000  0.4733930000000 1.0
C      1  0.4861150000000  0.4569170000000  0.6184590000000 1.0
C      1  0.5347480000000  0.4735460000000  0.6184130000000 1.0
C      1  0.5330240000000  0.5250970000000  0.6179220000000 1.0
C      1  0.4835740000000  0.5403220000000  0.6164290000000 1.0
C      1  0.4542340000000  0.4975250000000  0.6167940000000 1.0
C      1  0.4862660000000  0.4570250000000  0.3790230000000 1.0
C      1  0.5356040000000  0.4726440000000  0.3787310000000 1.0
C      1  0.5338360000000  0.5243400000000  0.3788280000000 1.0
C      1  0.4846230000000  0.5396180000000  0.3808370000000 1.0
C      1  0.4547630000000  0.4973810000000  0.3811320000000 1.0
C      1  0.5488330000000  0.6038650000000  0.4989070000000 1.0
C      1  0.5256780000000  0.3891110000000  0.4981100000000 1.0
C      1  0.6094050000000  0.4817990000000  0.4989840000000 1.0
C      1  0.4019060000000  0.4421970000000  0.4995120000000 1.0
C      1  0.4181930000000  0.5787390000000  0.4983020000000 1.0
C      1  0.4888800000000  0.4836890000000  0.4367480000000 1.0
C      1  0.4892590000000  0.4814120000000  0.5606440000000 1.0
C      1  0.4998230000000  0.4978110000000  0.5107930000000 1.0
END
