TITL C-862501-1041-44 -0.00239490522695917 125000 -683.63866805428 0 0 117 (C1) n - 1
REM
REM in /home/nfs/bkarasulu/CARBON/AIRSS/Generating-Clusters/TERSOFF/Higher-Symm/FIRE-HFTN
REM
REM
REM
REM
REM
REM ./C.cell (b20cbc046b6831c77cfcea5457e17084)
REM AIRSS Version 0.9.1 bugfix July 2018 build 013d7b7c2542+ Fri, 06 Jul 2018 19:26:36 +0100
REM compiler GCC version 9.2.1 20190827 (Red Hat 9.2.1-1)
REM options -cpp -mtune=generic -march=x86-64 -g -O0 -fpre-include=/usr/include/finclude/math-vector-fortran.h
REM seed 2009906496 -1625036242 -397658143 669255412 559710191 1636861185 1473286676 775228648 490149571 -79860655 1154524037 -229271402 -1109423901 -1599501869 1235959763 1003051076 950693064 -1237665986 -1297612680 -1322849953 -1108489878 -1105736304 682843239 -419055782 1367760155 2014990257 -233445418 -2096302644 942958209 -823207959 -885227653 -904952199 -1363940949
REM
CELL 1.54180   50.00000   50.00000   50.00000   90.00000   90.00000   90.00000
LATT -1
SFAC C  
C      1  0.4976050000000  0.5869770000000  0.5667420000000 1.0
C      1  0.4944070000000  0.4117610000000  0.4311100000000 1.0
C      1  0.5072440000000  0.5936260000000  0.4293690000000 1.0
C      1  0.5058030000000  0.4080350000000  0.5708060000000 1.0
C      1  0.4944470000000  0.5687840000000  0.5895510000000 1.0
C      1  0.4953570000000  0.4338010000000  0.4117770000000 1.0
C      1  0.5053740000000  0.4290340000000  0.5914460000000 1.0
C      1  0.5049890000000  0.5723960000000  0.4085060000000 1.0
C      1  0.5247830000000  0.4512320000000  0.5106210000000 1.0
C      1  0.5127730000000  0.5350840000000  0.4837340000000 1.0
C      1  0.4744970000000  0.4518680000000  0.4927640000000 1.0
C      1  0.4736960000000  0.5406210000000  0.5054120000000 1.0
C      1  0.5272710000000  0.5151480000000  0.4580640000000 1.0
C      1  0.5240200000000  0.4893220000000  0.5478010000000 1.0
C      1  0.4769860000000  0.4965690000000  0.4619550000000 1.0
C      1  0.4731790000000  0.5080910000000  0.5479800000000 1.0
C      1  0.5184990000000  0.3939020000000  0.5253420000000 1.0
C      1  0.5181620000000  0.6043240000000  0.4758500000000 1.0
C      1  0.4808630000000  0.3958410000000  0.4756020000000 1.0
C      1  0.4833560000000  0.6035950000000  0.5241820000000 1.0
C      1  0.5175480000000  0.5273300000000  0.3934220000000 1.0
C      1  0.5174960000000  0.4744400000000  0.6057280000000 1.0
C      1  0.4824510000000  0.4781950000000  0.3976380000000 1.0
C      1  0.4804910000000  0.5241890000000  0.6047010000000 1.0
C      1  0.5218830000000  0.4858870000000  0.4441050000000 1.0
C      1  0.5197830000000  0.5167130000000  0.5598790000000 1.0
C      1  0.4772410000000  0.4807130000000  0.5609970000000 1.0
C      1  0.4774470000000  0.5199230000000  0.4393120000000 1.0
C      1  0.5208030000000  0.4392380000000  0.4832740000000 1.0
C      1  0.5186070000000  0.5529000000000  0.5112340000000 1.0
C      1  0.4736500000000  0.5608040000000  0.4794870000000 1.0
C      1  0.4782870000000  0.4377800000000  0.5195180000000 1.0
C      1  0.4443770000000  0.5149230000000  0.5381150000000 1.0
C      1  0.4470640000000  0.4866650000000  0.4659050000000 1.0
C      1  0.5590040000000  0.5176590000000  0.4600910000000 1.0
C      1  0.5530440000000  0.4834760000000  0.5381030000000 1.0
C      1  0.4444750000000  0.5361780000000  0.5148190000000 1.0
C      1  0.4459460000000  0.4628120000000  0.4866300000000 1.0
C      1  0.5534670000000  0.4614690000000  0.5164380000000 1.0
C      1  0.5675050000000  0.5384860000000  0.4795760000000 1.0
C      1  0.5467740000000  0.4476020000000  0.5736790000000 1.0
C      1  0.5467480000000  0.5529400000000  0.4259030000000 1.0
C      1  0.4538640000000  0.4516050000000  0.4293580000000 1.0
C      1  0.4524080000000  0.5518740000000  0.5721090000000 1.0
C      1  0.5467770000000  0.5727910000000  0.4481360000000 1.0
C      1  0.5471340000000  0.4263250000000  0.5527020000000 1.0
C      1  0.4529080000000  0.4294010000000  0.4490190000000 1.0
C      1  0.4536030000000  0.5721100000000  0.5502950000000 1.0
C      1  0.4368800000000  0.4382270000000  0.4716330000000 1.0
C      1  0.4378750000000  0.5625450000000  0.5278140000000 1.0
C      1  0.5626260000000  0.4360470000000  0.5299770000000 1.0
C      1  0.5648250000000  0.5659250000000  0.4699500000000 1.0
C      1  0.4393620000000  0.4742270000000  0.4396370000000 1.0
C      1  0.4359790000000  0.5295550000000  0.5631440000000 1.0
C      1  0.5629160000000  0.5296350000000  0.4327350000000 1.0
C      1  0.5619580000000  0.4704870000000  0.5638860000000 1.0
C      1  0.4925610000000  0.5302830000000  0.5536170000000 1.0
C      1  0.4945150000000  0.4720080000000  0.4504050000000 1.0
C      1  0.5052300000000  0.5353500000000  0.4421510000000 1.0
C      1  0.5052510000000  0.4665960000000  0.5552190000000 1.0
C      1  0.4921680000000  0.5510840000000  0.5295650000000 1.0
C      1  0.4939100000000  0.4468160000000  0.4701980000000 1.0
C      1  0.5057200000000  0.4440940000000  0.5333140000000 1.0
C      1  0.5019010000000  0.5577290000000  0.4634750000000 1.0
C      1  0.4474940000000  0.5516890000000  0.4678740000000 1.0
C      1  0.4524360000000  0.4454720000000  0.5326120000000 1.0
C      1  0.5438380000000  0.5452350000000  0.5241420000000 1.0
C      1  0.5459870000000  0.4483030000000  0.4702090000000 1.0
C      1  0.4515380000000  0.4682430000000  0.5518570000000 1.0
C      1  0.4496520000000  0.5313720000000  0.4455680000000 1.0
C      1  0.5443590000000  0.5300940000000  0.5497480000000 1.0
C      1  0.5469250000000  0.4717370000000  0.4521580000000 1.0
C      1  0.5369780000000  0.4606160000000  0.4037210000000 1.0
C      1  0.5339770000000  0.5404240000000  0.6004990000000 1.0
C      1  0.4655090000000  0.4566300000000  0.6028560000000 1.0
C      1  0.4671250000000  0.5420360000000  0.3960960000000 1.0
C      1  0.5337790000000  0.3983490000000  0.4586770000000 1.0
C      1  0.5354640000000  0.5942260000000  0.5351210000000 1.0
C      1  0.4642600000000  0.6024380000000  0.4552700000000 1.0
C      1  0.4664970000000  0.3957490000000  0.5428290000000 1.0
C      1  0.5189360000000  0.5470770000000  0.4150770000000 1.0
C      1  0.5187810000000  0.4543750000000  0.5839190000000 1.0
C      1  0.4798700000000  0.5439360000000  0.5825220000000 1.0
C      1  0.4814610000000  0.4588050000000  0.4196900000000 1.0
C      1  0.5193660000000  0.4157040000000  0.5455750000000 1.0
C      1  0.5195130000000  0.5838980000000  0.4548900000000 1.0
C      1  0.4817910000000  0.5808160000000  0.5425980000000 1.0
C      1  0.4804670000000  0.4185800000000  0.4563330000000 1.0
C      1  0.4769910000000  0.4809010000000  0.5904890000000 1.0
C      1  0.4786640000000  0.5182370000000  0.4097210000000 1.0
C      1  0.5237450000000  0.4849040000000  0.4141960000000 1.0
C      1  0.5212390000000  0.5164550000000  0.5892700000000 1.0
C      1  0.4737790000000  0.5900640000000  0.4805050000000 1.0
C      1  0.4780160000000  0.4083620000000  0.5187440000000 1.0
C      1  0.5215630000000  0.4097930000000  0.4828290000000 1.0
C      1  0.5195590000000  0.5834440000000  0.5122630000000 1.0
C      1  0.5250380000000  0.4053510000000  0.4309830000000 1.0
C      1  0.5285270000000  0.5900800000000  0.5645700000000 1.0
C      1  0.4750870000000  0.4024010000000  0.5709920000000 1.0
C      1  0.4762510000000  0.5969870000000  0.4283790000000 1.0
C      1  0.5262210000000  0.4329260000000  0.4073040000000 1.0
C      1  0.5254620000000  0.5680190000000  0.5933560000000 1.0
C      1  0.4741070000000  0.5710750000000  0.4030040000000 1.0
C      1  0.4746040000000  0.4285070000000  0.5965150000000 1.0
C      1  0.4293040000000  0.5345880000000  0.4886230000000 1.0
C      1  0.4334450000000  0.4635990000000  0.5142430000000 1.0
C      1  0.5673400000000  0.5334500000000  0.5085600000000 1.0
C      1  0.5667150000000  0.4652200000000  0.4886210000000 1.0
C      1  0.4313310000000  0.4877240000000  0.5360210000000 1.0
C      1  0.4318650000000  0.5128050000000  0.4653490000000 1.0
C      1  0.5661300000000  0.5109970000000  0.5338800000000 1.0
C      1  0.5695340000000  0.4895220000000  0.4640560000000 1.0
C      1  0.4990070000000  0.4992920000000  0.6048500000000 1.0
C      1  0.5028610000000  0.5009640000000  0.3971050000000 1.0
C      1  0.4966650000000  0.6018150000000  0.4972270000000 1.0
C      1  0.4999100000000  0.3942900000000  0.5003200000000 1.0
C      1  0.4880550000000  0.5148090000000  0.4884860000000 1.0
END
