TITL C-862503-991-1247 0.000184946666781422 125000 -385.449487585763 0 0 80 (C3i) n - 1
REM
REM in /home/nfs/bkarasulu/CARBON/AIRSS/Generating-Clusters/TERSOFF/Higher-Symm/FIRE-HFTN
REM
REM
REM
REM
REM
REM ./C.cell (b20cbc046b6831c77cfcea5457e17084)
REM AIRSS Version 0.9.1 bugfix July 2018 build 013d7b7c2542+ Fri, 06 Jul 2018 19:26:36 +0100
REM compiler GCC version 9.2.1 20190827 (Red Hat 9.2.1-1)
REM options -cpp -mtune=generic -march=x86-64 -g -O0 -fpre-include=/usr/include/finclude/math-vector-fortran.h
REM seed -1527463530 -1602935882 675503048 1505475801 -96318622 437285521 1972199211 -29017004 1959563245 2074004139 1131424524 4888767 -1732384238 1753971564 553694653 -1363265401 219121344 -1569698931 164923148 -1090870664 -1962453077 -1516365413 1019349623 1895822724 -828458769 1275113797 970294264 -1896062783 -317227947 248026822 1935983095 1685192188 1934973724
REM
CELL 1.54180   50.00000   50.00000   50.00000   90.00000   90.00000   90.00000
LATT -1
SFAC C  
C      1  0.5208500000000  0.4747540000000  0.4959060000000 1.0
C      1  0.4791500000000  0.4838960000000  0.5194220000000 1.0
C      1  0.5208500000000  0.5088320000000  0.5232610000000 1.0
C      1  0.4791500000000  0.5246250000000  0.5035870000000 1.0
C      1  0.5208500000000  0.5154830000000  0.4800720000000 1.0
C      1  0.4791500000000  0.4905470000000  0.4762320000000 1.0
C      1  0.5053940000000  0.5787850000000  0.4635640000000 1.0
C      1  0.4946050000000  0.5079020000000  0.4131560000000 1.0
C      1  0.5053940000000  0.4288060000000  0.4493390000000 1.0
C      1  0.4946060000000  0.4205930000000  0.5359300000000 1.0
C      1  0.5053950000000  0.4914770000000  0.5863370000000 1.0
C      1  0.4946060000000  0.5705730000000  0.5501540000000 1.0
C      1  0.4632310000000  0.5245610000000  0.4468630000000 1.0
C      1  0.5367680000000  0.4663270000000  0.4517650000000 1.0
C      1  0.4632320000000  0.4414550000000  0.5046490000000 1.0
C      1  0.5367690000000  0.4748180000000  0.5526300000000 1.0
C      1  0.4632320000000  0.5330520000000  0.5477280000000 1.0
C      1  0.5367680000000  0.5579240000000  0.4948440000000 1.0
C      1  0.5633920000000  0.4562720000000  0.4826500000000 1.0
C      1  0.4366090000000  0.4631740000000  0.5288000000000 1.0
C      1  0.5633920000000  0.5065930000000  0.5458950000000 1.0
C      1  0.4366080000000  0.5431070000000  0.5168430000000 1.0
C      1  0.5633910000000  0.5362040000000  0.4706930000000 1.0
C      1  0.4366080000000  0.4927860000000  0.4535980000000 1.0
C      1  0.5342440000000  0.4889140000000  0.5781930000000 1.0
C      1  0.4657570000000  0.5622390000000  0.5483020000000 1.0
C      1  0.5342430000000  0.5730140000000  0.4698540000000 1.0
C      1  0.4657560000000  0.5104640000000  0.4213000000000 1.0
C      1  0.5342430000000  0.4371400000000  0.4511910000000 1.0
C      1  0.4657570000000  0.4263640000000  0.5296390000000 1.0
C      1  0.4456090000000  0.4408970000000  0.4665480000000 1.0
C      1  0.5543920000000  0.4415420000000  0.5340620000000 1.0
C      1  0.4456100000000  0.5003340000000  0.5672620000000 1.0
C      1  0.5543910000000  0.5584820000000  0.5329450000000 1.0
C      1  0.4456080000000  0.5578360000000  0.4654310000000 1.0
C      1  0.5543900000000  0.4990450000000  0.4322310000000 1.0
C      1  0.4731010000000  0.4940550000000  0.5597100000000 1.0
C      1  0.5269000000000  0.5488020000000  0.5346080000000 1.0
C      1  0.4731000000000  0.5544360000000  0.4746450000000 1.0
C      1  0.5268990000000  0.5053240000000  0.4397830000000 1.0
C      1  0.4731000000000  0.4505770000000  0.4648850000000 1.0
C      1  0.5269000000000  0.4449420000000  0.5248480000000 1.0
C      1  0.4456360000000  0.5267280000000  0.4935910000000 1.0
C      1  0.5543630000000  0.5078780000000  0.4732520000000 1.0
C      1  0.4456360000000  0.4808380000000  0.4794080000000 1.0
C      1  0.5543640000000  0.4726510000000  0.5059020000000 1.0
C      1  0.4456370000000  0.4915010000000  0.5262410000000 1.0
C      1  0.5543640000000  0.5185400000000  0.5200850000000 1.0
C      1  0.5456120000000  0.5518060000000  0.4517350000000 1.0
C      1  0.4543870000000  0.4841690000000  0.4306070000000 1.0
C      1  0.5456130000000  0.4320530000000  0.4786170000000 1.0
C      1  0.4543880000000  0.4475730000000  0.5477580000000 1.0
C      1  0.5456130000000  0.5152100000000  0.5688860000000 1.0
C      1  0.4543870000000  0.5673260000000  0.5208760000000 1.0
C      1  0.5058320000000  0.5357230000000  0.4199100000000 1.0
C      1  0.4941670000000  0.4485660000000  0.4286220000000 1.0
C      1  0.5058330000000  0.4125320000000  0.5084580000000 1.0
C      1  0.4941680000000  0.4636550000000  0.5795830000000 1.0
C      1  0.5058330000000  0.5508130000000  0.5708710000000 1.0
C      1  0.4941670000000  0.5868470000000  0.4910350000000 1.0
C      1  0.5111110000000  0.4739360000000  0.5305440000000 1.0
C      1  0.4888900000000  0.5134840000000  0.5374490000000 1.0
C      1  0.5111100000000  0.5392380000000  0.5066510000000 1.0
C      1  0.4888890000000  0.5254430000000  0.4689490000000 1.0
C      1  0.5111100000000  0.4858940000000  0.4620440000000 1.0
C      1  0.4888900000000  0.4601410000000  0.4928420000000 1.0
C      1  0.5101630000000  0.5209220000000  0.5655630000000 1.0
C      1  0.4898380000000  0.5673050000000  0.5142670000000 1.0
C      1  0.5101610000000  0.5460720000000  0.4484500000000 1.0
C      1  0.4898370000000  0.4784570000000  0.4339300000000 1.0
C      1  0.5101620000000  0.4320740000000  0.4852260000000 1.0
C      1  0.4898390000000  0.4533070000000  0.5510430000000 1.0
C      1  0.4345430000000  0.5195150000000  0.5439730000000 1.0
C      1  0.5654570000000  0.5479030000000  0.5046890000000 1.0
C      1  0.4345420000000  0.5280760000000  0.4604640000000 1.0
C      1  0.5654570000000  0.4798630000000  0.4555200000000 1.0
C      1  0.4345430000000  0.4514750000000  0.4948040000000 1.0
C      1  0.5654580000000  0.4713020000000  0.5390290000000 1.0
C      1  0.5612380000000  0.4996900000000  0.4997460000000 1.0
C      1  0.4387620000000  0.4996890000000  0.4997470000000 1.0
END
