TITL C-862506-1665-403 -3.18761809409352e-07 125000 -100.093229812364 0 0 30 (Ih) n - 1
REM
REM in /home/nfs/bkarasulu/CARBON/AIRSS/Generating-Clusters/TERSOFF/Higher-Symm/FIRE-HFTN
REM
REM
REM
REM
REM
REM ./C.cell (b20cbc046b6831c77cfcea5457e17084)
REM AIRSS Version 0.9.1 bugfix July 2018 build 013d7b7c2542+ Fri, 06 Jul 2018 19:26:36 +0100
REM compiler GCC version 9.2.1 20190827 (Red Hat 9.2.1-1)
REM options -cpp -mtune=generic -march=x86-64 -g -O0 -fpre-include=/usr/include/finclude/math-vector-fortran.h
REM seed -212855847 -856875431 -1919626416 398238179 698651930 -1806584391 -1034482519 2095816381 431053792 -1763430472 -873845323 2137643139 1155292552 -1704373860 972242778 2093469432 1109581484 -463035795 607861384 -212536808 -1997286440 1747609013 -1083049239 1794995683 380077192 -1774168076 998552667 -674948092 1247007905 -854420872 -1278661064 842652877 308236575
REM
CELL 1.54180   50.00000   50.00000   50.00000   90.00000   90.00000   90.00000
LATT -1
SFAC C  
C      1  0.5172330000000  0.4526750000000  0.5290700000000 1.0
C      1  0.5281800000000  0.5167580000000  0.4540410000000 1.0
C      1  0.4531510000000  0.5277050000000  0.5181240000000 1.0
C      1  0.5172330000000  0.5454170000000  0.4717530000000 1.0
C      1  0.4818090000000  0.5454170000000  0.5290700000000 1.0
C      1  0.4818090000000  0.4526750000000  0.4717530000000 1.0
C      1  0.5281800000000  0.4813340000000  0.5467820000000 1.0
C      1  0.4708630000000  0.4813340000000  0.4540410000000 1.0
C      1  0.4708630000000  0.5167580000000  0.5467820000000 1.0
C      1  0.4531510000000  0.4703870000000  0.4827000000000 1.0
C      1  0.5458920000000  0.4703870000000  0.5181240000000 1.0
C      1  0.5458920000000  0.5277050000000  0.4827000000000 1.0
C      1  0.4818090000000  0.4526750000000  0.5290700000000 1.0
C      1  0.4708630000000  0.5167580000000  0.4540410000000 1.0
C      1  0.5458920000000  0.5277050000000  0.5181240000000 1.0
C      1  0.4818090000000  0.5454170000000  0.4717530000000 1.0
C      1  0.5172330000000  0.5454170000000  0.5290700000000 1.0
C      1  0.5172330000000  0.4526750000000  0.4717530000000 1.0
C      1  0.4708630000000  0.4813340000000  0.5467820000000 1.0
C      1  0.5281800000000  0.4813340000000  0.4540410000000 1.0
C      1  0.5281800000000  0.5167580000000  0.5467820000000 1.0
C      1  0.5458920000000  0.4703870000000  0.4827000000000 1.0
C      1  0.4531510000000  0.4703870000000  0.5181240000000 1.0
C      1  0.4531510000000  0.5277050000000  0.4827000000000 1.0
C      1  0.4995210000000  0.4990460000000  0.4430950000000 1.0
C      1  0.4422040000000  0.4990460000000  0.5004120000000 1.0
C      1  0.4995210000000  0.4417290000000  0.5004120000000 1.0
C      1  0.4995210000000  0.4990460000000  0.5577290000000 1.0
C      1  0.5568390000000  0.4990460000000  0.5004120000000 1.0
C      1  0.4995210000000  0.5563630000000  0.5004120000000 1.0
END
