TITL C-862500-986-1023 1.19667778391041 125000 -399.426974395723 0 0 72 (C1) n - 1
REM
REM in /home/nfs/bkarasulu/CARBON/AIRSS/Generating-Clusters/TERSOFF/Higher-Symm/FIRE-HFTN
REM
REM
REM
REM
REM
REM ./C.cell (b20cbc046b6831c77cfcea5457e17084)
REM AIRSS Version 0.9.1 bugfix July 2018 build 013d7b7c2542+ Fri, 06 Jul 2018 19:26:36 +0100
REM compiler GCC version 9.2.1 20190827 (Red Hat 9.2.1-1)
REM options -cpp -mtune=generic -march=x86-64 -g -O0 -fpre-include=/usr/include/finclude/math-vector-fortran.h
REM seed 649110641 1441820714 349248270 312290023 1284839113 -560354275 1917577100 1708602008 -795088358 1905306040 -632303933 899801910 1485672524 -2086118510 -1371410033 -614692166 564957385 -809801286 126480808 -1212976515 -1759282482 -1707258753 -982272630 810758419 -2142055139 759666302 280958772 1928354085 1617349144 -868048175 1789455406 -1703746917 -1547569770
REM
CELL 1.54180   50.00000   50.00000   50.00000   90.00000   90.00000   90.00000
LATT -1
SFAC C  
C      1  0.5222150000000  0.4798640000000  0.5128980000000 1.0
C      1  0.4942820000000  0.4173250000000  0.4920310000000 1.0
C      1  0.5701320000000  0.5263580000000  0.5365380000000 1.0
C      1  0.5348900000000  0.4769330000000  0.4832540000000 1.0
C      1  0.5524800000000  0.5563430000000  0.5326100000000 1.0
C      1  0.4735740000000  0.4331560000000  0.5091030000000 1.0
C      1  0.5482140000000  0.5389580000000  0.4420710000000 1.0
C      1  0.5617890000000  0.4490760000000  0.5058200000000 1.0
C      1  0.5201240000000  0.5502660000000  0.4408230000000 1.0
C      1  0.5193150000000  0.5803290000000  0.4541870000000 1.0
C      1  0.4707050000000  0.5295650000000  0.4309110000000 1.0
C      1  0.4629200000000  0.5201360000000  0.4952980000000 1.0
C      1  0.4881190000000  0.4668050000000  0.4274970000000 1.0
C      1  0.5028300000000  0.4761960000000  0.5786900000000 1.0
C      1  0.5574010000000  0.5481650000000  0.5030360000000 1.0
C      1  0.5402490000000  0.4146630000000  0.5165570000000 1.0
C      1  0.4574170000000  0.5056860000000  0.4444100000000 1.0
C      1  0.4703680000000  0.5705090000000  0.5077920000000 1.0
C      1  0.5789410000000  0.5119200000000  0.4755140000000 1.0
C      1  0.5543140000000  0.4576160000000  0.4514200000000 1.0
C      1  0.5052400000000  0.4343170000000  0.4619910000000 1.0
C      1  0.5545720000000  0.5139080000000  0.4561000000000 1.0
C      1  0.4241270000000  0.4820980000000  0.5079370000000 1.0
C      1  0.4272480000000  0.5361990000000  0.4667650000000 1.0
C      1  0.5416110000000  0.5237200000000  0.4947370000000 1.0
C      1  0.4308490000000  0.5053110000000  0.5281630000000 1.0
C      1  0.4247780000000  0.4633430000000  0.5524990000000 1.0
C      1  0.4745990000000  0.4589860000000  0.4971260000000 1.0
C      1  0.4845300000000  0.4942920000000  0.5637820000000 1.0
C      1  0.5243330000000  0.5662510000000  0.5380240000000 1.0
C      1  0.5524720000000  0.4825740000000  0.5638790000000 1.0
C      1  0.5469900000000  0.4213900000000  0.5444970000000 1.0
C      1  0.4867040000000  0.4994390000000  0.5342940000000 1.0
C      1  0.4265180000000  0.4536300000000  0.5239990000000 1.0
C      1  0.5642890000000  0.4643330000000  0.4797080000000 1.0
C      1  0.5281380000000  0.5034750000000  0.5289050000000 1.0
C      1  0.4728050000000  0.5623440000000  0.4721830000000 1.0
C      1  0.4813950000000  0.4941980000000  0.4585600000000 1.0
C      1  0.4231570000000  0.4845690000000  0.4768940000000 1.0
C      1  0.4276100000000  0.4925050000000  0.5549470000000 1.0
C      1  0.4861080000000  0.5034820000000  0.4868390000000 1.0
C      1  0.5061550000000  0.5241940000000  0.5317320000000 1.0
C      1  0.5292970000000  0.4353640000000  0.5632430000000 1.0
C      1  0.4360330000000  0.4615990000000  0.4653570000000 1.0
C      1  0.5007160000000  0.5443990000000  0.4654080000000 1.0
C      1  0.5388130000000  0.4562150000000  0.5224960000000 1.0
C      1  0.5156280000000  0.5858510000000  0.4837870000000 1.0
C      1  0.5108410000000  0.5225640000000  0.4828040000000 1.0
C      1  0.5826080000000  0.5282830000000  0.5025390000000 1.0
C      1  0.5285450000000  0.4647140000000  0.5685100000000 1.0
C      1  0.5005260000000  0.5238400000000  0.4288090000000 1.0
C      1  0.5003850000000  0.5686710000000  0.5036760000000 1.0
C      1  0.5215360000000  0.4484800000000  0.4850130000000 1.0
C      1  0.4528400000000  0.5410840000000  0.4797430000000 1.0
C      1  0.4310450000000  0.5081500000000  0.4587590000000 1.0
C      1  0.4809910000000  0.5458520000000  0.5579010000000 1.0
C      1  0.5149720000000  0.4028870000000  0.5073670000000 1.0
C      1  0.4444090000000  0.4303780000000  0.5163840000000 1.0
C      1  0.5516020000000  0.5043140000000  0.5440250000000 1.0
C      1  0.5149800000000  0.5695550000000  0.5876470000000 1.0
C      1  0.5088680000000  0.4900510000000  0.4384260000000 1.0
C      1  0.5049790000000  0.5398400000000  0.5072710000000 1.0
C      1  0.5069140000000  0.5606250000000  0.5611470000000 1.0
C      1  0.4773260000000  0.5212150000000  0.5741720000000 1.0
C      1  0.5283290000000  0.4987830000000  0.4637250000000 1.0
C      1  0.4908980000000  0.4815910000000  0.5078120000000 1.0
C      1  0.5255820000000  0.4584250000000  0.4444260000000 1.0
C      1  0.4811990000000  0.4480230000000  0.4489150000000 1.0
C      1  0.4634070000000  0.5487200000000  0.5328380000000 1.0
C      1  0.4539450000000  0.5222860000000  0.5217740000000 1.0
C      1  0.4638290000000  0.4577320000000  0.4697330000000 1.0
C      1  0.4644510000000  0.5560830000000  0.4422740000000 1.0
END
