TITL C-862129-6180-944 0.274246026261115 125000 -1110.95611522772 0 0 189 (C1) n - 1
REM
REM in /home/nfs/bkarasulu/CARBON/AIRSS/Generating-Clusters/TERSOFF/Higher-Symm/FIRE-HFTN
REM
REM
REM
REM
REM
REM ./C.cell (b20cbc046b6831c77cfcea5457e17084)
REM AIRSS Version 0.9.1 bugfix July 2018 build 013d7b7c2542+ Fri, 06 Jul 2018 19:26:36 +0100
REM compiler GCC version 9.2.1 20190827 (Red Hat 9.2.1-1)
REM options -cpp -mtune=generic -march=x86-64 -g -O0 -fpre-include=/usr/include/finclude/math-vector-fortran.h
REM seed -2010916524 -2061267295 985526026 571427271 18328489 541689537 -854373275 675348321 897134972 -859801194 -1810594180 1744481691 -246275778 -612362033 2126862829 -1904389353 1886646568 1785754946 -521823411 271914448 691853858 1900560019 1359675850 -1664584825 -1851235687 -1981751734 11882358 -1548142392 -1441949074 509236567 1588717896 1050892801 -1310694759
REM
CELL 1.54180   50.00000   50.00000   50.00000   90.00000   90.00000   90.00000
LATT -1
SFAC C  
C      1  0.4908210000000  0.5271060000000  0.3945680000000 1.0
C      1  0.4903990000000  0.6072270000000  0.5284360000000 1.0
C      1  0.4898130000000  0.4718670000000  0.6072700000000 1.0
C      1  0.4892210000000  0.3937600000000  0.4733620000000 1.0
C      1  0.4711630000000  0.5468820000000  0.3895960000000 1.0
C      1  0.4703970000000  0.6121370000000  0.5481310000000 1.0
C      1  0.4704480000000  0.4518020000000  0.6127690000000 1.0
C      1  0.4696210000000  0.3877400000000  0.4537180000000 1.0
C      1  0.5344950000000  0.4569540000000  0.4862460000000 1.0
C      1  0.5361620000000  0.5133560000000  0.4574590000000 1.0
C      1  0.5342800000000  0.5435810000000  0.5148060000000 1.0
C      1  0.5327840000000  0.4857440000000  0.5432070000000 1.0
C      1  0.4263520000000  0.5471920000000  0.6050890000000 1.0
C      1  0.4277380000000  0.3936110000000  0.5492130000000 1.0
C      1  0.4281640000000  0.4522500000000  0.3959840000000 1.0
C      1  0.4291760000000  0.6065790000000  0.4522500000000 1.0
C      1  0.4369710000000  0.4237860000000  0.5910090000000 1.0
C      1  0.4366230000000  0.4099410000000  0.4254550000000 1.0
C      1  0.4380870000000  0.5754680000000  0.4109730000000 1.0
C      1  0.4363800000000  0.5897170000000  0.5756620000000 1.0
C      1  0.4935110000000  0.5034140000000  0.5721940000000 1.0
C      1  0.4952900000000  0.4282160000000  0.5053640000000 1.0
C      1  0.4976400000000  0.4944630000000  0.4279120000000 1.0
C      1  0.4962120000000  0.5729790000000  0.4959560000000 1.0
C      1  0.4796030000000  0.5035040000000  0.4070200000000 1.0
C      1  0.4793570000000  0.5950480000000  0.5044790000000 1.0
C      1  0.4770260000000  0.4947500000000  0.5945150000000 1.0
C      1  0.4777530000000  0.4063980000000  0.4967980000000 1.0
C      1  0.5908150000000  0.4713210000000  0.4047330000000 1.0
C      1  0.6022500000000  0.5890970000000  0.4771500000000 1.0
C      1  0.6036320000000  0.5186770000000  0.5873770000000 1.0
C      1  0.6040880000000  0.4122670000000  0.5131910000000 1.0
C      1  0.5140790000000  0.5074210000000  0.4779420000000 1.0
C      1  0.5130540000000  0.5227320000000  0.5072460000000 1.0
C      1  0.5121950000000  0.4924920000000  0.5219410000000 1.0
C      1  0.5129060000000  0.4774990000000  0.4920210000000 1.0
C      1  0.4481060000000  0.4499320000000  0.5945480000000 1.0
C      1  0.4472380000000  0.4058210000000  0.4517240000000 1.0
C      1  0.4490380000000  0.5491830000000  0.4079350000000 1.0
C      1  0.4483200000000  0.5936490000000  0.5498920000000 1.0
C      1  0.5921320000000  0.5468120000000  0.4504480000000 1.0
C      1  0.5893830000000  0.5511620000000  0.5506310000000 1.0
C      1  0.5929290000000  0.4503000000000  0.5502500000000 1.0
C      1  0.5927090000000  0.4466310000000  0.4514600000000 1.0
C      1  0.5250280000000  0.4374600000000  0.5885180000000 1.0
C      1  0.5242700000000  0.4108430000000  0.4385280000000 1.0
C      1  0.5262770000000  0.5617060000000  0.4119350000000 1.0
C      1  0.5238540000000  0.5881950000000  0.5637900000000 1.0
C      1  0.5644390000000  0.5500350000000  0.4432330000000 1.0
C      1  0.5613680000000  0.5561910000000  0.5547160000000 1.0
C      1  0.5640540000000  0.4483720000000  0.5574870000000 1.0
C      1  0.5640330000000  0.4399210000000  0.4503140000000 1.0
C      1  0.5026190000000  0.5867980000000  0.4192850000000 1.0
C      1  0.4991360000000  0.5806240000000  0.5876930000000 1.0
C      1  0.5014160000000  0.4124510000000  0.5817200000000 1.0
C      1  0.5011760000000  0.4184300000000  0.4138370000000 1.0
C      1  0.4620210000000  0.4794890000000  0.4893240000000 1.0
C      1  0.4623120000000  0.5073920000000  0.4746440000000 1.0
C      1  0.4620330000000  0.5202500000000  0.5029930000000 1.0
C      1  0.4617720000000  0.4933050000000  0.5173190000000 1.0
C      1  0.4374640000000  0.5656440000000  0.4566680000000 1.0
C      1  0.4353710000000  0.5430570000000  0.5640420000000 1.0
C      1  0.4365620000000  0.4344650000000  0.5450920000000 1.0
C      1  0.4363500000000  0.4564050000000  0.4370400000000 1.0
C      1  0.5852710000000  0.5078300000000  0.6074720000000 1.0
C      1  0.5841110000000  0.3922620000000  0.5068110000000 1.0
C      1  0.5871160000000  0.4952290000000  0.3885770000000 1.0
C      1  0.5869340000000  0.6076860000000  0.4938470000000 1.0
C      1  0.4756920000000  0.5972500000000  0.4366980000000 1.0
C      1  0.4726410000000  0.5625210000000  0.5969230000000 1.0
C      1  0.4743470000000  0.4025400000000  0.5646030000000 1.0
C      1  0.4745090000000  0.4362570000000  0.4047490000000 1.0
C      1  0.5117430000000  0.3923850000000  0.5354900000000 1.0
C      1  0.5128220000000  0.4639550000000  0.3925150000000 1.0
C      1  0.5135130000000  0.6072840000000  0.4651660000000 1.0
C      1  0.5103740000000  0.5343280000000  0.6073860000000 1.0
C      1  0.4438360000000  0.5639610000000  0.5867340000000 1.0
C      1  0.4452880000000  0.4120170000000  0.5658590000000 1.0
C      1  0.4452800000000  0.4353440000000  0.4145020000000 1.0
C      1  0.4465970000000  0.5879020000000  0.4357690000000 1.0
C      1  0.5454090000000  0.5415930000000  0.4638470000000 1.0
C      1  0.5424500000000  0.5368400000000  0.5430620000000 1.0
C      1  0.5443460000000  0.4583600000000  0.5372780000000 1.0
C      1  0.5452590000000  0.4617670000000  0.4586510000000 1.0
C      1  0.5383970000000  0.5122290000000  0.3916180000000 1.0
C      1  0.5386130000000  0.6067650000000  0.5130850000000 1.0
C      1  0.5372820000000  0.4875710000000  0.6074320000000 1.0
C      1  0.5364120000000  0.3911650000000  0.4875430000000 1.0
C      1  0.4649390000000  0.4838930000000  0.3918350000000 1.0
C      1  0.4655380000000  0.6104290000000  0.4844470000000 1.0
C      1  0.4626760000000  0.5147820000000  0.6097700000000 1.0
C      1  0.4639800000000  0.3908110000000  0.5168560000000 1.0
C      1  0.4205920000000  0.5012970000000  0.5851400000000 1.0
C      1  0.4209890000000  0.4138830000000  0.5034580000000 1.0
C      1  0.4222260000000  0.4982070000000  0.4158840000000 1.0
C      1  0.4225940000000  0.5866690000000  0.4983290000000 1.0
C      1  0.5863940000000  0.5459390000000  0.4991090000000 1.0
C      1  0.5812110000000  0.5033660000000  0.5453880000000 1.0
C      1  0.5847150000000  0.4626590000000  0.5033110000000 1.0
C      1  0.5871030000000  0.4943680000000  0.4531550000000 1.0
C      1  0.4517710000000  0.5334000000000  0.4338980000000 1.0
C      1  0.4516790000000  0.5682130000000  0.5340370000000 1.0
C      1  0.4512850000000  0.4659090000000  0.5687000000000 1.0
C      1  0.4504830000000  0.4314350000000  0.4676970000000 1.0
C      1  0.5196310000000  0.5636200000000  0.6064190000000 1.0
C      1  0.5221650000000  0.3941670000000  0.5645550000000 1.0
C      1  0.5224310000000  0.4345760000000  0.3950660000000 1.0
C      1  0.5237670000000  0.6049050000000  0.4361960000000 1.0
C      1  0.5508250000000  0.5769860000000  0.5721360000000 1.0
C      1  0.5529040000000  0.4300890000000  0.5776850000000 1.0
C      1  0.5523070000000  0.4205360000000  0.4314770000000 1.0
C      1  0.5540400000000  0.5686430000000  0.4229730000000 1.0
C      1  0.4310740000000  0.4952770000000  0.5259420000000 1.0
C      1  0.4302380000000  0.4738930000000  0.4963980000000 1.0
C      1  0.4289450000000  0.5044110000000  0.4765100000000 1.0
C      1  0.4304500000000  0.5259800000000  0.5059050000000 1.0
C      1  0.3978050000000  0.5421600000000  0.5267640000000 1.0
C      1  0.4010960000000  0.4730020000000  0.5451010000000 1.0
C      1  0.3986300000000  0.4576820000000  0.4740240000000 1.0
C      1  0.4011620000000  0.5279270000000  0.4555940000000 1.0
C      1  0.5522280000000  0.5081660000000  0.5446170000000 1.0
C      1  0.5543630000000  0.4570780000000  0.5084830000000 1.0
C      1  0.5558560000000  0.4905470000000  0.4553170000000 1.0
C      1  0.5551800000000  0.5454680000000  0.4930440000000 1.0
C      1  0.4502670000000  0.5182920000000  0.5607570000000 1.0
C      1  0.4509230000000  0.4381890000000  0.5201010000000 1.0
C      1  0.4511610000000  0.4810650000000  0.4410400000000 1.0
C      1  0.4518260000000  0.5615690000000  0.4816180000000 1.0
C      1  0.5499500000000  0.4288160000000  0.4033190000000 1.0
C      1  0.5513670000000  0.5968010000000  0.4310160000000 1.0
C      1  0.5474580000000  0.5697190000000  0.6002830000000 1.0
C      1  0.5498690000000  0.4019200000000  0.5697460000000 1.0
C      1  0.5168780000000  0.5154170000000  0.4330190000000 1.0
C      1  0.5149120000000  0.5674510000000  0.5171180000000 1.0
C      1  0.5134230000000  0.4830200000000  0.5670720000000 1.0
C      1  0.5147130000000  0.4328750000000  0.4843980000000 1.0
C      1  0.5173850000000  0.5438040000000  0.5576100000000 1.0
C      1  0.5205980000000  0.4417150000000  0.5455610000000 1.0
C      1  0.5217000000000  0.4537930000000  0.4417870000000 1.0
C      1  0.5209070000000  0.5572910000000  0.4560010000000 1.0
C      1  0.4800880000000  0.5384370000000  0.6125590000000 1.0
C      1  0.4816790000000  0.3875510000000  0.5402350000000 1.0
C      1  0.4821210000000  0.4600070000000  0.3887430000000 1.0
C      1  0.4833090000000  0.6128140000000  0.4607550000000 1.0
C      1  0.4333500000000  0.5187510000000  0.6053790000000 1.0
C      1  0.4345090000000  0.3939180000000  0.5207480000000 1.0
C      1  0.4354680000000  0.4805360000000  0.3959640000000 1.0
C      1  0.4360900000000  0.6065910000000  0.4806740000000 1.0
C      1  0.4865780000000  0.4647440000000  0.4865650000000 1.0
C      1  0.4885240000000  0.5138890000000  0.4639560000000 1.0
C      1  0.4858060000000  0.5348470000000  0.5099740000000 1.0
C      1  0.4849670000000  0.4885710000000  0.5332730000000 1.0
C      1  0.3897080000000  0.5175900000000  0.5115890000000 1.0
C      1  0.3879340000000  0.4863520000000  0.5217070000000 1.0
C      1  0.3898360000000  0.4823490000000  0.4887550000000 1.0
C      1  0.3881040000000  0.5139400000000  0.4787190000000 1.0
C      1  0.5180040000000  0.5934520000000  0.5346480000000 1.0
C      1  0.5177300000000  0.4663970000000  0.5933500000000 1.0
C      1  0.5171670000000  0.4064470000000  0.4673500000000 1.0
C      1  0.5190900000000  0.5328530000000  0.4069140000000 1.0
C      1  0.4068730000000  0.5429760000000  0.5548610000000 1.0
C      1  0.4087300000000  0.4447380000000  0.5465260000000 1.0
C      1  0.4078130000000  0.4564070000000  0.4459820000000 1.0
C      1  0.4094030000000  0.5560310000000  0.4552370000000 1.0
C      1  0.5058410000000  0.5282640000000  0.5780930000000 1.0
C      1  0.5084910000000  0.4217270000000  0.5296020000000 1.0
C      1  0.5099690000000  0.4699550000000  0.4217430000000 1.0
C      1  0.5093290000000  0.5781720000000  0.4714720000000 1.0
C      1  0.5960590000000  0.4682850000000  0.4757830000000 1.0
C      1  0.6028040000000  0.5196270000000  0.4482930000000 1.0
C      1  0.5969500000000  0.5588680000000  0.5238620000000 1.0
C      1  0.5937230000000  0.4792630000000  0.5341180000000 1.0
C      1  0.5652300000000  0.3941160000000  0.4848840000000 1.0
C      1  0.5673240000000  0.5158940000000  0.3937590000000 1.0
C      1  0.5671640000000  0.5997980000000  0.5139790000000 1.0
C      1  0.5663200000000  0.4859540000000  0.6027910000000 1.0
C      1  0.5279560000000  0.6209700000000  0.4881930000000 1.0
C      1  0.5257260000000  0.5121810000000  0.6212750000000 1.0
C      1  0.5254160000000  0.3778620000000  0.5126780000000 1.0
C      1  0.5273040000000  0.4867790000000  0.3781470000000 1.0
C      1  0.4360170000000  0.4388700000000  0.4927570000000 1.0
C      1  0.4366830000000  0.5085620000000  0.4413910000000 1.0
C      1  0.4370690000000  0.5610550000000  0.5090750000000 1.0
C      1  0.4361350000000  0.4905160000000  0.5606970000000 1.0
C      1  0.5982620000000  0.4395980000000  0.5212300000000 1.0
C      1  0.5959700000000  0.4712410000000  0.4333320000000 1.0
C      1  0.5975940000000  0.5604070000000  0.4756680000000 1.0
C      1  0.5966500000000  0.5237880000000  0.5595280000000 1.0
C      1  0.5954890000000  0.5173580000000  0.4986330000000 1.0
END
