TITL C-862129-6180-689 -1176998.45583515 125000 -639.321143108467 0 0 114 (C1) n - 1
REM
REM in /home/nfs/bkarasulu/CARBON/AIRSS/Generating-Clusters/TERSOFF/Higher-Symm/FIRE-HFTN
REM
REM
REM
REM
REM
REM ./C.cell (b20cbc046b6831c77cfcea5457e17084)
REM AIRSS Version 0.9.1 bugfix July 2018 build 013d7b7c2542+ Fri, 06 Jul 2018 19:26:36 +0100
REM compiler GCC version 9.2.1 20190827 (Red Hat 9.2.1-1)
REM options -cpp -mtune=generic -march=x86-64 -g -O0 -fpre-include=/usr/include/finclude/math-vector-fortran.h
REM seed 408947489 713629840 754783977 -750901726 -742385888 1860788709 -1781492360 1930241728 719885253 -1716031420 -1008679820 35167028 925286948 79223980 -1516756018 -1706957806 -1401798427 110416551 -1001145676 1546861011 -244337579 1295764167 1782660940 -496138516 -1674367775 1646546289 -546398164 822138403 28234331 -645550350 1854357079 -1991956001 804613531
REM
CELL 1.54180   50.00000   50.00000   50.00000   90.00000   90.00000   90.00000
LATT -1
SFAC C  
C      1  0.5241480000000  0.5682380000000  0.5113840000000 1.0
C      1  0.4757820000000  0.4325040000000  0.5121660000000 1.0
C      1  0.4759050000000  0.5683490000000  0.4891580000000 1.0
C      1  0.5238380000000  0.4319310000000  0.4897800000000 1.0
C      1  0.4829140000000  0.4198560000000  0.4614850000000 1.0
C      1  0.5171270000000  0.5807940000000  0.4611140000000 1.0
C      1  0.5167940000000  0.4197590000000  0.5401480000000 1.0
C      1  0.4834800000000  0.5803990000000  0.5398620000000 1.0
C      1  0.4500890000000  0.4851120000000  0.5856950000000 1.0
C      1  0.5502860000000  0.5146780000000  0.5829390000000 1.0
C      1  0.5505500000000  0.4855040000000  0.4183360000000 1.0
C      1  0.4502410000000  0.5151080000000  0.4155500000000 1.0
C      1  0.4243390000000  0.4325290000000  0.4809340000000 1.0
C      1  0.5770280000000  0.5694960000000  0.4811290000000 1.0
C      1  0.5769360000000  0.4315360000000  0.5197460000000 1.0
C      1  0.4232130000000  0.5666010000000  0.5199570000000 1.0
C      1  0.4979750000000  0.5465630000000  0.5748600000000 1.0
C      1  0.5028380000000  0.4534000000000  0.5755260000000 1.0
C      1  0.5029590000000  0.5471140000000  0.4258730000000 1.0
C      1  0.4979160000000  0.4526780000000  0.4257550000000 1.0
C      1  0.4249480000000  0.5294780000000  0.4124070000000 1.0
C      1  0.5753080000000  0.4699230000000  0.4172480000000 1.0
C      1  0.5750210000000  0.5302530000000  0.5840660000000 1.0
C      1  0.4249830000000  0.4702760000000  0.5879620000000 1.0
C      1  0.4193040000000  0.4946630000000  0.4352120000000 1.0
C      1  0.5814240000000  0.5057090000000  0.4383610000000 1.0
C      1  0.5810980000000  0.4945950000000  0.5627250000000 1.0
C      1  0.4191730000000  0.5057300000000  0.5662180000000 1.0
C      1  0.5360780000000  0.5017020000000  0.4678740000000 1.0
C      1  0.4600330000000  0.4996020000000  0.4665850000000 1.0
C      1  0.4615100000000  0.4942390000000  0.5300550000000 1.0
C      1  0.5363620000000  0.5008310000000  0.5296730000000 1.0
C      1  0.4254480000000  0.5221590000000  0.4537620000000 1.0
C      1  0.5724590000000  0.4796530000000  0.4580410000000 1.0
C      1  0.5726270000000  0.5195500000000  0.5427750000000 1.0
C      1  0.4261470000000  0.4791170000000  0.5469210000000 1.0
C      1  0.5373280000000  0.5076060000000  0.6076770000000 1.0
C      1  0.4640950000000  0.4923270000000  0.6097780000000 1.0
C      1  0.4645640000000  0.5073750000000  0.3918830000000 1.0
C      1  0.5377180000000  0.4924640000000  0.3935480000000 1.0
C      1  0.4301200000000  0.5011110000000  0.4817210000000 1.0
C      1  0.5639750000000  0.5023180000000  0.4820680000000 1.0
C      1  0.5676380000000  0.4996050000000  0.5141100000000 1.0
C      1  0.4302780000000  0.4974210000000  0.5177080000000 1.0
C      1  0.4466910000000  0.5507310000000  0.5633730000000 1.0
C      1  0.5542820000000  0.4492160000000  0.5630440000000 1.0
C      1  0.5546680000000  0.5513970000000  0.4376810000000 1.0
C      1  0.4464200000000  0.4494210000000  0.4369100000000 1.0
C      1  0.4187940000000  0.5195800000000  0.5384170000000 1.0
C      1  0.5816900000000  0.4791750000000  0.5356260000000 1.0
C      1  0.5822020000000  0.5218410000000  0.4653660000000 1.0
C      1  0.4166580000000  0.4787640000000  0.4618840000000 1.0
C      1  0.4984180000000  0.4617530000000  0.3968900000000 1.0
C      1  0.5036410000000  0.5379740000000  0.3971290000000 1.0
C      1  0.5033330000000  0.4620490000000  0.6044260000000 1.0
C      1  0.4979930000000  0.5379770000000  0.6037500000000 1.0
C      1  0.5052660000000  0.4782760000000  0.4387590000000 1.0
C      1  0.4939870000000  0.5220380000000  0.4392620000000 1.0
C      1  0.4944370000000  0.4790840000000  0.5629560000000 1.0
C      1  0.5052760000000  0.5209380000000  0.5617190000000 1.0
C      1  0.3988620000000  0.4967200000000  0.5093920000000 1.0
C      1  0.5986110000000  0.5041770000000  0.5064260000000 1.0
C      1  0.6118200000000  0.4925480000000  0.4833820000000 1.0
C      1  0.3947520000000  0.5085220000000  0.4817380000000 1.0
C      1  0.4926400000000  0.5117490000000  0.3881490000000 1.0
C      1  0.5098190000000  0.4880400000000  0.3883910000000 1.0
C      1  0.5093900000000  0.5119720000000  0.6128040000000 1.0
C      1  0.4922690000000  0.4881740000000  0.6135560000000 1.0
C      1  0.5235740000000  0.4382280000000  0.4399790000000 1.0
C      1  0.4767280000000  0.5622640000000  0.4391390000000 1.0
C      1  0.4766510000000  0.4384760000000  0.5621440000000 1.0
C      1  0.5238740000000  0.5610930000000  0.5610180000000 1.0
C      1  0.5123070000000  0.5077730000000  0.4828360000000 1.0
C      1  0.4834020000000  0.4907470000000  0.4813180000000 1.0
C      1  0.4842360000000  0.4887010000000  0.5124870000000 1.0
C      1  0.5119000000000  0.5041150000000  0.5130760000000 1.0
C      1  0.4293940000000  0.5466010000000  0.5394630000000 1.0
C      1  0.5719680000000  0.4519770000000  0.5390180000000 1.0
C      1  0.5731240000000  0.5492730000000  0.4613160000000 1.0
C      1  0.4276380000000  0.4519040000000  0.4600900000000 1.0
C      1  0.4387410000000  0.5259820000000  0.5794010000000 1.0
C      1  0.5623250000000  0.4748150000000  0.5775160000000 1.0
C      1  0.5624850000000  0.5254260000000  0.4235720000000 1.0
C      1  0.4393670000000  0.4750490000000  0.4219220000000 1.0
C      1  0.5308190000000  0.5846610000000  0.4867980000000 1.0
C      1  0.4687900000000  0.4165000000000  0.4871510000000 1.0
C      1  0.4693580000000  0.5843190000000  0.5142690000000 1.0
C      1  0.5305070000000  0.4157230000000  0.5144970000000 1.0
C      1  0.4737180000000  0.4385870000000  0.4389390000000 1.0
C      1  0.5269010000000  0.5615720000000  0.4393300000000 1.0
C      1  0.5266570000000  0.4389140000000  0.5618820000000 1.0
C      1  0.4740870000000  0.5612580000000  0.5618780000000 1.0
C      1  0.5491490000000  0.4438640000000  0.4793740000000 1.0
C      1  0.4506600000000  0.5559990000000  0.4786400000000 1.0
C      1  0.4506310000000  0.4450080000000  0.5226330000000 1.0
C      1  0.5494840000000  0.5560270000000  0.5214910000000 1.0
C      1  0.4258960000000  0.5627320000000  0.4917140000000 1.0
C      1  0.5737830000000  0.4354510000000  0.4916080000000 1.0
C      1  0.5740640000000  0.5647610000000  0.5092450000000 1.0
C      1  0.4260570000000  0.4386540000000  0.5089860000000 1.0
C      1  0.5490150000000  0.4568900000000  0.4516600000000 1.0
C      1  0.4506540000000  0.5442850000000  0.4502720000000 1.0
C      1  0.4504220000000  0.4564610000000  0.5513950000000 1.0
C      1  0.5494510000000  0.5425000000000  0.5491440000000 1.0
C      1  0.4872260000000  0.4218440000000  0.5388770000000 1.0
C      1  0.5130440000000  0.5783740000000  0.5382980000000 1.0
C      1  0.5125190000000  0.4215390000000  0.4630170000000 1.0
C      1  0.4874870000000  0.5789250000000  0.4623800000000 1.0
C      1  0.5332430000000  0.5150160000000  0.5564820000000 1.0
C      1  0.4660770000000  0.4841690000000  0.5587430000000 1.0
C      1  0.4655450000000  0.5168480000000  0.4426980000000 1.0
C      1  0.5330750000000  0.4841910000000  0.4442700000000 1.0
C      1  0.4999820000000  0.4476910000000  0.5008880000000 1.0
C      1  0.5000670000000  0.5528420000000  0.5001870000000 1.0
END
