TITL C-862131-2149-663 -0.0138726870477442 125000 -746.828405447306 0 0 134 (Ci) n - 1
REM
REM in /home/nfs/bkarasulu/CARBON/AIRSS/Generating-Clusters/TERSOFF/Higher-Symm/FIRE-HFTN
REM
REM
REM
REM
REM
REM ./C.cell (b20cbc046b6831c77cfcea5457e17084)
REM AIRSS Version 0.9.1 bugfix July 2018 build 013d7b7c2542+ Fri, 06 Jul 2018 19:26:36 +0100
REM compiler GCC version 9.2.1 20190827 (Red Hat 9.2.1-1)
REM options -cpp -mtune=generic -march=x86-64 -g -O0 -fpre-include=/usr/include/finclude/math-vector-fortran.h
REM seed -1978034789 694473007 -741746618 211330343 -91723610 972269033 840652077 1974975950 1771426182 1769920935 716043394 -1813012821 -1519513830 1257744149 -2052880896 -44423594 -979154560 1460033434 1903928323 -1245287420 2027093170 -1853807261 1751944530 574618567 1166979471 -1164283504 428361444 -91859996 -949821462 249669384 -1472563280 -1702267550 2082254591
REM
CELL 1.54180   50.00000   50.00000   50.00000   90.00000   90.00000   90.00000
LATT -1
SFAC C  
C      1  0.4541360000000  0.4091510000000  0.5168380000000 1.0
C      1  0.5458640000000  0.5908490000000  0.4831620000000 1.0
C      1  0.5143110000000  0.4968120000000  0.4111090000000 1.0
C      1  0.4856890000000  0.5031880000000  0.5888910000000 1.0
C      1  0.5071680000000  0.4645270000000  0.5406120000000 1.0
C      1  0.4928320000000  0.5354730000000  0.4593880000000 1.0
C      1  0.4371420000000  0.4841050000000  0.4105820000000 1.0
C      1  0.5628580000000  0.5158950000000  0.5894180000000 1.0
C      1  0.5235290000000  0.4748950000000  0.5709640000000 1.0
C      1  0.4764710000000  0.5251050000000  0.4290360000000 1.0
C      1  0.5816430000000  0.4779380000000  0.5567300000000 1.0
C      1  0.4183570000000  0.5220620000000  0.4432700000000 1.0
C      1  0.4696750000000  0.4110640000000  0.4527330000000 1.0
C      1  0.5303250000000  0.5889360000000  0.5472670000000 1.0
C      1  0.4738170000000  0.4583150000000  0.4815210000000 1.0
C      1  0.5261830000000  0.5416850000000  0.5184790000000 1.0
C      1  0.5725390000000  0.4546300000000  0.4889890000000 1.0
C      1  0.4274610000000  0.5453700000000  0.5110110000000 1.0
C      1  0.5218500000000  0.5286880000000  0.5475390000000 1.0
C      1  0.4781500000000  0.4713120000000  0.4524610000000 1.0
C      1  0.4500960000000  0.5193580000000  0.4432740000000 1.0
C      1  0.5499040000000  0.4806420000000  0.5567260000000 1.0
C      1  0.5763790000000  0.5370070000000  0.5129040000000 1.0
C      1  0.4236210000000  0.4629930000000  0.4870960000000 1.0
C      1  0.4091930000000  0.5511430000000  0.4384110000000 1.0
C      1  0.5908070000000  0.4488570000000  0.5615890000000 1.0
C      1  0.4163750000000  0.4540700000000  0.5339640000000 1.0
C      1  0.5836250000000  0.5459300000000  0.4660360000000 1.0
C      1  0.4473800000000  0.4482340000000  0.5370170000000 1.0
C      1  0.5526200000000  0.5517660000000  0.4629830000000 1.0
C      1  0.5584500000000  0.5555120000000  0.5676810000000 1.0
C      1  0.4415500000000  0.4444880000000  0.4323190000000 1.0
C      1  0.5454180000000  0.5063870000000  0.5401780000000 1.0
C      1  0.4545820000000  0.4936130000000  0.4598220000000 1.0
C      1  0.4035890000000  0.4838780000000  0.5352740000000 1.0
C      1  0.5964110000000  0.5161220000000  0.4647260000000 1.0
C      1  0.5142330000000  0.5531890000000  0.4120200000000 1.0
C      1  0.4857670000000  0.4468110000000  0.5879800000000 1.0
C      1  0.4779210000000  0.4270980000000  0.5174130000000 1.0
C      1  0.5220790000000  0.5729020000000  0.4825870000000 1.0
C      1  0.4739050000000  0.5325330000000  0.5916910000000 1.0
C      1  0.5260950000000  0.4674670000000  0.4083090000000 1.0
C      1  0.4150400000000  0.5407220000000  0.4854990000000 1.0
C      1  0.5849600000000  0.4592780000000  0.5145010000000 1.0
C      1  0.5280920000000  0.5234730000000  0.4030340000000 1.0
C      1  0.4719080000000  0.4765270000000  0.5969660000000 1.0
C      1  0.5663210000000  0.5003880000000  0.4642300000000 1.0
C      1  0.4336790000000  0.4996120000000  0.5357700000000 1.0
C      1  0.5381780000000  0.4181580000000  0.4926750000000 1.0
C      1  0.4618220000000  0.5818420000000  0.5073250000000 1.0
C      1  0.4232200000000  0.4688580000000  0.4326370000000 1.0
C      1  0.5767800000000  0.5311420000000  0.5673630000000 1.0
C      1  0.4781630000000  0.5551350000000  0.5085810000000 1.0
C      1  0.5218370000000  0.4448650000000  0.4914190000000 1.0
C      1  0.5141700000000  0.4451190000000  0.5771650000000 1.0
C      1  0.4858300000000  0.5548810000000  0.4228350000000 1.0
C      1  0.4812780000000  0.5953960000000  0.5299670000000 1.0
C      1  0.5187220000000  0.4046040000000  0.4700330000000 1.0
C      1  0.5113300000000  0.5904190000000  0.5240290000000 1.0
C      1  0.4886700000000  0.4095810000000  0.4759710000000 1.0
C      1  0.5141060000000  0.4259620000000  0.4468500000000 1.0
C      1  0.4858940000000  0.5740380000000  0.5531500000000 1.0
C      1  0.6072310000000  0.4861880000000  0.4469630000000 1.0
C      1  0.3927690000000  0.5138120000000  0.5530370000000 1.0
C      1  0.5116350000000  0.5630100000000  0.4571720000000 1.0
C      1  0.4883650000000  0.4369900000000  0.5428280000000 1.0
C      1  0.4627020000000  0.4377370000000  0.5652020000000 1.0
C      1  0.5372980000000  0.5622630000000  0.4347980000000 1.0
C      1  0.5660190000000  0.4716800000000  0.4206300000000 1.0
C      1  0.4339810000000  0.5283200000000  0.5793700000000 1.0
C      1  0.5323650000000  0.5299430000000  0.4724040000000 1.0
C      1  0.4676350000000  0.4700570000000  0.5275960000000 1.0
C      1  0.4443360000000  0.4271470000000  0.4565240000000 1.0
C      1  0.5556640000000  0.5728530000000  0.5434760000000 1.0
C      1  0.5421510000000  0.5132280000000  0.4500360000000 1.0
C      1  0.4578490000000  0.4867720000000  0.5499640000000 1.0
C      1  0.4339730000000  0.5731530000000  0.5206080000000 1.0
C      1  0.5660270000000  0.4268470000000  0.4793920000000 1.0
C      1  0.4715480000000  0.4537180000000  0.4271910000000 1.0
C      1  0.5284520000000  0.5462820000000  0.5728090000000 1.0
C      1  0.3996760000000  0.5462710000000  0.5534770000000 1.0
C      1  0.6003240000000  0.4537290000000  0.4465230000000 1.0
C      1  0.5754430000000  0.5180550000000  0.5396130000000 1.0
C      1  0.4245570000000  0.4819450000000  0.4603870000000 1.0
C      1  0.5529930000000  0.5533680000000  0.5213690000000 1.0
C      1  0.4470070000000  0.4466320000000  0.4786310000000 1.0
C      1  0.5903680000000  0.4891570000000  0.5252630000000 1.0
C      1  0.4096320000000  0.5108430000000  0.4747370000000 1.0
C      1  0.5091750000000  0.5645630000000  0.5079810000000 1.0
C      1  0.4908250000000  0.4354370000000  0.4920190000000 1.0
C      1  0.5412830000000  0.4961060000000  0.5111590000000 1.0
C      1  0.4587170000000  0.5038940000000  0.4888410000000 1.0
C      1  0.4210430000000  0.5093950000000  0.5635560000000 1.0
C      1  0.5789570000000  0.4906050000000  0.4364440000000 1.0
C      1  0.4526740000000  0.4682050000000  0.5735500000000 1.0
C      1  0.5473260000000  0.5317950000000  0.4264500000000 1.0
C      1  0.4278790000000  0.4158020000000  0.5047670000000 1.0
C      1  0.5721210000000  0.5841980000000  0.4952330000000 1.0
C      1  0.5333860000000  0.5208890000000  0.5913500000000 1.0
C      1  0.4666140000000  0.4791110000000  0.4086500000000 1.0
C      1  0.4250560000000  0.5582320000000  0.4638100000000 1.0
C      1  0.5749440000000  0.4417680000000  0.5361900000000 1.0
C      1  0.5561370000000  0.4741980000000  0.4758850000000 1.0
C      1  0.4438630000000  0.5258020000000  0.5241150000000 1.0
C      1  0.4781350000000  0.4838140000000  0.5024230000000 1.0
C      1  0.5218650000000  0.5161860000000  0.4975770000000 1.0
C      1  0.4518450000000  0.5443370000000  0.4614280000000 1.0
C      1  0.5481550000000  0.4556630000000  0.5385720000000 1.0
C      1  0.5704980000000  0.5055450000000  0.4998610000000 1.0
C      1  0.4295020000000  0.4944550000000  0.5001390000000 1.0
C      1  0.4712060000000  0.5354460000000  0.4853560000000 1.0
C      1  0.5287940000000  0.4645540000000  0.5146440000000 1.0
C      1  0.4143770000000  0.4419360000000  0.5071850000000 1.0
C      1  0.5856230000000  0.5580640000000  0.4928150000000 1.0
C      1  0.4279060000000  0.5598800000000  0.5503990000000 1.0
C      1  0.5720940000000  0.4401200000000  0.4496010000000 1.0
C      1  0.5127590000000  0.5738020000000  0.5672980000000 1.0
C      1  0.4872410000000  0.4261980000000  0.4327020000000 1.0
C      1  0.4852020000000  0.5017640000000  0.4120830000000 1.0
C      1  0.5147980000000  0.4982360000000  0.5879170000000 1.0
C      1  0.5071640000000  0.4864760000000  0.4857380000000 1.0
C      1  0.4928360000000  0.5135240000000  0.5142620000000 1.0
C      1  0.5082210000000  0.4775270000000  0.4576960000000 1.0
C      1  0.4917790000000  0.5224730000000  0.5423040000000 1.0
C      1  0.4788330000000  0.5039780000000  0.5597640000000 1.0
C      1  0.5211670000000  0.4960220000000  0.4402360000000 1.0
C      1  0.4541180000000  0.5480280000000  0.5676570000000 1.0
C      1  0.5458820000000  0.4519720000000  0.4323430000000 1.0
C      1  0.4633020000000  0.5877760000000  0.4738900000000 1.0
C      1  0.5366980000000  0.4122240000000  0.5261100000000 1.0
C      1  0.4752650000000  0.5473290000000  0.5418960000000 1.0
C      1  0.5247350000000  0.4526710000000  0.4581040000000 1.0
C      1  0.4832620000000  0.5763690000000  0.4494730000000 1.0
C      1  0.5167380000000  0.4236310000000  0.5505270000000 1.0
END
