TITL C-862133-5440-1167 72.1160552698736 125000 -667.900635821017 0 0 117 (C1) n - 1
REM
REM in /home/nfs/bkarasulu/CARBON/AIRSS/Generating-Clusters/TERSOFF/Higher-Symm/FIRE-HFTN
REM
REM
REM
REM
REM
REM ./C.cell (b20cbc046b6831c77cfcea5457e17084)
REM AIRSS Version 0.9.1 bugfix July 2018 build 013d7b7c2542+ Fri, 06 Jul 2018 19:26:36 +0100
REM compiler GCC version 9.2.1 20190827 (Red Hat 9.2.1-1)
REM options -cpp -mtune=generic -march=x86-64 -g -O0 -fpre-include=/usr/include/finclude/math-vector-fortran.h
REM seed 1400190396 632547780 -441958086 1603294582 131279027 1111321825 1245045886 1963268892 -1250249715 598153952 -2032062751 -1386240461 1584778706 -1882536313 -1238411044 -1492730648 -680385916 -781263937 1382848909 1806856004 -866031 1847908022 1717221385 -57046527 -1853706921 266795491 1058035211 -1771924438 128400526 1219159031 1046631200 1593468670 -1494193194
REM
CELL 1.54180   50.00000   50.00000   50.00000   90.00000   90.00000   90.00000
LATT -1
SFAC C  
C      1  0.5485200000000  0.5666360000000  0.4882070000000 1.0
C      1  0.5777420000000  0.4742810000000  0.4884440000000 1.0
C      1  0.4989750000000  0.4189180000000  0.4877920000000 1.0
C      1  0.4220920000000  0.4753590000000  0.4886420000000 1.0
C      1  0.4512170000000  0.5669030000000  0.4886710000000 1.0
C      1  0.5130750000000  0.5227400000000  0.4196810000000 1.0
C      1  0.5238490000000  0.4955080000000  0.4242000000000 1.0
C      1  0.5023140000000  0.4757410000000  0.4242990000000 1.0
C      1  0.4759700000000  0.4905240000000  0.4204850000000 1.0
C      1  0.4825150000000  0.5204180000000  0.4192460000000 1.0
C      1  0.5740700000000  0.5239060000000  0.5138650000000 1.0
C      1  0.5455980000000  0.4372640000000  0.5140890000000 1.0
C      1  0.4541340000000  0.4376710000000  0.5137860000000 1.0
C      1  0.4258980000000  0.5249050000000  0.5139340000000 1.0
C      1  0.5004630000000  0.5783420000000  0.5136660000000 1.0
C      1  0.4810840000000  0.5181920000000  0.5549260000000 1.0
C      1  0.5110020000000  0.5237060000000  0.5545270000000 1.0
C      1  0.5255150000000  0.4969530000000  0.5544290000000 1.0
C      1  0.5045200000000  0.4749250000000  0.5546510000000 1.0
C      1  0.4770970000000  0.4880580000000  0.5550790000000 1.0
C      1  0.4640800000000  0.4977530000000  0.4820840000000 1.0
C      1  0.4859570000000  0.5341700000000  0.4818300000000 1.0
C      1  0.5269910000000  0.5245620000000  0.4810710000000 1.0
C      1  0.5306320000000  0.4828700000000  0.4789370000000 1.0
C      1  0.4921350000000  0.4663130000000  0.4799320000000 1.0
C      1  0.5308560000000  0.4299040000000  0.5378990000000 1.0
C      1  0.4424830000000  0.4490800000000  0.5378410000000 1.0
C      1  0.4332480000000  0.5393560000000  0.5380200000000 1.0
C      1  0.5163960000000  0.5757770000000  0.5378010000000 1.0
C      1  0.5764760000000  0.5078360000000  0.5378230000000 1.0
C      1  0.4827130000000  0.4344210000000  0.4302360000000 1.0
C      1  0.4329050000000  0.4960650000000  0.4305270000000 1.0
C      1  0.4738360000000  0.5642310000000  0.4304280000000 1.0
C      1  0.5540410000000  0.5436110000000  0.4303950000000 1.0
C      1  0.5575950000000  0.4629170000000  0.4309110000000 1.0
C      1  0.5259270000000  0.4973910000000  0.5969180000000 1.0
C      1  0.5051460000000  0.4747850000000  0.5969890000000 1.0
C      1  0.4772370000000  0.4875710000000  0.5970840000000 1.0
C      1  0.4807750000000  0.5180950000000  0.5970390000000 1.0
C      1  0.5108790000000  0.5241560000000  0.5969280000000 1.0
C      1  0.4568280000000  0.4082560000000  0.5093360000000 1.0
C      1  0.3989490000000  0.5128530000000  0.5096360000000 1.0
C      1  0.4809300000000  0.6004040000000  0.5092700000000 1.0
C      1  0.5892080000000  0.5492800000000  0.5098280000000 1.0
C      1  0.5744090000000  0.4304700000000  0.5101290000000 1.0
C      1  0.5011660000000  0.4724070000000  0.5215260000000 1.0
C      1  0.4736280000000  0.4903870000000  0.5222970000000 1.0
C      1  0.4822090000000  0.5225060000000  0.5219920000000 1.0
C      1  0.5154920000000  0.5240550000000  0.5214620000000 1.0
C      1  0.5269720000000  0.4928380000000  0.5213060000000 1.0
C      1  0.4251270000000  0.5314350000000  0.4676850000000 1.0
C      1  0.5066690000000  0.5805910000000  0.4671010000000 1.0
C      1  0.5798230000000  0.5189400000000  0.4680560000000 1.0
C      1  0.5426050000000  0.4301000000000  0.4682540000000 1.0
C      1  0.4473000000000  0.4393390000000  0.4676830000000 1.0
C      1  0.4277230000000  0.4777820000000  0.5343680000000 1.0
C      1  0.4560700000000  0.5623220000000  0.5343910000000 1.0
C      1  0.5451850000000  0.5612170000000  0.5342360000000 1.0
C      1  0.5714110000000  0.4761180000000  0.5340930000000 1.0
C      1  0.4991420000000  0.4250390000000  0.5338970000000 1.0
C      1  0.5367860000000  0.4459420000000  0.5622500000000 1.0
C      1  0.4596000000000  0.4484130000000  0.5621930000000 1.0
C      1  0.4380600000000  0.5227270000000  0.5623300000000 1.0
C      1  0.5020670000000  0.5661170000000  0.5621450000000 1.0
C      1  0.5630720000000  0.5186170000000  0.5621590000000 1.0
C      1  0.4572600000000  0.4762720000000  0.5754780000000 1.0
C      1  0.4639340000000  0.5335430000000  0.5753570000000 1.0
C      1  0.5202540000000  0.5447340000000  0.5750380000000 1.0
C      1  0.5483240000000  0.4947930000000  0.5750470000000 1.0
C      1  0.5096070000000  0.4524920000000  0.5752030000000 1.0
C      1  0.4462810000000  0.5691270000000  0.4395570000000 1.0
C      1  0.5492410000000  0.5714160000000  0.4390000000000 1.0
C      1  0.5828880000000  0.4756780000000  0.4394200000000 1.0
C      1  0.5028980000000  0.4145630000000  0.4386230000000 1.0
C      1  0.4188680000000  0.4717960000000  0.4394880000000 1.0
C      1  0.5474250000000  0.5442350000000  0.5604550000000 1.0
C      1  0.5561490000000  0.4687990000000  0.5604260000000 1.0
C      1  0.4873180000000  0.4370420000000  0.5603710000000 1.0
C      1  0.4357350000000  0.4927780000000  0.5606350000000 1.0
C      1  0.4728850000000  0.5591450000000  0.5605540000000 1.0
C      1  0.4667070000000  0.4510510000000  0.4487080000000 1.0
C      1  0.4425150000000  0.5175360000000  0.4482850000000 1.0
C      1  0.4970140000000  0.5600390000000  0.4481850000000 1.0
C      1  0.5579670000000  0.5206230000000  0.4485110000000 1.0
C      1  0.5370990000000  0.4519150000000  0.4491950000000 1.0
C      1  0.4233290000000  0.4584670000000  0.4651780000000 1.0
C      1  0.4354290000000  0.5603720000000  0.4653140000000 1.0
C      1  0.5374070000000  0.5791590000000  0.4646360000000 1.0
C      1  0.5871230000000  0.4888460000000  0.4653340000000 1.0
C      1  0.5161340000000  0.4141770000000  0.4649110000000 1.0
C      1  0.5885110000000  0.4533780000000  0.5232260000000 1.0
C      1  0.4828740000000  0.4018780000000  0.5226230000000 1.0
C      1  0.4007490000000  0.4862580000000  0.5231150000000 1.0
C      1  0.4561400000000  0.5906340000000  0.5229530000000 1.0
C      1  0.5720530000000  0.5700010000000  0.5228170000000 1.0
C      1  0.5128050000000  0.5343730000000  0.4492510000000 1.0
C      1  0.5403610000000  0.4967960000000  0.4487720000000 1.0
C      1  0.5085530000000  0.4611420000000  0.4497830000000 1.0
C      1  0.4673940000000  0.4817150000000  0.4497270000000 1.0
C      1  0.4713470000000  0.5268160000000  0.4493440000000 1.0
C      1  0.5699110000000  0.4235150000000  0.4805480000000 1.0
C      1  0.4493780000000  0.4110870000000  0.4795580000000 1.0
C      1  0.3991270000000  0.5202210000000  0.4797170000000 1.0
C      1  0.4884150000000  0.6023040000000  0.4793200000000 1.0
C      1  0.5944470000000  0.5429370000000  0.4802640000000 1.0
C      1  0.5312060000000  0.5472110000000  0.5059250000000 1.0
C      1  0.5534030000000  0.4846290000000  0.5055000000000 1.0
C      1  0.5018300000000  0.4449750000000  0.5054250000000 1.0
C      1  0.4476980000000  0.4809050000000  0.5063040000000 1.0
C      1  0.4649650000000  0.5444340000000  0.5061370000000 1.0
C      1  0.4617670000000  0.4560270000000  0.4905460000000 1.0
C      1  0.4456360000000  0.5233990000000  0.4907500000000 1.0
C      1  0.5051170000000  0.5591580000000  0.4904870000000 1.0
C      1  0.5572580000000  0.5135990000000  0.4904490000000 1.0
C      1  0.5307020000000  0.4500060000000  0.4906540000000 1.0
C      1  0.4957640000000  0.5033410000000  0.4552220000000 1.0
C      1  0.5001660000000  0.5008190000000  0.4875330000000 1.0
END
