TITL C-862500-986-1039 1607.75296980556 125000 -194.690279065503 0 0 39 (C1) n - 1
REM
REM in /home/nfs/bkarasulu/CARBON/AIRSS/Generating-Clusters/TERSOFF/Higher-Symm/FIRE-HFTN
REM
REM
REM
REM
REM
REM ./C.cell (b20cbc046b6831c77cfcea5457e17084)
REM AIRSS Version 0.9.1 bugfix July 2018 build 013d7b7c2542+ Fri, 06 Jul 2018 19:26:36 +0100
REM compiler GCC version 9.2.1 20190827 (Red Hat 9.2.1-1)
REM options -cpp -mtune=generic -march=x86-64 -g -O0 -fpre-include=/usr/include/finclude/math-vector-fortran.h
REM seed -158408476 -1416623518 -1903238724 2062421099 921969633 709105618 -217325339 -370288909 -2080334325 -1561440705 1673918109 -2597609 -625689940 -948483980 1451565736 -1217358798 805165971 1915985005 724620624 -893283603 1350244371 536823281 1420730799 1112377371 -739843380 1848571367 -678141674 1342012086 -49077795 -789498152 1973739859 -2021945614 -666215532
REM
CELL 1.54180   50.00000   50.00000   50.00000   90.00000   90.00000   90.00000
LATT -1
SFAC C  
C      1  0.5308300000000  0.5529220000000  0.4814420000000 1.0
C      1  0.5315360000000  0.5342830000000  0.5441480000000 1.0
C      1  0.5302470000000  0.4693140000000  0.5455070000000 1.0
C      1  0.5299330000000  0.4476130000000  0.4839880000000 1.0
C      1  0.5299880000000  0.4996400000000  0.4442800000000 1.0
C      1  0.5143550000000  0.4443640000000  0.5337070000000 1.0
C      1  0.5140550000000  0.4514700000000  0.4566040000000 1.0
C      1  0.5140510000000  0.5268860000000  0.4394550000000 1.0
C      1  0.5159940000000  0.5664460000000  0.5060870000000 1.0
C      1  0.5151510000000  0.5156310000000  0.5642370000000 1.0
C      1  0.5066230000000  0.4890900000000  0.5544620000000 1.0
C      1  0.5061610000000  0.4455060000000  0.5054010000000 1.0
C      1  0.5062280000000  0.4789020000000  0.4490790000000 1.0
C      1  0.5063960000000  0.5427280000000  0.4631960000000 1.0
C      1  0.5080110000000  0.5488850000000  0.5283310000000 1.0
C      1  0.5429430000000  0.5345260000000  0.5100410000000 1.0
C      1  0.5418760000000  0.5012970000000  0.5352330000000 1.0
C      1  0.5416420000000  0.4671040000000  0.5113630000000 1.0
C      1  0.5417160000000  0.4792980000000  0.4714780000000 1.0
C      1  0.5415220000000  0.5209950000000  0.4706250000000 1.0
C      1  0.4861110000000  0.4901090000000  0.5338160000000 1.0
C      1  0.4859590000000  0.4656410000000  0.4999140000000 1.0
C      1  0.4858570000000  0.4904680000000  0.4662370000000 1.0
C      1  0.4859330000000  0.5300560000000  0.4796560000000 1.0
C      1  0.4870750000000  0.5300560000000  0.5214580000000 1.0
C      1  0.4571760000000  0.4868230000000  0.5394240000000 1.0
C      1  0.4570060000000  0.4590980000000  0.4971670000000 1.0
C      1  0.4567940000000  0.4865070000000  0.4609890000000 1.0
C      1  0.4568490000000  0.5347250000000  0.4758800000000 1.0
C      1  0.4586220000000  0.5360340000000  0.5267320000000 1.0
C      1  0.4407020000000  0.5085900000000  0.4717450000000 1.0
C      1  0.4406640000000  0.5378060000000  0.5018800000000 1.0
C      1  0.4408540000000  0.5124580000000  0.5353280000000 1.0
C      1  0.4409090000000  0.4754360000000  0.5155520000000 1.0
C      1  0.4479590000000  0.4598710000000  0.4693340000000 1.0
C      1  0.4958370000000  0.5011810000000  0.5001440000000 1.0
C      1  0.4258250000000  0.5047670000000  0.5032820000000 1.0
C      1  0.5328790000000  0.5007390000000  0.4997900000000 1.0
C      1  0.5662900000000  0.5007880000000  0.5010620000000 1.0
END
