TITL C-862128-1543-711 -0.0131730772091131 125000 -571.809608554067 0 0 97 (C2) n - 1
REM
REM in /home/nfs/bkarasulu/CARBON/AIRSS/Generating-Clusters/TERSOFF/Higher-Symm/FIRE-HFTN
REM
REM
REM
REM
REM
REM ./C.cell (b20cbc046b6831c77cfcea5457e17084)
REM AIRSS Version 0.9.1 bugfix July 2018 build 013d7b7c2542+ Fri, 06 Jul 2018 19:26:36 +0100
REM compiler GCC version 9.2.1 20190827 (Red Hat 9.2.1-1)
REM options -cpp -mtune=generic -march=x86-64 -g -O0 -fpre-include=/usr/include/finclude/math-vector-fortran.h
REM seed -1141949145 -279525456 -595196479 -76435603 -1417493321 -2104452802 1014852717 1993069405 -2082159954 1381780307 -742382916 -1648088908 1056855291 -1981911504 1633015908 1723545038 -1453039021 -1837009960 1981435944 1447543087 1034273636 19182234 129217110 1484803633 -1716936730 -279261786 -1302010893 -643070043 1562096396 352018473 106055118 1611968239 -1731529430
REM
CELL 1.54180   50.00000   50.00000   50.00000   90.00000   90.00000   90.00000
LATT -1
SFAC C  
C      1  0.4196180000000  0.5490210000000  0.5531530000000 1.0
C      1  0.5794430000000  0.5490210000000  0.4462500000000 1.0
C      1  0.5823930000000  0.4967380000000  0.5476470000000 1.0
C      1  0.4166670000000  0.4967390000000  0.4517550000000 1.0
C      1  0.5551430000000  0.4523990000000  0.5458560000000 1.0
C      1  0.4439170000000  0.4524000000000  0.4535450000000 1.0
C      1  0.5094680000000  0.4603090000000  0.4152780000000 1.0
C      1  0.4895910000000  0.4603080000000  0.5841230000000 1.0
C      1  0.5478620000000  0.5317350000000  0.5655990000000 1.0
C      1  0.4511980000000  0.5317360000000  0.4338030000000 1.0
C      1  0.5196280000000  0.5042580000000  0.5881470000000 1.0
C      1  0.4794330000000  0.5042590000000  0.4112550000000 1.0
C      1  0.5884140000000  0.4627790000000  0.4853550000000 1.0
C      1  0.4106460000000  0.4627800000000  0.5140460000000 1.0
C      1  0.5637820000000  0.5523230000000  0.5260920000000 1.0
C      1  0.4352790000000  0.5523240000000  0.4733110000000 1.0
C      1  0.4778250000000  0.4655450000000  0.4875470000000 1.0
C      1  0.5212340000000  0.4655440000000  0.5118550000000 1.0
C      1  0.5107390000000  0.4986120000000  0.4743820000000 1.0
C      1  0.4883210000000  0.4986120000000  0.5250190000000 1.0
C      1  0.5148520000000  0.5423020000000  0.4991110000000 1.0
C      1  0.4842080000000  0.5423020000000  0.5002910000000 1.0
C      1  0.4935590000000  0.5873380000000  0.5405620000000 1.0
C      1  0.5055020000000  0.5873390000000  0.4588400000000 1.0
C      1  0.5525180000000  0.5400140000000  0.4347860000000 1.0
C      1  0.4465420000000  0.5400130000000  0.5646170000000 1.0
C      1  0.6114340000000  0.4791030000000  0.4904400000000 1.0
C      1  0.3876260000000  0.4791040000000  0.5089620000000 1.0
C      1  0.5186200000000  0.5316180000000  0.5747460000000 1.0
C      1  0.4804400000000  0.5316190000000  0.4246570000000 1.0
C      1  0.5179270000000  0.4269400000000  0.4887540000000 1.0
C      1  0.4811320000000  0.4269400000000  0.5106470000000 1.0
C      1  0.4570420000000  0.4403360000000  0.5533250000000 1.0
C      1  0.5420180000000  0.4403360000000  0.4460770000000 1.0
C      1  0.4335580000000  0.4729660000000  0.4991420000000 1.0
C      1  0.5655020000000  0.4729660000000  0.5002590000000 1.0
C      1  0.5300560000000  0.5689310000000  0.4943360000000 1.0
C      1  0.4690050000000  0.5689310000000  0.5050660000000 1.0
C      1  0.4470430000000  0.4868370000000  0.5732890000000 1.0
C      1  0.5520170000000  0.4868370000000  0.4261120000000 1.0
C      1  0.5856810000000  0.4332910000000  0.4866290000000 1.0
C      1  0.4133790000000  0.4332920000000  0.5127720000000 1.0
C      1  0.4625830000000  0.4615700000000  0.5728490000000 1.0
C      1  0.5364770000000  0.4615710000000  0.4265520000000 1.0
C      1  0.3947280000000  0.5054160000000  0.4986640000000 1.0
C      1  0.6043320000000  0.5054150000000  0.5007380000000 1.0
C      1  0.5437160000000  0.5114170000000  0.4397000000000 1.0
C      1  0.4553440000000  0.5114170000000  0.5597020000000 1.0
C      1  0.4505170000000  0.4545360000000  0.4823510000000 1.0
C      1  0.5485430000000  0.4545360000000  0.5170500000000 1.0
C      1  0.5263850000000  0.4060430000000  0.5078340000000 1.0
C      1  0.4726740000000  0.4060430000000  0.4915670000000 1.0
C      1  0.4839560000000  0.4938610000000  0.4827960000000 1.0
C      1  0.5151040000000  0.4938610000000  0.5166050000000 1.0
C      1  0.5113930000000  0.6050880000000  0.5549940000000 1.0
C      1  0.4876680000000  0.6050890000000  0.4444090000000 1.0
C      1  0.4614670000000  0.4604410000000  0.4319440000000 1.0
C      1  0.5375930000000  0.4604400000000  0.5674580000000 1.0
C      1  0.4397310000000  0.5252720000000  0.4825570000000 1.0
C      1  0.5593290000000  0.5252720000000  0.5168450000000 1.0
C      1  0.4568430000000  0.5688890000000  0.5319260000000 1.0
C      1  0.5422180000000  0.5688890000000  0.4674770000000 1.0
C      1  0.5605810000000  0.4297380000000  0.5021620000000 1.0
C      1  0.4384780000000  0.4297390000000  0.4972390000000 1.0
C      1  0.5422720000000  0.4865270000000  0.5799110000000 1.0
C      1  0.4567880000000  0.4865280000000  0.4194900000000 1.0
C      1  0.4941670000000  0.4240550000000  0.4470900000000 1.0
C      1  0.5048920000000  0.4240540000000  0.5523100000000 1.0
C      1  0.5207370000000  0.4252350000000  0.4598280000000 1.0
C      1  0.4783220000000  0.4252340000000  0.5395730000000 1.0
C      1  0.4498360000000  0.5740110000000  0.4839410000000 1.0
C      1  0.5492250000000  0.5740110000000  0.5154620000000 1.0
C      1  0.4871380000000  0.4464960000000  0.4285480000000 1.0
C      1  0.5119220000000  0.4464950000000  0.5708540000000 1.0
C      1  0.4679620000000  0.5180120000000  0.4921060000000 1.0
C      1  0.5310980000000  0.5180120000000  0.5072960000000 1.0
C      1  0.4812480000000  0.5131360000000  0.5479550000000 1.0
C      1  0.5178130000000  0.5131370000000  0.4514470000000 1.0
C      1  0.3988790000000  0.5306600000000  0.5439840000000 1.0
C      1  0.6001810000000  0.5306600000000  0.4554190000000 1.0
C      1  0.5627290000000  0.5053270000000  0.5677610000000 1.0
C      1  0.4363320000000  0.5053280000000  0.4316410000000 1.0
C      1  0.5257350000000  0.4091340000000  0.5373660000000 1.0
C      1  0.4733240000000  0.4091350000000  0.4620350000000 1.0
C      1  0.5811350000000  0.5064430000000  0.5202280000000 1.0
C      1  0.4179250000000  0.5064440000000  0.4791740000000 1.0
C      1  0.5706490000000  0.5702390000000  0.4637490000000 1.0
C      1  0.4284120000000  0.5702390000000  0.5356530000000 1.0
C      1  0.4889750000000  0.5898370000000  0.5099070000000 1.0
C      1  0.5100860000000  0.5898370000000  0.4894960000000 1.0
C      1  0.4958130000000  0.5365910000000  0.5563620000000 1.0
C      1  0.5032480000000  0.5365920000000  0.4430400000000 1.0
C      1  0.5236160000000  0.5611130000000  0.4422070000000 1.0
C      1  0.4754450000000  0.5611130000000  0.5571950000000 1.0
C      1  0.6094300000000  0.5283960000000  0.4832360000000 1.0
C      1  0.3896310000000  0.5283970000000  0.5161660000000 1.0
C      1  0.4995300000000  0.4482640000000  0.4997010000000 1.0
END
