TITL C-862130-1496-833 7.44366600248936e-05 125000 -683.50468198043 0 0 117 (C5) n - 1
REM
REM in /home/nfs/bkarasulu/CARBON/AIRSS/Generating-Clusters/TERSOFF/Higher-Symm/FIRE-HFTN
REM
REM
REM
REM
REM
REM ./C.cell (b20cbc046b6831c77cfcea5457e17084)
REM AIRSS Version 0.9.1 bugfix July 2018 build 013d7b7c2542+ Fri, 06 Jul 2018 19:26:36 +0100
REM compiler GCC version 9.2.1 20190827 (Red Hat 9.2.1-1)
REM options -cpp -mtune=generic -march=x86-64 -g -O0 -fpre-include=/usr/include/finclude/math-vector-fortran.h
REM seed -128578883 1197339894 -232330106 932904115 1368588473 -597532095 842644578 -278980705 -403209689 7608948 -169594613 1632694223 1209323583 -1717618371 -1179748778 456432054 212031047 1396825314 -1955320597 387820759 -721760027 -1554877808 -1931082546 318919642 1011580172 -2107378006 -494268535 1701664417 -763424839 -318484200 319362355 -2025933929 1402355852
REM
CELL 1.54180   50.00000   50.00000   50.00000   90.00000   90.00000   90.00000
LATT -1
SFAC C  
C      1  0.4992990000000  0.5441850000000  0.5314990000000 1.0
C      1  0.5415590000000  0.5142980000000  0.5314990000000 1.0
C      1  0.5261940000000  0.4648700000000  0.5314990000000 1.0
C      1  0.4744370000000  0.4642100000000  0.5314990000000 1.0
C      1  0.4578160000000  0.5132290000000  0.5314990000000 1.0
C      1  0.5224770000000  0.5145730000000  0.4142020000000 1.0
C      1  0.5205590000000  0.4831040000000  0.4142020000000 1.0
C      1  0.4900380000000  0.4752030000000  0.4142020000000 1.0
C      1  0.4730920000000  0.5017900000000  0.4142020000000 1.0
C      1  0.4931400000000  0.5261220000000  0.4142020000000 1.0
C      1  0.4096710000000  0.4534620000000  0.4825220000000 1.0
C      1  0.4275790000000  0.5715040000000  0.4825220000000 1.0
C      1  0.5453780000000  0.5909490000000  0.4825220000000 1.0
C      1  0.6002740000000  0.4849250000000  0.4825220000000 1.0
C      1  0.5164020000000  0.3999530000000  0.4825220000000 1.0
C      1  0.4845120000000  0.4680030000000  0.5030140000000 1.0
C      1  0.4645370000000  0.5048200000000  0.5030140000000 1.0
C      1  0.4933780000000  0.5351940000000  0.5030140000000 1.0
C      1  0.5311790000000  0.5171510000000  0.5030140000000 1.0
C      1  0.5256990000000  0.4756240000000  0.5030140000000 1.0
C      1  0.4755070000000  0.5331890000000  0.5460830000000 1.0
C      1  0.5237500000000  0.5335270000000  0.5460830000000 1.0
C      1  0.5389790000000  0.4877510000000  0.5460830000000 1.0
C      1  0.5001490000000  0.4591210000000  0.5460830000000 1.0
C      1  0.4609210000000  0.4872040000000  0.5460830000000 1.0
C      1  0.4986740000000  0.4759390000000  0.4552800000000 1.0
C      1  0.4764600000000  0.4938030000000  0.4552800000000 1.0
C      1  0.4865860000000  0.5204500000000  0.4552800000000 1.0
C      1  0.5150570000000  0.5190540000000  0.4552800000000 1.0
C      1  0.5225280000000  0.4915450000000  0.4552800000000 1.0
C      1  0.4629360000000  0.4352180000000  0.5645410000000 1.0
C      1  0.4266890000000  0.5152090000000  0.5645410000000 1.0
C      1  0.4915640000000  0.5744000000000  0.5645410000000 1.0
C      1  0.5679050000000  0.5309920000000  0.5645410000000 1.0
C      1  0.5502120000000  0.4449730000000  0.5645410000000 1.0
C      1  0.4968230000000  0.4284320000000  0.5575050000000 1.0
C      1  0.4307070000000  0.4808830000000  0.5575050000000 1.0
C      1  0.4601590000000  0.5599720000000  0.5575050000000 1.0
C      1  0.5444780000000  0.5564010000000  0.5575050000000 1.0
C      1  0.5671380000000  0.4751050000000  0.5575050000000 1.0
C      1  0.4635050000000  0.5984140000000  0.4679540000000 1.0
C      1  0.5820730000000  0.5650980000000  0.4679540000000 1.0
C      1  0.5870270000000  0.4420380000000  0.4679540000000 1.0
C      1  0.4715210000000  0.3992990000000  0.4679540000000 1.0
C      1  0.3951800000000  0.4959440000000  0.4679540000000 1.0
C      1  0.4718350000000  0.5420470000000  0.4652310000000 1.0
C      1  0.5310390000000  0.5397570000000  0.4652310000000 1.0
C      1  0.5471570000000  0.4827430000000  0.4652310000000 1.0
C      1  0.4979130000000  0.4497960000000  0.4652310000000 1.0
C      1  0.4513620000000  0.4864480000000  0.4652310000000 1.0
C      1  0.4414150000000  0.5576430000000  0.5049470000000 1.0
C      1  0.5364720000000  0.5735080000000  0.5049470000000 1.0
C      1  0.5809340000000  0.4880060000000  0.5049470000000 1.0
C      1  0.5133560000000  0.4192980000000  0.5049470000000 1.0
C      1  0.4271290000000  0.4623370000000  0.5049470000000 1.0
C      1  0.5682440000000  0.4418920000000  0.5157880000000 1.0
C      1  0.4655770000000  0.4171170000000  0.5157880000000 1.0
C      1  0.4102900000000  0.5071030000000  0.5157880000000 1.0
C      1  0.4787870000000  0.5874920000000  0.5157880000000 1.0
C      1  0.5764080000000  0.5471890000000  0.5157880000000 1.0
C      1  0.4160480000000  0.4790610000000  0.5267660000000 1.0
C      1  0.4538970000000  0.5733500000000  0.5267660000000 1.0
C      1  0.5552660000000  0.5664910000000  0.5267660000000 1.0
C      1  0.5800680000000  0.4679630000000  0.5267660000000 1.0
C      1  0.4940260000000  0.4139280000000  0.5267660000000 1.0
C      1  0.4068050000000  0.4709000000000  0.4584460000000 1.0
C      1  0.4432790000000  0.5796180000000  0.4584460000000 1.0
C      1  0.5579470000000  0.5785260000000  0.4584460000000 1.0
C      1  0.5923420000000  0.4691320000000  0.4584460000000 1.0
C      1  0.4989320000000  0.4026160000000  0.4584460000000 1.0
C      1  0.4860230000000  0.5530680000000  0.4273160000000 1.0
C      1  0.5459050000000  0.5296690000000  0.4273160000000 1.0
C      1  0.5421550000000  0.4654870000000  0.4273160000000 1.0
C      1  0.4799570000000  0.4492200000000  0.4273160000000 1.0
C      1  0.4452650000000  0.5033480000000  0.4273160000000 1.0
C      1  0.5332010000000  0.4415190000000  0.4440460000000 1.0
C      1  0.4543940000000  0.4503300000000  0.4440460000000 1.0
C      1  0.4384210000000  0.5280030000000  0.4440460000000 1.0
C      1  0.5073570000000  0.5671960000000  0.4440460000000 1.0
C      1  0.5659330000000  0.5137450000000  0.4440460000000 1.0
C      1  0.5382170000000  0.4420040000000  0.4740630000000 1.0
C      1  0.4564060000000  0.4457090000000  0.4740630000000 1.0
C      1  0.4346490000000  0.5246610000000  0.4740630000000 1.0
C      1  0.5030130000000  0.5697510000000  0.4740630000000 1.0
C      1  0.5670210000000  0.5186660000000  0.4740630000000 1.0
C      1  0.5099280000000  0.5251890000000  0.5759140000000 1.0
C      1  0.5267780000000  0.4983200000000  0.5759140000000 1.0
C      1  0.5064300000000  0.4739910000000  0.5759140000000 1.0
C      1  0.4770040000000  0.4858250000000  0.5759140000000 1.0
C      1  0.4791660000000  0.5174670000000  0.5759140000000 1.0
C      1  0.5704620000000  0.5246640000000  0.5341710000000 1.0
C      1  0.5449840000000  0.4405860000000  0.5341720000000 1.0
C      1  0.4571480000000  0.4388350000000  0.5341710000000 1.0
C      1  0.4283400000000  0.5218310000000  0.5341710000000 1.0
C      1  0.4983720000000  0.5748760000000  0.5341710000000 1.0
C      1  0.4587430000000  0.5357450000000  0.4922360000000 1.0
C      1  0.5210000000000  0.5502600000000  0.4922360000000 1.0
C      1  0.5540430000000  0.4955370000000  0.4922360000000 1.0
C      1  0.5122090000000  0.4472000000000  0.4922360000000 1.0
C      1  0.4533100000000  0.4720500000000  0.4922360000000 1.0
C      1  0.4841270000000  0.5888830000000  0.4860350000000 1.0
C      1  0.5793810000000  0.5425390000000  0.4860350000000 1.0
C      1  0.5647410000000  0.4376270000000  0.4860350000000 1.0
C      1  0.4604390000000  0.4191310000000  0.4860350000000 1.0
C      1  0.4106180000000  0.5126120000000  0.4860350000000 1.0
C      1  0.5149170000000  0.5591710000000  0.5779830000000 1.0
C      1  0.5606380000000  0.5040750000000  0.5779830000000 1.0
C      1  0.5223670000000  0.4435660000000  0.5779830000000 1.0
C      1  0.4529940000000  0.4612660000000  0.5779830000000 1.0
C      1  0.4483890000000  0.5327140000000  0.5779830000000 1.0
C      1  0.5388310000000  0.5597900000000  0.4418530000000 1.0
C      1  0.5686170000000  0.4815230000000  0.4418530000000 1.0
C      1  0.5033840000000  0.4290090000000  0.4418530000000 1.0
C      1  0.4332830000000  0.4748210000000  0.4418530000000 1.0
C      1  0.4551900000000  0.5556490000000  0.4418530000000 1.0
C      1  0.4998610000000  0.5001580000000  0.5043200000000 1.0
C      1  0.4998610000000  0.5001580000000  0.5363910000000 1.0
END
