TITL C-862503-991-940 0.000243271860203126 125000 -526.654632046578 0 0 102 (C2) n - 1
REM
REM in /home/nfs/bkarasulu/CARBON/AIRSS/Generating-Clusters/TERSOFF/Higher-Symm/FIRE-HFTN
REM
REM
REM
REM
REM
REM ./C.cell (b20cbc046b6831c77cfcea5457e17084)
REM AIRSS Version 0.9.1 bugfix July 2018 build 013d7b7c2542+ Fri, 06 Jul 2018 19:26:36 +0100
REM compiler GCC version 9.2.1 20190827 (Red Hat 9.2.1-1)
REM options -cpp -mtune=generic -march=x86-64 -g -O0 -fpre-include=/usr/include/finclude/math-vector-fortran.h
REM seed -74695671 477419044 1442900150 -1478869850 -221658553 -1023352877 -182832554 -778138330 -1882678901 -1842213875 -1871015085 -1415924234 -64894504 1175103370 1367457224 -981103810 -448300954 2128775705 1772595264 2060841552 -1120340263 -1092236878 -805944379 767143475 -1124949676 -380962532 -635279584 -724308784 -1385245797 -296582454 1323115516 1577486207 -1727038409
REM
CELL 1.54180   50.00000   50.00000   50.00000   90.00000   90.00000   90.00000
LATT -1
SFAC C  
C      1  0.5232340000000  0.4293380000000  0.4765010000000 1.0
C      1  0.5230760000000  0.5708280000000  0.5236130000000 1.0
C      1  0.4758010000000  0.4293380000000  0.5234990000000 1.0
C      1  0.4759600000000  0.5708280000000  0.4763870000000 1.0
C      1  0.5231960000000  0.4761130000000  0.4298010000000 1.0
C      1  0.5233440000000  0.5234700000000  0.5700890000000 1.0
C      1  0.4756910000000  0.5234700000000  0.4299110000000 1.0
C      1  0.4758390000000  0.4761130000000  0.5701990000000 1.0
C      1  0.4844170000000  0.4259690000000  0.4486630000000 1.0
C      1  0.4841590000000  0.5738390000000  0.5512720000000 1.0
C      1  0.5146190000000  0.4259690000000  0.5513370000000 1.0
C      1  0.5148770000000  0.5738390000000  0.4487280000000 1.0
C      1  0.4838410000000  0.4488710000000  0.4264760000000 1.0
C      1  0.4842760000000  0.5511700000000  0.5738080000000 1.0
C      1  0.5147600000000  0.5511700000000  0.4261920000000 1.0
C      1  0.5151950000000  0.4488710000000  0.5735240000000 1.0
C      1  0.5400850000000  0.4693570000000  0.4990770000000 1.0
C      1  0.5396510000000  0.5307250000000  0.5019930000000 1.0
C      1  0.4589510000000  0.4693570000000  0.5009230000000 1.0
C      1  0.4593850000000  0.5307250000000  0.4980070000000 1.0
C      1  0.5396250000000  0.5012470000000  0.4686320000000 1.0
C      1  0.5380900000000  0.4995000000000  0.5300200000000 1.0
C      1  0.4609460000000  0.4995000000000  0.4699800000000 1.0
C      1  0.4594110000000  0.5012470000000  0.5313680000000 1.0
C      1  0.5474100000000  0.5744420000000  0.4507080000000 1.0
C      1  0.5471100000000  0.4250630000000  0.5493490000000 1.0
C      1  0.4516260000000  0.5744420000000  0.5492920000000 1.0
C      1  0.4519260000000  0.4250630000000  0.4506510000000 1.0
C      1  0.5476790000000  0.4508370000000  0.5747240000000 1.0
C      1  0.5472460000000  0.5488750000000  0.4251120000000 1.0
C      1  0.4517900000000  0.5488750000000  0.5748880000000 1.0
C      1  0.4513570000000  0.4508370000000  0.4252760000000 1.0
C      1  0.5223800000000  0.4944150000000  0.5806880000000 1.0
C      1  0.5219920000000  0.5052450000000  0.4191000000000 1.0
C      1  0.4766560000000  0.4944150000000  0.4193120000000 1.0
C      1  0.4770440000000  0.5052450000000  0.5809000000000 1.0
C      1  0.5221260000000  0.5814260000000  0.4944390000000 1.0
C      1  0.5219940000000  0.4186470000000  0.5056230000000 1.0
C      1  0.4770420000000  0.4186470000000  0.4943770000000 1.0
C      1  0.4769100000000  0.5814260000000  0.5055610000000 1.0
C      1  0.5062340000000  0.4396160000000  0.5225400000000 1.0
C      1  0.5064220000000  0.5604300000000  0.4775890000000 1.0
C      1  0.4928020000000  0.4396160000000  0.4774600000000 1.0
C      1  0.4926140000000  0.5604300000000  0.5224110000000 1.0
C      1  0.5061530000000  0.5225910000000  0.4399430000000 1.0
C      1  0.5061410000000  0.4774250000000  0.5598640000000 1.0
C      1  0.4928950000000  0.4774250000000  0.4401360000000 1.0
C      1  0.4928830000000  0.5225910000000  0.5600570000000 1.0
C      1  0.5496100000000  0.4192560000000  0.5183070000000 1.0
C      1  0.5498030000000  0.5804850000000  0.4817910000000 1.0
C      1  0.4494260000000  0.4192560000000  0.4816930000000 1.0
C      1  0.4492330000000  0.5804850000000  0.5182090000000 1.0
C      1  0.5497950000000  0.5177300000000  0.4193030000000 1.0
C      1  0.5502250000000  0.4819670000000  0.5805650000000 1.0
C      1  0.4488110000000  0.4819670000000  0.4194350000000 1.0
C      1  0.4492410000000  0.5177300000000  0.5806970000000 1.0
C      1  0.4322880000000  0.4370680000000  0.4990390000000 1.0
C      1  0.4323840000000  0.5627230000000  0.5005780000000 1.0
C      1  0.5667480000000  0.4370680000000  0.5009610000000 1.0
C      1  0.5666520000000  0.5627230000000  0.4994220000000 1.0
C      1  0.4302170000000  0.4999040000000  0.4380270000000 1.0
C      1  0.4307810000000  0.4998450000000  0.5620640000000 1.0
C      1  0.5682550000000  0.4998450000000  0.4379360000000 1.0
C      1  0.5688190000000  0.4999040000000  0.5619730000000 1.0
C      1  0.4518960000000  0.4496130000000  0.5265720000000 1.0
C      1  0.4518920000000  0.5507750000000  0.4726850000000 1.0
C      1  0.5471400000000  0.4496130000000  0.4734280000000 1.0
C      1  0.5471440000000  0.5507750000000  0.5273150000000 1.0
C      1  0.4526220000000  0.5252260000000  0.4510740000000 1.0
C      1  0.4526310000000  0.4743630000000  0.5490040000000 1.0
C      1  0.5464050000000  0.4743630000000  0.4509960000000 1.0
C      1  0.5464140000000  0.5252260000000  0.5489260000000 1.0
C      1  0.5053790000000  0.4648570000000  0.4021740000000 1.0
C      1  0.5060180000000  0.5350330000000  0.5978410000000 1.0
C      1  0.4936570000000  0.4648570000000  0.5978260000000 1.0
C      1  0.4930180000000  0.5350330000000  0.4021590000000 1.0
C      1  0.5058910000000  0.4018220000000  0.4649790000000 1.0
C      1  0.5055340000000  0.5982050000000  0.5351180000000 1.0
C      1  0.4935020000000  0.5982050000000  0.4648820000000 1.0
C      1  0.4931450000000  0.4018220000000  0.5350210000000 1.0
C      1  0.4882740000000  0.5116040000000  0.5323460000000 1.0
C      1  0.4892640000000  0.4888110000000  0.4678070000000 1.0
C      1  0.5107610000000  0.5116040000000  0.4676540000000 1.0
C      1  0.5097710000000  0.4888110000000  0.5321930000000 1.0
C      1  0.4881150000000  0.5328520000000  0.5109180000000 1.0
C      1  0.4883230000000  0.4672440000000  0.4888700000000 1.0
C      1  0.5107130000000  0.4672440000000  0.5111300000000 1.0
C      1  0.5109210000000  0.5328520000000  0.4890820000000 1.0
C      1  0.4398400000000  0.4797190000000  0.4603970000000 1.0
C      1  0.4378780000000  0.5224670000000  0.5405450000000 1.0
C      1  0.5591960000000  0.4797190000000  0.5396030000000 1.0
C      1  0.5611580000000  0.5224670000000  0.4594550000000 1.0
C      1  0.4282740000000  0.4642690000000  0.4837850000000 1.0
C      1  0.4298610000000  0.5347900000000  0.5141880000000 1.0
C      1  0.5691750000000  0.5347900000000  0.4858120000000 1.0
C      1  0.5707620000000  0.4642690000000  0.5162150000000 1.0
C      1  0.4995180000000  0.6060950000000  0.5000000000000 1.0
C      1  0.4995180000000  0.3939010000000  0.5000000000000 1.0
C      1  0.4998400000000  0.4999380000000  0.6055150000000 1.0
C      1  0.4991950000000  0.4999380000000  0.3944850000000 1.0
C      1  0.4514180000000  0.4999950000000  0.5006640000000 1.0
C      1  0.5476180000000  0.4999950000000  0.4993360000000 1.0
END
