TITL C-862129-6180-1108 40.7954706326836 125000 -1038.65989476424 0 0 183 (C3) n - 1
REM
REM in /home/nfs/bkarasulu/CARBON/AIRSS/Generating-Clusters/TERSOFF/Higher-Symm/FIRE-HFTN
REM
REM
REM
REM
REM
REM ./C.cell (b20cbc046b6831c77cfcea5457e17084)
REM AIRSS Version 0.9.1 bugfix July 2018 build 013d7b7c2542+ Fri, 06 Jul 2018 19:26:36 +0100
REM compiler GCC version 9.2.1 20190827 (Red Hat 9.2.1-1)
REM options -cpp -mtune=generic -march=x86-64 -g -O0 -fpre-include=/usr/include/finclude/math-vector-fortran.h
REM seed -89523851 1837223687 1448958472 -1543657660 1779880332 2111684890 -887571181 -2035482073 -464297049 1388557896 660999596 2004421701 -1312191105 -1918485475 1288195114 427653706 -1429379130 -1774134642 1197157668 1400011560 2003646289 -1840879257 689495448 905730614 -1293411013 470239313 -272891871 568461672 -435159083 -331362473 -610933646 -1300644378 -218624240
REM
CELL 1.54180   50.00000   50.00000   50.00000   90.00000   90.00000   90.00000
LATT -1
SFAC C  
C      1  0.4568440000000  0.4968270000000  0.4519070000000 1.0
C      1  0.5632280000000  0.4968270000000  0.4866730000000 1.0
C      1  0.4799280000000  0.4968270000000  0.5614210000000 1.0
C      1  0.4883100000000  0.4615360000000  0.5301560000000 1.0
C      1  0.4797290000000  0.4615360000000  0.4747980000000 1.0
C      1  0.5319610000000  0.4615360000000  0.4950460000000 1.0
C      1  0.4169170000000  0.5246890000000  0.5712680000000 1.0
C      1  0.4798220000000  0.5246880000000  0.3924130000000 1.0
C      1  0.6032620000000  0.5246880000000  0.5363180000000 1.0
C      1  0.4081340000000  0.4606930000000  0.4601140000000 1.0
C      1  0.5804750000000  0.4606920000000  0.4403850000000 1.0
C      1  0.5113900000000  0.4606930000000  0.5995010000000 1.0
C      1  0.5741290000000  0.5906170000000  0.5314750000000 1.0
C      1  0.4356780000000  0.5906180000000  0.5484600000000 1.0
C      1  0.4901940000000  0.5906170000000  0.4200650000000 1.0
C      1  0.6209210000000  0.5377460000000  0.4910300000000 1.0
C      1  0.4473090000000  0.5377470000000  0.6092050000000 1.0
C      1  0.4317710000000  0.5377470000000  0.3997650000000 1.0
C      1  0.5614070000000  0.4442300000000  0.4211150000000 1.0
C      1  0.5376130000000  0.4442310000000  0.5926230000000 1.0
C      1  0.4009790000000  0.4442310000000  0.4862620000000 1.0
C      1  0.4800510000000  0.5344490000000  0.4862260000000 1.0
C      1  0.5219030000000  0.5344490000000  0.4896100000000 1.0
C      1  0.4980460000000  0.5344490000000  0.5241630000000 1.0
C      1  0.5255830000000  0.5632380000000  0.4829760000000 1.0
C      1  0.5019520000000  0.5632380000000  0.5306670000000 1.0
C      1  0.4724660000000  0.5632380000000  0.4863570000000 1.0
C      1  0.5324250000000  0.4369370000000  0.4273410000000 1.0
C      1  0.5467120000000  0.4369370000000  0.5644110000000 1.0
C      1  0.4208630000000  0.4369370000000  0.5082490000000 1.0
C      1  0.6152920000000  0.5268560000000  0.4630390000000 1.0
C      1  0.4743640000000  0.5268570000000  0.6183260000000 1.0
C      1  0.4103450000000  0.5268570000000  0.4186350000000 1.0
C      1  0.4992710000000  0.4771650000000  0.5513820000000 1.0
C      1  0.4558660000000  0.4771650000000  0.4736780000000 1.0
C      1  0.5448620000000  0.4771640000000  0.4749400000000 1.0
C      1  0.5966270000000  0.5851180000000  0.5086510000000 1.0
C      1  0.4441950000000  0.5851190000000  0.5793560000000 1.0
C      1  0.4591790000000  0.5851180000000  0.4119930000000 1.0
C      1  0.5678340000000  0.5504340000000  0.5692880000000 1.0
C      1  0.4060780000000  0.5504350000000  0.5241020000000 1.0
C      1  0.5260880000000  0.5504340000000  0.4066100000000 1.0
C      1  0.4867710000000  0.5537070000000  0.5885640000000 1.0
C      1  0.4299160000000  0.5537070000000  0.4442610000000 1.0
C      1  0.5833140000000  0.5537070000000  0.4671740000000 1.0
C      1  0.4755800000000  0.5300710000000  0.5703580000000 1.0
C      1  0.4512780000000  0.5300710000000  0.4436720000000 1.0
C      1  0.5731430000000  0.5300710000000  0.4859690000000 1.0
C      1  0.4593700000000  0.5913310000000  0.5250760000000 1.0
C      1  0.4985990000000  0.5913310000000  0.4522740000000 1.0
C      1  0.5420330000000  0.5913310000000  0.5226490000000 1.0
C      1  0.4742660000000  0.4347740000000  0.4818930000000 1.0
C      1  0.5285470000000  0.4347740000000  0.4867680000000 1.0
C      1  0.4971860000000  0.4347740000000  0.5313400000000 1.0
C      1  0.5271640000000  0.4829000000000  0.4512280000000 1.0
C      1  0.5286560000000  0.4829000000000  0.5479110000000 1.0
C      1  0.4441800000000  0.4829010000000  0.5008610000000 1.0
C      1  0.4481770000000  0.5761470000000  0.5019760000000 1.0
C      1  0.5242000000000  0.5761460000000  0.4541320000000 1.0
C      1  0.5276230000000  0.5761460000000  0.5438920000000 1.0
C      1  0.4376060000000  0.4025960000000  0.4411710000000 1.0
C      1  0.5821440000000  0.4025950000000  0.4753810000000 1.0
C      1  0.4802490000000  0.4025960000000  0.5834490000000 1.0
C      1  0.5618620000000  0.4563700000000  0.4634440000000 1.0
C      1  0.5007270000000  0.4563700000000  0.5718520000000 1.0
C      1  0.4374110000000  0.4563700000000  0.4647040000000 1.0
C      1  0.5119600000000  0.4318590000000  0.4636460000000 1.0
C      1  0.5255030000000  0.4318590000000  0.5285350000000 1.0
C      1  0.4625360000000  0.4318600000000  0.5078190000000 1.0
C      1  0.5883980000000  0.5825750000000  0.4778940000000 1.0
C      1  0.4749460000000  0.5825750000000  0.5876070000000 1.0
C      1  0.4366580000000  0.5825750000000  0.4344980000000 1.0
C      1  0.4343440000000  0.4674640000000  0.5496260000000 1.0
C      1  0.4898500000000  0.4674640000000  0.4183280000000 1.0
C      1  0.5758050000000  0.4674640000000  0.5320460000000 1.0
C      1  0.5600350000000  0.4086340000000  0.5228730000000 1.0
C      1  0.4501740000000  0.4086340000000  0.5405560000000 1.0
C      1  0.4897900000000  0.4086340000000  0.4365720000000 1.0
C      1  0.4090720000000  0.5785760000000  0.5389080000000 1.0
C      1  0.5117690000000  0.5785750000000  0.4018000000000 1.0
C      1  0.5791600000000  0.5785750000000  0.5592920000000 1.0
C      1  0.5228220000000  0.5223900000000  0.6068450000000 1.0
C      1  0.3960590000000  0.5223900000000  0.4663420000000 1.0
C      1  0.5811200000000  0.5223890000000  0.4268140000000 1.0
C      1  0.4885110000000  0.4128650000000  0.4664270000000 1.0
C      1  0.5348190000000  0.4128650000000  0.5068370000000 1.0
C      1  0.4766690000000  0.4128650000000  0.5267360000000 1.0
C      1  0.4566490000000  0.5547870000000  0.4102290000000 1.0
C      1  0.5994200000000  0.5547870000000  0.5073420000000 1.0
C      1  0.4439320000000  0.5547880000000  0.5824290000000 1.0
C      1  0.4804890000000  0.4982770000000  0.6127310000000 1.0
C      1  0.4121280000000  0.4982770000000  0.4267380000000 1.0
C      1  0.6073830000000  0.4982760000000  0.4605310000000 1.0
C      1  0.4523760000000  0.4831820000000  0.5698230000000 1.0
C      1  0.4633430000000  0.4831820000000  0.4238450000000 1.0
C      1  0.5842810000000  0.4831820000000  0.5063320000000 1.0
C      1  0.4629100000000  0.5134280000000  0.4139030000000 1.0
C      1  0.5931070000000  0.5134270000000  0.5109280000000 1.0
C      1  0.4439830000000  0.5134280000000  0.5751690000000 1.0
C      1  0.5453880000000  0.5008520000000  0.4056590000000 1.0
C      1  0.5590080000000  0.5008520000000  0.5864770000000 1.0
C      1  0.3956050000000  0.5008530000000  0.5078640000000 1.0
C      1  0.4511300000000  0.5925690000000  0.4570180000000 1.0
C      1  0.5616590000000  0.5925680000000  0.4791680000000 1.0
C      1  0.4872120000000  0.5925690000000  0.5638130000000 1.0
C      1  0.4596860000000  0.5480510000000  0.5506420000000 1.0
C      1  0.4763000000000  0.5480510000000  0.4397660000000 1.0
C      1  0.5640150000000  0.5480500000000  0.5095920000000 1.0
C      1  0.4372540000000  0.3890270000000  0.4928780000000 1.0
C      1  0.5375410000000  0.3890260000000  0.4492220000000 1.0
C      1  0.5252040000000  0.3890260000000  0.5579010000000 1.0
C      1  0.5155120000000  0.5953770000000  0.5625900000000 1.0
C      1  0.4380400000000  0.5953770000000  0.4821380000000 1.0
C      1  0.5464500000000  0.5953760000000  0.4552710000000 1.0
C      1  0.4271140000000  0.5169460000000  0.6160570000000 1.0
C      1  0.4359340000000  0.5169450000000  0.3788500000000 1.0
C      1  0.6369520000000  0.5169440000000  0.5050920000000 1.0
C      1  0.4893220000000  0.5221230000000  0.4595870000000 1.0
C      1  0.5403380000000  0.5221230000000  0.5109590000000 1.0
C      1  0.4703400000000  0.5221230000000  0.5294540000000 1.0
C      1  0.4297940000000  0.5530030000000  0.5046100000000 1.0
C      1  0.5311110000000  0.5530020000000  0.4368940000000 1.0
C      1  0.5390960000000  0.5530030000000  0.5584950000000 1.0
C      1  0.5671320000000  0.3893570000000  0.4529140000000 1.0
C      1  0.5072110000000  0.3893580000000  0.5816820000000 1.0
C      1  0.4256560000000  0.3893580000000  0.4654050000000 1.0
C      1  0.4433790000000  0.4579780000000  0.5200120000000 1.0
C      1  0.5109800000000  0.4579770000000  0.4409590000000 1.0
C      1  0.5456410000000  0.4579770000000  0.5390290000000 1.0
C      1  0.3953450000000  0.4995120000000  0.5363070000000 1.0
C      1  0.5208840000000  0.4995110000000  0.3912130000000 1.0
C      1  0.5837710000000  0.4995110000000  0.5724800000000 1.0
C      1  0.5970630000000  0.5429880000000  0.4431440000000 1.0
C      1  0.5007080000000  0.5429890000000  0.6124870000000 1.0
C      1  0.4022300000000  0.5429890000000  0.4443690000000 1.0
C      1  0.5099190000000  0.4922970000000  0.6086250000000 1.0
C      1  0.4009680000000  0.4922970000000  0.4542780000000 1.0
C      1  0.5891120000000  0.4922960000000  0.4370970000000 1.0
C      1  0.6089780000000  0.4777440000000  0.4851600000000 1.0
C      1  0.4583630000000  0.4777450000000  0.6017980000000 1.0
C      1  0.4326590000000  0.4777450000000  0.4130430000000 1.0
C      1  0.5242180000000  0.5296420000000  0.5566590000000 1.0
C      1  0.4388240000000  0.5296420000000  0.4926430000000 1.0
C      1  0.5369590000000  0.5296420000000  0.4506980000000 1.0
C      1  0.5491920000000  0.4083230000000  0.5539910000000 1.0
C      1  0.4286460000000  0.4083230000000  0.5156070000000 1.0
C      1  0.5221610000000  0.4083230000000  0.4304030000000 1.0
C      1  0.4558900000000  0.3964110000000  0.5671980000000 1.0
C      1  0.4638590000000  0.3964100000000  0.4282020000000 1.0
C      1  0.5802490000000  0.3964100000000  0.5046010000000 1.0
C      1  0.4158220000000  0.4556770000000  0.4286880000000 1.0
C      1  0.6038470000000  0.4556760000000  0.4627560000000 1.0
C      1  0.4803300000000  0.4556770000000  0.6085560000000 1.0
C      1  0.4529300000000  0.5106760000000  0.5077420000000 1.0
C      1  0.5168300000000  0.5106750000000  0.4553650000000 1.0
C      1  0.5302400000000  0.5106750000000  0.5368930000000 1.0
C      1  0.5228100000000  0.3861190000000  0.5081320000000 1.0
C      1  0.4815520000000  0.3861190000000  0.5156890000000 1.0
C      1  0.4956370000000  0.3861190000000  0.4761800000000 1.0
C      1  0.5480910000000  0.5743190000000  0.4992460000000 1.0
C      1  0.4766070000000  0.5743200000000  0.5420250000000 1.0
C      1  0.4753020000000  0.5743190000000  0.4587280000000 1.0
C      1  0.5039390000000  0.4755780000000  0.3934380000000 1.0
C      1  0.5903160000000  0.4755780000000  0.5566930000000 1.0
C      1  0.4057450000000  0.4755790000000  0.5498700000000 1.0
C      1  0.5175800000000  0.3745110000000  0.5338690000000 1.0
C      1  0.4618780000000  0.3745120000000  0.4982920000000 1.0
C      1  0.5205400000000  0.3745110000000  0.4678400000000 1.0
C      1  0.3933520000000  0.5288710000000  0.4973260000000 1.0
C      1  0.5556400000000  0.5288700000000  0.4089760000000 1.0
C      1  0.5510090000000  0.5288700000000  0.5936970000000 1.0
C      1  0.5188840000000  0.6119130000000  0.5095160000000 1.0
C      1  0.4823180000000  0.6119130000000  0.5115950000000 1.0
C      1  0.4988000000000  0.6119130000000  0.4788890000000 1.0
C      1  0.4321370000000  0.4883500000000  0.3845360000000 1.0
C      1  0.6339260000000  0.4883490000000  0.4989610000000 1.0
C      1  0.4339360000000  0.4883500000000  0.6165030000000 1.0
C      1  0.4144060000000  0.4837520000000  0.4946140000000 1.0
C      1  0.5474620000000  0.4837510000000  0.4285660000000 1.0
C      1  0.5381330000000  0.4837520000000  0.5768200000000 1.0
C      1  0.5884980000000  0.5255700000000  0.5608240000000 1.0
C      1  0.4030760000000  0.5255710000000  0.5462300000000 1.0
C      1  0.5084260000000  0.5255700000000  0.3929460000000 1.0
END
