TITL C-862129-6180-547 -3.94178276878338e-06 125000 -30.3868596061071 0 0 9 (D(inf)h) n - 1
REM
REM in /home/nfs/bkarasulu/CARBON/AIRSS/Generating-Clusters/TERSOFF/Higher-Symm/FIRE-HFTN
REM
REM
REM
REM
REM
REM ./C.cell (b20cbc046b6831c77cfcea5457e17084)
REM AIRSS Version 0.9.1 bugfix July 2018 build 013d7b7c2542+ Fri, 06 Jul 2018 19:26:36 +0100
REM compiler GCC version 9.2.1 20190827 (Red Hat 9.2.1-1)
REM options -cpp -mtune=generic -march=x86-64 -g -O0 -fpre-include=/usr/include/finclude/math-vector-fortran.h
REM seed -738063283 1957482280 63431973 -437812993 -1596505200 1776705797 -328425951 1753891251 1729025910 -1723061498 -1171573374 428511972 1423183419 -1930087188 732596067 -938508444 1191953981 1494294067 292143456 -810838756 -784783958 1795338613 -1668207777 1333289354 8174930 -666145270 1587676440 -1113001453 783558565 598843923 45390741 762344510 1293913930
REM
CELL 1.54180   50.00000   50.00000   50.00000   90.00000   90.00000   90.00000
LATT -1
SFAC C  
C      1  0.4690110000000  0.4981330000000  0.5014560000000 1.0
C      1  0.5309890000000  0.4981330000000  0.5014560000000 1.0
C      1  0.4070340000000  0.4981330000000  0.5014560000000 1.0
C      1  0.5619770000000  0.4981330000000  0.5014560000000 1.0
C      1  0.4380230000000  0.4981330000000  0.5014560000000 1.0
C      1  0.3771010000000  0.4981330000000  0.5014560000000 1.0
C      1  0.5929660000000  0.4981330000000  0.5014560000000 1.0
C      1  0.5000000000000  0.4981330000000  0.5014560000000 1.0
C      1  0.6228990000000  0.4981330000000  0.5014560000000 1.0
END
