TITL C-862129-6180-1211 6.98201657808229e-06 125000 -19.5398634737527 0 0 6 (D(inf)h) n - 1
REM
REM in /home/nfs/bkarasulu/CARBON/AIRSS/Generating-Clusters/TERSOFF/Higher-Symm/FIRE-HFTN
REM
REM
REM
REM
REM
REM ./C.cell (b20cbc046b6831c77cfcea5457e17084)
REM AIRSS Version 0.9.1 bugfix July 2018 build 013d7b7c2542+ Fri, 06 Jul 2018 19:26:36 +0100
REM compiler GCC version 9.2.1 20190827 (Red Hat 9.2.1-1)
REM options -cpp -mtune=generic -march=x86-64 -g -O0 -fpre-include=/usr/include/finclude/math-vector-fortran.h
REM seed 1842104078 285830113 -920891867 -1720991870 2011591116 -1456366407 -525299098 -773506923 1938540115 -836247854 -301510277 1933108072 -1757937506 561701711 1635083660 91177076 1482089988 1363759415 2027087071 1984503093 -803331882 -857179338 1322516933 206168349 -1070306359 1160531276 906760811 2005196287 -1256684790 -655620276 185783957 999284709 241087586
REM
CELL 1.54180   50.00000   50.00000   50.00000   90.00000   90.00000   90.00000
LATT -1
SFAC C  
C      1  0.5764160000000  0.5014690000000  0.4980970000000 1.0
C      1  0.4535170000000  0.5014690000000  0.4980970000000 1.0
C      1  0.5154940000000  0.5014690000000  0.4980970000000 1.0
C      1  0.5464830000000  0.5014690000000  0.4980970000000 1.0
C      1  0.4235840000000  0.5014690000000  0.4980970000000 1.0
C      1  0.4845060000000  0.5014690000000  0.4980970000000 1.0
END
