TITL C-862132-7359-88 832.440810190545 125000 -505.348913394435 0 0 86 (C1) n - 1
REM
REM in /home/nfs/bkarasulu/CARBON/AIRSS/Generating-Clusters/TERSOFF/Higher-Symm/FIRE-HFTN
REM
REM
REM
REM
REM
REM ./C.cell (b20cbc046b6831c77cfcea5457e17084)
REM AIRSS Version 0.9.1 bugfix July 2018 build 013d7b7c2542+ Fri, 06 Jul 2018 19:26:36 +0100
REM compiler GCC version 9.2.1 20190827 (Red Hat 9.2.1-1)
REM options -cpp -mtune=generic -march=x86-64 -g -O0 -fpre-include=/usr/include/finclude/math-vector-fortran.h
REM seed -1420013705 1017360835 -673307700 1787185006 -1864706283 941386745 136374824 1016835366 -1259412112 605232677 582538475 698103993 -2050101100 -157027810 1479180874 -1909961684 1849175193 -1101887271 -820977588 1614248379 -1281477163 650097472 -1359850410 135353562 382743357 -208173839 -189848460 -2141353274 -832528652 -385497294 -312040452 398494274 -656979327
REM
CELL 1.54180   50.00000   50.00000   50.00000   90.00000   90.00000   90.00000
LATT -1
SFAC C  
C      1  0.5788670000000  0.4806970000000  0.5132770000000 1.0
C      1  0.5793230000000  0.4847450000000  0.4831300000000 1.0
C      1  0.5815650000000  0.5145400000000  0.4772220000000 1.0
C      1  0.5832500000000  0.5294240000000  0.5042620000000 1.0
C      1  0.5823090000000  0.5076080000000  0.5270150000000 1.0
C      1  0.4211760000000  0.5196420000000  0.5133040000000 1.0
C      1  0.4205320000000  0.5157370000000  0.4831420000000 1.0
C      1  0.4184770000000  0.4858890000000  0.4772170000000 1.0
C      1  0.4170950000000  0.4709280000000  0.5042140000000 1.0
C      1  0.4180790000000  0.4926810000000  0.5269440000000 1.0
C      1  0.4693540000000  0.5369750000000  0.5026300000000 1.0
C      1  0.4998830000000  0.5260950000000  0.5340690000000 1.0
C      1  0.4560720000000  0.4768040000000  0.5186800000000 1.0
C      1  0.4747510000000  0.4708840000000  0.4815540000000 1.0
C      1  0.4720110000000  0.5098570000000  0.4661630000000 1.0
C      1  0.5321740000000  0.4621800000000  0.5021370000000 1.0
C      1  0.5002150000000  0.4744890000000  0.5345390000000 1.0
C      1  0.5443420000000  0.5236420000000  0.5189480000000 1.0
C      1  0.5263430000000  0.5289910000000  0.4813940000000 1.0
C      1  0.5305220000000  0.4903770000000  0.4654300000000 1.0
C      1  0.4738630000000  0.4233230000000  0.5086550000000 1.0
C      1  0.4741570000000  0.4678230000000  0.4308540000000 1.0
C      1  0.4733480000000  0.5561420000000  0.4496450000000 1.0
C      1  0.4750740000000  0.5690750000000  0.5384840000000 1.0
C      1  0.4727620000000  0.4826730000000  0.5768040000000 1.0
C      1  0.5264120000000  0.5770510000000  0.5086160000000 1.0
C      1  0.5261240000000  0.5325130000000  0.4308760000000 1.0
C      1  0.5269590000000  0.4443120000000  0.4495310000000 1.0
C      1  0.5250980000000  0.4313230000000  0.5384490000000 1.0
C      1  0.5276060000000  0.5176430000000  0.5768110000000 1.0
C      1  0.4273840000000  0.4735590000000  0.4517800000000 1.0
C      1  0.4277790000000  0.5365660000000  0.4631680000000 1.0
C      1  0.4307790000000  0.5438890000000  0.5267430000000 1.0
C      1  0.4251150000000  0.4873800000000  0.5555220000000 1.0
C      1  0.4266310000000  0.4430970000000  0.5072790000000 1.0
C      1  0.5728850000000  0.5270520000000  0.4517560000000 1.0
C      1  0.5725750000000  0.4638460000000  0.4630260000000 1.0
C      1  0.5693700000000  0.4563980000000  0.5267090000000 1.0
C      1  0.5752440000000  0.5129120000000  0.5555900000000 1.0
C      1  0.5736420000000  0.5572160000000  0.5074160000000 1.0
C      1  0.5502940000000  0.5683610000000  0.4929970000000 1.0
C      1  0.5521430000000  0.5299360000000  0.5642310000000 1.0
C      1  0.5442220000000  0.4542600000000  0.5415750000000 1.0
C      1  0.5515890000000  0.4431600000000  0.4665710000000 1.0
C      1  0.5512580000000  0.5164290000000  0.4344900000000 1.0
C      1  0.4500270000000  0.4319240000000  0.4929560000000 1.0
C      1  0.4482360000000  0.4704060000000  0.5641690000000 1.0
C      1  0.4560190000000  0.5459640000000  0.5414200000000 1.0
C      1  0.4489320000000  0.5570150000000  0.4670660000000 1.0
C      1  0.4493060000000  0.4842170000000  0.4349970000000 1.0
C      1  0.5014660000000  0.5628690000000  0.5540440000000 1.0
C      1  0.4985560000000  0.4663880000000  0.5756580000000 1.0
C      1  0.4998840000000  0.4220430000000  0.4930120000000 1.0
C      1  0.4998940000000  0.4832240000000  0.4252200000000 1.0
C      1  0.4989700000000  0.5677810000000  0.4610350000000 1.0
C      1  0.4987780000000  0.4374680000000  0.5540680000000 1.0
C      1  0.5017650000000  0.5337010000000  0.5752850000000 1.0
C      1  0.5003920000000  0.5784710000000  0.4929260000000 1.0
C      1  0.5004490000000  0.5170750000000  0.4252770000000 1.0
C      1  0.5013720000000  0.4326450000000  0.4609940000000 1.0
C      1  0.5267610000000  0.5662410000000  0.5373230000000 1.0
C      1  0.5251830000000  0.4870670000000  0.5748790000000 1.0
C      1  0.5249710000000  0.4213760000000  0.5090000000000 1.0
C      1  0.5257030000000  0.4684760000000  0.4299270000000 1.0
C      1  0.5248290000000  0.5585370000000  0.4481600000000 1.0
C      1  0.4735020000000  0.4342330000000  0.5372890000000 1.0
C      1  0.4753070000000  0.5131770000000  0.5744620000000 1.0
C      1  0.4751910000000  0.5789390000000  0.5088940000000 1.0
C      1  0.4745860000000  0.5317000000000  0.4303860000000 1.0
C      1  0.4754670000000  0.4416910000000  0.4479700000000 1.0
C      1  0.5271860000000  0.4774470000000  0.5466820000000 1.0
C      1  0.5468010000000  0.4372810000000  0.4952220000000 1.0
C      1  0.5464740000000  0.4878680000000  0.4405410000000 1.0
C      1  0.5416530000000  0.5510930000000  0.4712950000000 1.0
C      1  0.5468500000000  0.5447100000000  0.5391910000000 1.0
C      1  0.4730610000000  0.5227090000000  0.5462880000000 1.0
C      1  0.4544870000000  0.5613470000000  0.4956990000000 1.0
C      1  0.4549700000000  0.5121360000000  0.4422450000000 1.0
C      1  0.4589890000000  0.4491520000000  0.4713610000000 1.0
C      1  0.4535910000000  0.4558800000000  0.5390630000000 1.0
C      1  0.4968990000000  0.5310780000000  0.4925010000000 1.0
C      1  0.5041020000000  0.4680980000000  0.4932390000000 1.0
C      1  0.5011560000000  0.4993520000000  0.4655520000000 1.0
C      1  0.5193390000000  0.5090190000000  0.5202310000000 1.0
C      1  0.4812640000000  0.4913210000000  0.5196910000000 1.0
C      1  0.5009090000000  0.4996580000000  0.4974100000000 1.0
END
