TITL C-862134-6730-127 598.382017493265 125000 -960.233300514437 0 0 166 (C1) n - 1
REM
REM in /home/nfs/bkarasulu/CARBON/AIRSS/Generating-Clusters/TERSOFF/Higher-Symm/FIRE-HFTN
REM
REM
REM
REM
REM
REM ./C.cell (b20cbc046b6831c77cfcea5457e17084)
REM AIRSS Version 0.9.1 bugfix July 2018 build 013d7b7c2542+ Fri, 06 Jul 2018 19:26:36 +0100
REM compiler GCC version 9.2.1 20190827 (Red Hat 9.2.1-1)
REM options -cpp -mtune=generic -march=x86-64 -g -O0 -fpre-include=/usr/include/finclude/math-vector-fortran.h
REM seed -467999458 527284300 781697380 -1801038798 -1275844692 1798130790 406121645 -1814269880 -376562176 -1669511429 -86621288 1505532050 1704637748 -904699489 2006244452 2068889671 -1305714859 150365113 1962069261 -669761024 834565162 -15831302 -1356202477 853837010 -706537928 -459322434 1943950645 -125437843 -1443664261 -1561543604 1765520918 -1459801388 1030669966
REM
CELL 1.54180   50.00000   50.00000   50.00000   90.00000   90.00000   90.00000
LATT -1
SFAC C  
C      1  0.5826690000000  0.4414570000000  0.5727870000000 1.0
C      1  0.5497250000000  0.5180120000000  0.4780200000000 1.0
C      1  0.5235760000000  0.4815430000000  0.6243660000000 1.0
C      1  0.4720010000000  0.5789750000000  0.5904700000000 1.0
C      1  0.4632270000000  0.4908010000000  0.4139590000000 1.0
C      1  0.5654740000000  0.5596460000000  0.5282480000000 1.0
C      1  0.4928030000000  0.5447740000000  0.4634230000000 1.0
C      1  0.5590830000000  0.5222080000000  0.3921910000000 1.0
C      1  0.6110790000000  0.4372100000000  0.5063860000000 1.0
C      1  0.4646600000000  0.5546630000000  0.4929170000000 1.0
C      1  0.4469030000000  0.5530690000000  0.4701300000000 1.0
C      1  0.5368100000000  0.5649190000000  0.5217740000000 1.0
C      1  0.5157270000000  0.6090330000000  0.5192260000000 1.0
C      1  0.4061160000000  0.4991800000000  0.4700640000000 1.0
C      1  0.4360480000000  0.6027140000000  0.5825840000000 1.0
C      1  0.5288590000000  0.4389810000000  0.5454490000000 1.0
C      1  0.5678950000000  0.4155800000000  0.5142580000000 1.0
C      1  0.5321320000000  0.5345800000000  0.5844050000000 1.0
C      1  0.4613530000000  0.5906700000000  0.4429580000000 1.0
C      1  0.5013390000000  0.4006950000000  0.4977420000000 1.0
C      1  0.4950890000000  0.5652130000000  0.5795290000000 1.0
C      1  0.4166890000000  0.5783710000000  0.5114440000000 1.0
C      1  0.4183610000000  0.4508860000000  0.4460380000000 1.0
C      1  0.5029760000000  0.4924180000000  0.4298610000000 1.0
C      1  0.4526490000000  0.4338160000000  0.5815750000000 1.0
C      1  0.4415520000000  0.4172170000000  0.4881510000000 1.0
C      1  0.5745950000000  0.4171970000000  0.4821940000000 1.0
C      1  0.5233470000000  0.4730660000000  0.5350580000000 1.0
C      1  0.4704050000000  0.4046680000000  0.4333930000000 1.0
C      1  0.5567700000000  0.5305130000000  0.5083320000000 1.0
C      1  0.4811080000000  0.5566500000000  0.4074810000000 1.0
C      1  0.3984410000000  0.4755650000000  0.4852080000000 1.0
C      1  0.4989980000000  0.4445990000000  0.4161230000000 1.0
C      1  0.4827550000000  0.4205940000000  0.4118410000000 1.0
C      1  0.4756580000000  0.4577460000000  0.5389020000000 1.0
C      1  0.4329300000000  0.5370940000000  0.4105990000000 1.0
C      1  0.5925820000000  0.4267660000000  0.5268250000000 1.0
C      1  0.4213490000000  0.5432280000000  0.4732810000000 1.0
C      1  0.5489990000000  0.6070480000000  0.4804240000000 1.0
C      1  0.4294720000000  0.5603980000000  0.5550680000000 1.0
C      1  0.4854770000000  0.5144810000000  0.5875570000000 1.0
C      1  0.4946840000000  0.4922850000000  0.5715030000000 1.0
C      1  0.3983710000000  0.5315700000000  0.5123750000000 1.0
C      1  0.4545540000000  0.4816200000000  0.5338900000000 1.0
C      1  0.5985560000000  0.5208300000000  0.4551450000000 1.0
C      1  0.5608680000000  0.4196150000000  0.4317320000000 1.0
C      1  0.5675180000000  0.4727120000000  0.4806000000000 1.0
C      1  0.6092700000000  0.5312870000000  0.5314180000000 1.0
C      1  0.4146760000000  0.4280870000000  0.4914850000000 1.0
C      1  0.5862030000000  0.4884460000000  0.5017120000000 1.0
C      1  0.5190640000000  0.5797430000000  0.5655950000000 1.0
C      1  0.6129290000000  0.4977120000000  0.4925010000000 1.0
C      1  0.3785310000000  0.5520550000000  0.5032470000000 1.0
C      1  0.4073750000000  0.4501480000000  0.4738870000000 1.0
C      1  0.4684100000000  0.5162420000000  0.4310260000000 1.0
C      1  0.3931510000000  0.4808650000000  0.5150450000000 1.0
C      1  0.4371380000000  0.5047320000000  0.5023170000000 1.0
C      1  0.4291980000000  0.4711490000000  0.5508060000000 1.0
C      1  0.5549230000000  0.4515990000000  0.4960130000000 1.0
C      1  0.5630990000000  0.4586700000000  0.5596750000000 1.0
C      1  0.4716760000000  0.5209550000000  0.3710120000000 1.0
C      1  0.4035950000000  0.4261720000000  0.5183940000000 1.0
C      1  0.5723420000000  0.5065860000000  0.5202020000000 1.0
C      1  0.4558820000000  0.5777430000000  0.6383700000000 1.0
C      1  0.4659330000000  0.5946370000000  0.5425440000000 1.0
C      1  0.5671770000000  0.5610040000000  0.5576350000000 1.0
C      1  0.4986520000000  0.5786340000000  0.4201810000000 1.0
C      1  0.6149400000000  0.5271150000000  0.5020460000000 1.0
C      1  0.5453680000000  0.4373800000000  0.6075580000000 1.0
C      1  0.5827590000000  0.4830120000000  0.4104820000000 1.0
C      1  0.4897110000000  0.5967440000000  0.4443440000000 1.0
C      1  0.4257920000000  0.5506350000000  0.5263890000000 1.0
C      1  0.5558170000000  0.5962800000000  0.4531950000000 1.0
C      1  0.5997740000000  0.4372080000000  0.4783230000000 1.0
C      1  0.4632410000000  0.4610970000000  0.4983020000000 1.0
C      1  0.5258160000000  0.5111210000000  0.4289330000000 1.0
C      1  0.4774200000000  0.4078180000000  0.5135910000000 1.0
C      1  0.3893130000000  0.5786020000000  0.5016820000000 1.0
C      1  0.5396200000000  0.4182150000000  0.5258630000000 1.0
C      1  0.5873930000000  0.5147080000000  0.5428740000000 1.0
C      1  0.4356690000000  0.3955920000000  0.5327940000000 1.0
C      1  0.5794200000000  0.5769400000000  0.5072830000000 1.0
C      1  0.4618030000000  0.4485570000000  0.4351380000000 1.0
C      1  0.4631960000000  0.5985870000000  0.5137490000000 1.0
C      1  0.3842590000000  0.4460960000000  0.5499060000000 1.0
C      1  0.4400110000000  0.4729290000000  0.4350050000000 1.0
C      1  0.4541990000000  0.5680120000000  0.6110180000000 1.0
C      1  0.5650370000000  0.4689700000000  0.4287080000000 1.0
C      1  0.5560770000000  0.4084190000000  0.4590530000000 1.0
C      1  0.4029180000000  0.4640970000000  0.5363560000000 1.0
C      1  0.4550170000000  0.5024650000000  0.3871960000000 1.0
C      1  0.5014250000000  0.5058930000000  0.4996200000000 1.0
C      1  0.5489030000000  0.4452620000000  0.4214690000000 1.0
C      1  0.5063750000000  0.4453520000000  0.5905790000000 1.0
C      1  0.4204230000000  0.4189160000000  0.5419360000000 1.0
C      1  0.5903070000000  0.5307410000000  0.4285400000000 1.0
C      1  0.5730910000000  0.5169370000000  0.5677550000000 1.0
C      1  0.5219160000000  0.4851260000000  0.5066580000000 1.0
C      1  0.4401010000000  0.4925440000000  0.5971840000000 1.0
C      1  0.4920520000000  0.4927810000000  0.4565990000000 1.0
C      1  0.4798070000000  0.4250650000000  0.5376630000000 1.0
C      1  0.4539440000000  0.5631360000000  0.4452910000000 1.0
C      1  0.5973810000000  0.5385940000000  0.4790110000000 1.0
C      1  0.5434840000000  0.5083970000000  0.5718720000000 1.0
C      1  0.5123970000000  0.4455400000000  0.4629350000000 1.0
C      1  0.5123450000000  0.5661720000000  0.4649820000000 1.0
C      1  0.4592400000000  0.5441370000000  0.4235170000000 1.0
C      1  0.4133070000000  0.5180090000000  0.4217570000000 1.0
C      1  0.5004110000000  0.5917870000000  0.4746340000000 1.0
C      1  0.5278820000000  0.5222900000000  0.4582420000000 1.0
C      1  0.5173760000000  0.4968090000000  0.5532670000000 1.0
C      1  0.4231950000000  0.4892400000000  0.5738400000000 1.0
C      1  0.5204450000000  0.6086400000000  0.4894220000000 1.0
C      1  0.4621370000000  0.4373780000000  0.4826250000000 1.0
C      1  0.4538490000000  0.5401690000000  0.5173570000000 1.0
C      1  0.4981230000000  0.5190710000000  0.5393570000000 1.0
C      1  0.4511230000000  0.3974990000000  0.5078990000000 1.0
C      1  0.3863050000000  0.5077020000000  0.5237120000000 1.0
C      1  0.5337290000000  0.5254550000000  0.4049930000000 1.0
C      1  0.5582680000000  0.4818940000000  0.4522710000000 1.0
C      1  0.4988850000000  0.4706300000000  0.4730000000000 1.0
C      1  0.4792950000000  0.4691560000000  0.5673280000000 1.0
C      1  0.5234330000000  0.4174360000000  0.5026730000000 1.0
C      1  0.4685790000000  0.5136530000000  0.5305240000000 1.0
C      1  0.4774520000000  0.4375520000000  0.4585400000000 1.0
C      1  0.5823890000000  0.5597900000000  0.4251780000000 1.0
C      1  0.5801780000000  0.5800400000000  0.4468380000000 1.0
C      1  0.4192760000000  0.4974150000000  0.4424850000000 1.0
C      1  0.4556550000000  0.4873030000000  0.4889480000000 1.0
C      1  0.5431550000000  0.5589340000000  0.4718720000000 1.0
C      1  0.4866450000000  0.5440700000000  0.3817950000000 1.0
C      1  0.5386530000000  0.4510220000000  0.3927040000000 1.0
C      1  0.5207530000000  0.4438680000000  0.4340520000000 1.0
C      1  0.4236490000000  0.5434170000000  0.5776780000000 1.0
C      1  0.4995560000000  0.5172050000000  0.4716250000000 1.0
C      1  0.5817990000000  0.5121130000000  0.4068310000000 1.0
C      1  0.5941510000000  0.4644670000000  0.4653980000000 1.0
C      1  0.4933860000000  0.4129600000000  0.5602090000000 1.0
C      1  0.4347590000000  0.5473150000000  0.6040550000000 1.0
C      1  0.5383520000000  0.4153650000000  0.5891810000000 1.0
C      1  0.4438870000000  0.5860250000000  0.5600770000000 1.0
C      1  0.5208640000000  0.5848030000000  0.5352690000000 1.0
C      1  0.5458170000000  0.4922650000000  0.4909930000000 1.0
C      1  0.5287900000000  0.5477470000000  0.4989340000000 1.0
C      1  0.5429730000000  0.5610610000000  0.5742900000000 1.0
C      1  0.5060860000000  0.3905560000000  0.4695760000000 1.0
C      1  0.6112120000000  0.4916040000000  0.4618620000000 1.0
C      1  0.4335930000000  0.4405810000000  0.5592440000000 1.0
C      1  0.5450820000000  0.4766100000000  0.5775180000000 1.0
C      1  0.4920770000000  0.4737190000000  0.4072550000000 1.0
C      1  0.4596690000000  0.5136770000000  0.6005890000000 1.0
C      1  0.4785400000000  0.5810640000000  0.4956860000000 1.0
C      1  0.4761160000000  0.4510880000000  0.5894500000000 1.0
C      1  0.5616490000000  0.4577490000000  0.5273250000000 1.0
C      1  0.5315110000000  0.4363430000000  0.4844560000000 1.0
C      1  0.4843550000000  0.3847690000000  0.4503260000000 1.0
C      1  0.4351880000000  0.6000720000000  0.5064540000000 1.0
C      1  0.5352130000000  0.3866080000000  0.4622330000000 1.0
C      1  0.5764050000000  0.5595810000000  0.4832910000000 1.0
C      1  0.5158810000000  0.4694390000000  0.3867760000000 1.0
C      1  0.5170160000000  0.4263840000000  0.5704690000000 1.0
C      1  0.5298040000000  0.4639760000000  0.6018170000000 1.0
C      1  0.5030010000000  0.5377980000000  0.5888370000000 1.0
C      1  0.4151060000000  0.5203540000000  0.4887270000000 1.0
C      1  0.5056520000000  0.5464630000000  0.5430300000000 1.0
C      1  0.5691500000000  0.6034700000000  0.5012860000000 1.0
END
