TITL C-862132-7359-162 3.61069372492243 125000 -1131.99482102087 0 0 200 (C1) n - 1
REM
REM in /home/nfs/bkarasulu/CARBON/AIRSS/Generating-Clusters/TERSOFF/Higher-Symm/FIRE-HFTN
REM
REM
REM
REM
REM
REM ./C.cell (b20cbc046b6831c77cfcea5457e17084)
REM AIRSS Version 0.9.1 bugfix July 2018 build 013d7b7c2542+ Fri, 06 Jul 2018 19:26:36 +0100
REM compiler GCC version 9.2.1 20190827 (Red Hat 9.2.1-1)
REM options -cpp -mtune=generic -march=x86-64 -g -O0 -fpre-include=/usr/include/finclude/math-vector-fortran.h
REM seed -1332824487 1458111680 -1989126282 -466544238 372613169 -1972265480 -215806888 -1792771089 -1069460710 -1063564843 82091843 982204144 -1185308350 469780153 600654769 -1219094229 371599967 -541626770 -1226747895 960068716 -683217463 -2136234158 1155396140 -486062042 -1857998693 1926724236 248247222 1218082400 1798913536 -1464763929 1480833283 1540245256 -1784667721
REM
CELL 1.54180   50.00000   50.00000   50.00000   90.00000   90.00000   90.00000
LATT -1
SFAC C  
C      1  0.5752320000000  0.5806230000000  0.5080720000000 1.0
C      1  0.5291100000000  0.4208610000000  0.5666750000000 1.0
C      1  0.4565690000000  0.5803390000000  0.5614880000000 1.0
C      1  0.4265260000000  0.4202380000000  0.4932600000000 1.0
C      1  0.4707650000000  0.5774140000000  0.4353240000000 1.0
C      1  0.5431330000000  0.4211700000000  0.4387000000000 1.0
C      1  0.5674680000000  0.4059060000000  0.5322650000000 1.0
C      1  0.5062900000000  0.5948860000000  0.5767450000000 1.0
C      1  0.4368400000000  0.4062340000000  0.5441150000000 1.0
C      1  0.4312820000000  0.5926220000000  0.4693120000000 1.0
C      1  0.4939000000000  0.4036910000000  0.4226490000000 1.0
C      1  0.5644620000000  0.5966550000000  0.4583370000000 1.0
C      1  0.6167620000000  0.5262010000000  0.5029480000000 1.0
C      1  0.5543660000000  0.4744310000000  0.6007070000000 1.0
C      1  0.4389810000000  0.5263260000000  0.5993000000000 1.0
C      1  0.3835050000000  0.4744810000000  0.4978700000000 1.0
C      1  0.4445460000000  0.5239550000000  0.4000090000000 1.0
C      1  0.5602730000000  0.4747430000000  0.4011590000000 1.0
C      1  0.6001770000000  0.5239630000000  0.4523410000000 1.0
C      1  0.5906810000000  0.4764460000000  0.5619570000000 1.0
C      1  0.4909900000000  0.5234450000000  0.6096930000000 1.0
C      1  0.4002550000000  0.4771180000000  0.5480300000000 1.0
C      1  0.4094090000000  0.5224510000000  0.4392280000000 1.0
C      1  0.5083630000000  0.4762910000000  0.3905440000000 1.0
C      1  0.5775050000000  0.5895680000000  0.5378380000000 1.0
C      1  0.5056920000000  0.4110480000000  0.5845660000000 1.0
C      1  0.4297540000000  0.5903320000000  0.5494180000000 1.0
C      1  0.4221120000000  0.4103070000000  0.4641260000000 1.0
C      1  0.4939190000000  0.5872720000000  0.4169610000000 1.0
C      1  0.5698320000000  0.4118190000000  0.4519870000000 1.0
C      1  0.5162600000000  0.4854900000000  0.4363550000000 1.0
C      1  0.5661890000000  0.5164290000000  0.4819820000000 1.0
C      1  0.5456580000000  0.4852840000000  0.5448870000000 1.0
C      1  0.4831850000000  0.5158110000000  0.5637390000000 1.0
C      1  0.4378030000000  0.4842920000000  0.5182960000000 1.0
C      1  0.4548750000000  0.5128460000000  0.4576360000000 1.0
C      1  0.4496550000000  0.5969760000000  0.4448100000000 1.0
C      1  0.5247520000000  0.4009650000000  0.4250950000000 1.0
C      1  0.5764800000000  0.6006490000000  0.4857690000000 1.0
C      1  0.5498330000000  0.4014320000000  0.5566700000000 1.0
C      1  0.4759590000000  0.5994630000000  0.5745100000000 1.0
C      1  0.4243700000000  0.4013700000000  0.5165010000000 1.0
C      1  0.5692000000000  0.4370350000000  0.5676820000000 1.0
C      1  0.4756000000000  0.5639670000000  0.5969570000000 1.0
C      1  0.4054720000000  0.4375840000000  0.5262630000000 1.0
C      1  0.4311020000000  0.5614580000000  0.4322340000000 1.0
C      1  0.5244510000000  0.4356170000000  0.4013660000000 1.0
C      1  0.5975560000000  0.5647930000000  0.4715060000000 1.0
C      1  0.3756120000000  0.5246260000000  0.5179570000000 1.0
C      1  0.4228790000000  0.4743300000000  0.4038890000000 1.0
C      1  0.5454410000000  0.5243860000000  0.3847110000000 1.0
C      1  0.6245670000000  0.4764150000000  0.4818430000000 1.0
C      1  0.5763400000000  0.5238680000000  0.5977400000000 1.0
C      1  0.4526690000000  0.4762160000000  0.6164110000000 1.0
C      1  0.4698360000000  0.4911120000000  0.5592480000000 1.0
C      1  0.4336580000000  0.5096570000000  0.5062680000000 1.0
C      1  0.4649850000000  0.4880490000000  0.4476670000000 1.0
C      1  0.5305290000000  0.5091830000000  0.4442670000000 1.0
C      1  0.5666080000000  0.4918380000000  0.4962460000000 1.0
C      1  0.5343080000000  0.5096610000000  0.5538840000000 1.0
C      1  0.5244710000000  0.4282660000000  0.6077530000000 1.0
C      1  0.4182120000000  0.5727760000000  0.5768280000000 1.0
C      1  0.3928950000000  0.4279660000000  0.4693200000000 1.0
C      1  0.4738910000000  0.5704040000000  0.3940330000000 1.0
C      1  0.5816430000000  0.4283190000000  0.4235500000000 1.0
C      1  0.6077040000000  0.5723540000000  0.5333870000000 1.0
C      1  0.5435060000000  0.5341000000000  0.4803980000000 1.0
C      1  0.5346580000000  0.4686280000000  0.5234380000000 1.0
C      1  0.4949170000000  0.5327900000000  0.5425500000000 1.0
C      1  0.4634300000000  0.4693480000000  0.5170190000000 1.0
C      1  0.4685570000000  0.5290250000000  0.4783550000000 1.0
C      1  0.5046590000000  0.4662650000000  0.4546450000000 1.0
C      1  0.4659360000000  0.4058030000000  0.4947760000000 1.0
C      1  0.4886810000000  0.5929820000000  0.4699730000000 1.0
C      1  0.5208610000000  0.4088860000000  0.4721220000000 1.0
C      1  0.5350310000000  0.5925530000000  0.5057380000000 1.0
C      1  0.5108900000000  0.4081110000000  0.5310490000000 1.0
C      1  0.4788390000000  0.5915850000000  0.5277040000000 1.0
C      1  0.4440180000000  0.4846660000000  0.5710380000000 1.0
C      1  0.4110310000000  0.5157350000000  0.4888690000000 1.0
C      1  0.4668700000000  0.4819900000000  0.4185860000000 1.0
C      1  0.5556410000000  0.5169210000000  0.4304340000000 1.0
C      1  0.5897280000000  0.4839950000000  0.5123860000000 1.0
C      1  0.5324180000000  0.5163930000000  0.5824290000000 1.0
C      1  0.5350650000000  0.6076600000000  0.4554780000000 1.0
C      1  0.5548280000000  0.3941420000000  0.5063260000000 1.0
C      1  0.5223210000000  0.6065150000000  0.5525620000000 1.0
C      1  0.4651140000000  0.3932360000000  0.5455460000000 1.0
C      1  0.4442320000000  0.6058440000000  0.4943650000000 1.0
C      1  0.4776960000000  0.3927440000000  0.4473040000000 1.0
C      1  0.4324750000000  0.4698860000000  0.4755250000000 1.0
C      1  0.4882140000000  0.5274310000000  0.4293970000000 1.0
C      1  0.5569790000000  0.4707290000000  0.4514640000000 1.0
C      1  0.5701550000000  0.5309510000000  0.5247010000000 1.0
C      1  0.5114050000000  0.4711560000000  0.5718050000000 1.0
C      1  0.4430960000000  0.5309530000000  0.5471770000000 1.0
C      1  0.5119360000000  0.5348730000000  0.5935210000000 1.0
C      1  0.4249270000000  0.4658070000000  0.5581630000000 1.0
C      1  0.4133180000000  0.5339970000000  0.4655090000000 1.0
C      1  0.4876770000000  0.4641930000000  0.4065200000000 1.0
C      1  0.5759860000000  0.5355120000000  0.4420000000000 1.0
C      1  0.5879890000000  0.4652020000000  0.5354390000000 1.0
C      1  0.5879610000000  0.4739350000000  0.4454980000000 1.0
C      1  0.5903680000000  0.5268820000000  0.5483870000000 1.0
C      1  0.5021480000000  0.4730320000000  0.6017350000000 1.0
C      1  0.4126220000000  0.5279010000000  0.5538270000000 1.0
C      1  0.4107390000000  0.4722830000000  0.4536970000000 1.0
C      1  0.4962880000000  0.5257720000000  0.3993860000000 1.0
C      1  0.4414290000000  0.4109180000000  0.4219340000000 1.0
C      1  0.5379390000000  0.5874550000000  0.4090740000000 1.0
C      1  0.5983410000000  0.4144000000000  0.4911950000000 1.0
C      1  0.5567750000000  0.5868380000000  0.5801750000000 1.0
C      1  0.4551400000000  0.4141860000000  0.5885260000000 1.0
C      1  0.4020760000000  0.5860980000000  0.5047490000000 1.0
C      1  0.4331660000000  0.4485970000000  0.4966830000000 1.0
C      1  0.4699960000000  0.5483670000000  0.4411260000000 1.0
C      1  0.5396310000000  0.4506140000000  0.4375280000000 1.0
C      1  0.5737920000000  0.5516620000000  0.5035380000000 1.0
C      1  0.5298020000000  0.4497210000000  0.5606100000000 1.0
C      1  0.4613640000000  0.5514360000000  0.5595010000000 1.0
C      1  0.5448200000000  0.4735520000000  0.4937180000000 1.0
C      1  0.5253270000000  0.5287540000000  0.5348170000000 1.0
C      1  0.4813270000000  0.4719660000000  0.5425190000000 1.0
C      1  0.4545930000000  0.5281620000000  0.5068870000000 1.0
C      1  0.4762110000000  0.4694170000000  0.4667860000000 1.0
C      1  0.5183160000000  0.5282090000000  0.4630970000000 1.0
C      1  0.4585360000000  0.4395590000000  0.5289060000000 1.0
C      1  0.4560130000000  0.5594800000000  0.4791240000000 1.0
C      1  0.4954820000000  0.4390050000000  0.4452750000000 1.0
C      1  0.5452010000000  0.5602550000000  0.4664160000000 1.0
C      1  0.5476990000000  0.4407360000000  0.5196490000000 1.0
C      1  0.5046750000000  0.5607460000000  0.5523480000000 1.0
C      1  0.4667790000000  0.3859820000000  0.5162200000000 1.0
C      1  0.4706130000000  0.6128780000000  0.4814330000000 1.0
C      1  0.5019480000000  0.3880330000000  0.4647410000000 1.0
C      1  0.5324790000000  0.6131550000000  0.4852620000000 1.0
C      1  0.5279190000000  0.3879360000000  0.5185990000000 1.0
C      1  0.4981500000000  0.6120290000000  0.5353410000000 1.0
C      1  0.5748100000000  0.4615650000000  0.5830950000000 1.0
C      1  0.4647890000000  0.5386970000000  0.6083230000000 1.0
C      1  0.3890980000000  0.4619540000000  0.5242690000000 1.0
C      1  0.4244240000000  0.5370170000000  0.4174190000000 1.0
C      1  0.5348630000000  0.4617770000000  0.3914130000000 1.0
C      1  0.6119300000000  0.5388700000000  0.4758420000000 1.0
C      1  0.5055650000000  0.5027410000000  0.3799830000000 1.0
C      1  0.6088310000000  0.4977010000000  0.4444410000000 1.0
C      1  0.6014300000000  0.5028560000000  0.5660200000000 1.0
C      1  0.4932440000000  0.4969170000000  0.6206840000000 1.0
C      1  0.3917770000000  0.5037900000000  0.5552650000000 1.0
C      1  0.3990220000000  0.4958520000000  0.4359370000000 1.0
C      1  0.5228940000000  0.5403420000000  0.3992130000000 1.0
C      1  0.6008300000000  0.4599790000000  0.4693810000000 1.0
C      1  0.5754800000000  0.5406000000000  0.5713060000000 1.0
C      1  0.4748060000000  0.4590490000000  0.6018220000000 1.0
C      1  0.3994500000000  0.5417870000000  0.5296690000000 1.0
C      1  0.4245160000000  0.4579200000000  0.4305110000000 1.0
C      1  0.5855570000000  0.4393400000000  0.4834660000000 1.0
C      1  0.5558860000000  0.5617960000000  0.5654050000000 1.0
C      1  0.4694220000000  0.4384980000000  0.5814960000000 1.0
C      1  0.4149760000000  0.5619220000000  0.5144460000000 1.0
C      1  0.4438610000000  0.4362830000000  0.4359780000000 1.0
C      1  0.5274040000000  0.5619540000000  0.4182730000000 1.0
C      1  0.4787820000000  0.4429280000000  0.5536720000000 1.0
C      1  0.4440090000000  0.5572010000000  0.5091240000000 1.0
C      1  0.4660430000000  0.4401000000000  0.4558590000000 1.0
C      1  0.5212680000000  0.5580510000000  0.4471830000000 1.0
C      1  0.5568640000000  0.4439970000000  0.4898470000000 1.0
C      1  0.5350700000000  0.5577630000000  0.5443290000000 1.0
C      1  0.4697610000000  0.4891280000000  0.6371460000000 1.0
C      1  0.3658950000000  0.5117120000000  0.5429830000000 1.0
C      1  0.3964000000000  0.4875230000000  0.4074830000000 1.0
C      1  0.5289400000000  0.5112150000000  0.3636260000000 1.0
C      1  0.6345240000000  0.4897080000000  0.4570770000000 1.0
C      1  0.6028630000000  0.5106500000000  0.5946980000000 1.0
C      1  0.3852020000000  0.5053210000000  0.4965380000000 1.0
C      1  0.4464010000000  0.4931410000000  0.4013990000000 1.0
C      1  0.5597800000000  0.5058350000000  0.4038070000000 1.0
C      1  0.6153250000000  0.4949600000000  0.5040270000000 1.0
C      1  0.5526490000000  0.5052880000000  0.5998640000000 1.0
C      1  0.4385420000000  0.4953050000000  0.5973780000000 1.0
C      1  0.4549190000000  0.4013930000000  0.4676730000000 1.0
C      1  0.5065330000000  0.5973470000000  0.4468770000000 1.0
C      1  0.5493970000000  0.4045820000000  0.4775340000000 1.0
C      1  0.5449230000000  0.5969890000000  0.5331270000000 1.0
C      1  0.4930390000000  0.4034560000000  0.5540310000000 1.0
C      1  0.4501530000000  0.5962800000000  0.5231300000000 1.0
C      1  0.3910780000000  0.4582310000000  0.4716440000000 1.0
C      1  0.4707190000000  0.5401360000000  0.3926520000000 1.0
C      1  0.5811410000000  0.4585840000000  0.4193460000000 1.0
C      1  0.6102670000000  0.5421070000000  0.5301530000000 1.0
C      1  0.5279130000000  0.4584090000000  0.6083130000000 1.0
C      1  0.4194040000000  0.5425410000000  0.5798630000000 1.0
C      1  0.4967120000000  0.4344600000000  0.4156780000000 1.0
C      1  0.5716070000000  0.5662820000000  0.4533410000000 1.0
C      1  0.5722410000000  0.4365900000000  0.5366810000000 1.0
C      1  0.5032290000000  0.5640730000000  0.5823930000000 1.0
C      1  0.4315100000000  0.4373600000000  0.5430950000000 1.0
C      1  0.4300490000000  0.5616700000000  0.4630870000000 1.0
C      1  0.4966170000000  0.5216550000000  0.4814960000000 1.0
C      1  0.4803970000000  0.4765410000000  0.4946210000000 1.0
END
