TITL C-862128-1543-417 0.00486186657439484 125000 -862.500584392798 0 0 163 (C2) n - 1
REM
REM in /home/nfs/bkarasulu/CARBON/AIRSS/Generating-Clusters/TERSOFF/Higher-Symm/FIRE-HFTN
REM
REM
REM
REM
REM
REM ./C.cell (b20cbc046b6831c77cfcea5457e17084)
REM AIRSS Version 0.9.1 bugfix July 2018 build 013d7b7c2542+ Fri, 06 Jul 2018 19:26:36 +0100
REM compiler GCC version 9.2.1 20190827 (Red Hat 9.2.1-1)
REM options -cpp -mtune=generic -march=x86-64 -g -O0 -fpre-include=/usr/include/finclude/math-vector-fortran.h
REM seed -1561047587 153157186 -1552507558 -571744733 -1730815452 -1447090934 -237868141 687652491 1258368248 1940552015 -1641337967 -1014294838 1241542734 957436020 1477775294 -421981026 19959829 1175956830 -1910825174 511189594 945220587 -737232092 -1338754760 952492544 712554732 -882338388 -2048193886 77590169 -1470238931 -497603138 1271813688 -1721682881 1618708392
REM
CELL 1.54180   50.00000   50.00000   50.00000   90.00000   90.00000   90.00000
LATT -1
SFAC C  
C      1  0.4478160000000  0.5146290000000  0.4534740000000 1.0
C      1  0.4478160000000  0.4851890000000  0.5460300000000 1.0
C      1  0.4486850000000  0.4832230000000  0.4554070000000 1.0
C      1  0.4486850000000  0.5165950000000  0.5440980000000 1.0
C      1  0.4791790000000  0.4834410000000  0.4421020000000 1.0
C      1  0.4791790000000  0.5163780000000  0.5574030000000 1.0
C      1  0.4801720000000  0.5155370000000  0.4405470000000 1.0
C      1  0.4801720000000  0.4842810000000  0.5589580000000 1.0
C      1  0.4565170000000  0.5887350000000  0.4775530000000 1.0
C      1  0.4565170000000  0.4110830000000  0.5219520000000 1.0
C      1  0.4571390000000  0.4115610000000  0.4761250000000 1.0
C      1  0.4571380000000  0.5882570000000  0.5233790000000 1.0
C      1  0.4346430000000  0.5297440000000  0.5161090000000 1.0
C      1  0.4346430000000  0.4700740000000  0.4833960000000 1.0
C      1  0.4343460000000  0.4722060000000  0.5172520000000 1.0
C      1  0.4343460000000  0.5276120000000  0.4822530000000 1.0
C      1  0.4072950000000  0.4827410000000  0.4724600000000 1.0
C      1  0.4072950000000  0.5170770000000  0.5270450000000 1.0
C      1  0.4072620000000  0.5123060000000  0.4716990000000 1.0
C      1  0.4072620000000  0.4875120000000  0.5278060000000 1.0
C      1  0.4392020000000  0.5700480000000  0.4441780000000 1.0
C      1  0.4392020000000  0.4297700000000  0.5553270000000 1.0
C      1  0.4412510000000  0.4252930000000  0.4397590000000 1.0
C      1  0.4412510000000  0.5745250000000  0.5597460000000 1.0
C      1  0.4314490000000  0.5188820000000  0.5725210000000 1.0
C      1  0.4314490000000  0.4809360000000  0.4269840000000 1.0
C      1  0.4300870000000  0.4845180000000  0.5737830000000 1.0
C      1  0.4300870000000  0.5152990000000  0.4257220000000 1.0
C      1  0.5017930000000  0.4071110000000  0.4354880000000 1.0
C      1  0.5017930000000  0.5927070000000  0.5640170000000 1.0
C      1  0.5000830000000  0.5913680000000  0.4361580000000 1.0
C      1  0.5000830000000  0.4084500000000  0.5633470000000 1.0
C      1  0.4618040000000  0.4403310000000  0.4250720000000 1.0
C      1  0.4618030000000  0.5594860000000  0.5744330000000 1.0
C      1  0.4601000000000  0.5566810000000  0.4277020000000 1.0
C      1  0.4601010000000  0.4431370000000  0.5718030000000 1.0
C      1  0.4367810000000  0.3914580000000  0.4838040000000 1.0
C      1  0.4367810000000  0.6083600000000  0.5157010000000 1.0
C      1  0.4364550000000  0.6085360000000  0.4865450000000 1.0
C      1  0.4364550000000  0.3912810000000  0.5129600000000 1.0
C      1  0.5322130000000  0.4476920000000  0.5924610000000 1.0
C      1  0.5322130000000  0.5521270000000  0.4070440000000 1.0
C      1  0.5338730000000  0.5523220000000  0.5933630000000 1.0
C      1  0.5338740000000  0.4474960000000  0.4061420000000 1.0
C      1  0.4722620000000  0.5428780000000  0.4726070000000 1.0
C      1  0.4722620000000  0.4569400000000  0.5268980000000 1.0
C      1  0.4737750000000  0.4567040000000  0.4761060000000 1.0
C      1  0.4737750000000  0.5431140000000  0.5233990000000 1.0
C      1  0.4836750000000  0.4833650000000  0.4067990000000 1.0
C      1  0.4836750000000  0.5164530000000  0.5927060000000 1.0
C      1  0.4837210000000  0.5160890000000  0.4065230000000 1.0
C      1  0.4837210000000  0.4837290000000  0.5929820000000 1.0
C      1  0.5479730000000  0.5205150000000  0.4817360000000 1.0
C      1  0.5479730000000  0.4793030000000  0.5177690000000 1.0
C      1  0.5472520000000  0.4788780000000  0.4816130000000 1.0
C      1  0.5472520000000  0.5209400000000  0.5178910000000 1.0
C      1  0.5050270000000  0.4677370000000  0.5507470000000 1.0
C      1  0.5050270000000  0.5320810000000  0.4487580000000 1.0
C      1  0.5036320000000  0.5335830000000  0.5511430000000 1.0
C      1  0.5036320000000  0.4662350000000  0.4483620000000 1.0
C      1  0.4874360000000  0.4034830000000  0.4827240000000 1.0
C      1  0.4874360000000  0.5963350000000  0.5167810000000 1.0
C      1  0.4872380000000  0.5964150000000  0.4839060000000 1.0
C      1  0.4872390000000  0.4034030000000  0.5155990000000 1.0
C      1  0.4909660000000  0.5627870000000  0.5687640000000 1.0
C      1  0.4909660000000  0.4370310000000  0.4307400000000 1.0
C      1  0.4896900000000  0.4390120000000  0.5672850000000 1.0
C      1  0.4896900000000  0.5608060000000  0.4322200000000 1.0
C      1  0.5265020000000  0.5571820000000  0.4856090000000 1.0
C      1  0.5265020000000  0.4426360000000  0.5138960000000 1.0
C      1  0.5264900000000  0.4425810000000  0.4851600000000 1.0
C      1  0.5264900000000  0.5572370000000  0.5143450000000 1.0
C      1  0.6122730000000  0.5534700000000  0.5172830000000 1.0
C      1  0.6122730000000  0.4463490000000  0.4822220000000 1.0
C      1  0.6122360000000  0.4448970000000  0.5125280000000 1.0
C      1  0.6122360000000  0.5549210000000  0.4869770000000 1.0
C      1  0.5581690000000  0.5146520000000  0.4496240000000 1.0
C      1  0.5581690000000  0.4851660000000  0.5498810000000 1.0
C      1  0.5520770000000  0.4825320000000  0.4493440000000 1.0
C      1  0.5520770000000  0.5172860000000  0.5501610000000 1.0
C      1  0.5170590000000  0.4707060000000  0.5220310000000 1.0
C      1  0.5170580000000  0.5291120000000  0.4774740000000 1.0
C      1  0.5154380000000  0.5293710000000  0.5220280000000 1.0
C      1  0.5154380000000  0.4704470000000  0.4774770000000 1.0
C      1  0.4164080000000  0.4437500000000  0.5423580000000 1.0
C      1  0.4164080000000  0.5560680000000  0.4571470000000 1.0
C      1  0.4199120000000  0.5622090000000  0.5435420000000 1.0
C      1  0.4199130000000  0.4376090000000  0.4559630000000 1.0
C      1  0.5527810000000  0.5609210000000  0.5299570000000 1.0
C      1  0.5527810000000  0.4388970000000  0.4695480000000 1.0
C      1  0.5522690000000  0.4380110000000  0.5298260000000 1.0
C      1  0.5522690000000  0.5618080000000  0.4696790000000 1.0
C      1  0.5072400000000  0.5644400000000  0.5945370000000 1.0
C      1  0.5072400000000  0.4353790000000  0.4049680000000 1.0
C      1  0.5050120000000  0.4368100000000  0.5938490000000 1.0
C      1  0.5050110000000  0.5630080000000  0.4056560000000 1.0
C      1  0.5503300000000  0.5632440000000  0.4339340000000 1.0
C      1  0.5503300000000  0.4365750000000  0.5655710000000 1.0
C      1  0.5517720000000  0.4382380000000  0.4335500000000 1.0
C      1  0.5517720000000  0.5615800000000  0.5659550000000 1.0
C      1  0.4780270000000  0.4844710000000  0.5170780000000 1.0
C      1  0.4780270000000  0.5153470000000  0.4824270000000 1.0
C      1  0.4767580000000  0.5162640000000  0.5129020000000 1.0
C      1  0.4767580000000  0.4835540000000  0.4866030000000 1.0
C      1  0.4861190000000  0.3914460000000  0.5443400000000 1.0
C      1  0.4861180000000  0.6083720000000  0.4551650000000 1.0
C      1  0.4876360000000  0.6093960000000  0.5448240000000 1.0
C      1  0.4876370000000  0.3904220000000  0.4546810000000 1.0
C      1  0.4537520000000  0.4678630000000  0.5871010000000 1.0
C      1  0.4537520000000  0.5319550000000  0.4124040000000 1.0
C      1  0.4550630000000  0.5336790000000  0.5870800000000 1.0
C      1  0.4550630000000  0.4661380000000  0.4124250000000 1.0
C      1  0.5748510000000  0.5346870000000  0.5623150000000 1.0
C      1  0.5748510000000  0.4651310000000  0.4371900000000 1.0
C      1  0.5758950000000  0.4593490000000  0.5617410000000 1.0
C      1  0.5758950000000  0.5404690000000  0.4377640000000 1.0
C      1  0.5937560000000  0.5384260000000  0.4691300000000 1.0
C      1  0.5937560000000  0.4613930000000  0.5303750000000 1.0
C      1  0.5946740000000  0.4651520000000  0.4659110000000 1.0
C      1  0.5946730000000  0.5346660000000  0.5335940000000 1.0
C      1  0.5247400000000  0.5172360000000  0.5657470000000 1.0
C      1  0.5247400000000  0.4825830000000  0.4337580000000 1.0
C      1  0.5272390000000  0.4861300000000  0.5648960000000 1.0
C      1  0.5272390000000  0.5136880000000  0.4346090000000 1.0
C      1  0.5152790000000  0.5820310000000  0.4741500000000 1.0
C      1  0.5152790000000  0.4177870000000  0.5253550000000 1.0
C      1  0.5156760000000  0.4178510000000  0.4736160000000 1.0
C      1  0.5156760000000  0.5819670000000  0.5258890000000 1.0
C      1  0.4114290000000  0.5343840000000  0.5517110000000 1.0
C      1  0.4114290000000  0.4654340000000  0.4477940000000 1.0
C      1  0.4090440000000  0.4710290000000  0.5537390000000 1.0
C      1  0.4090440000000  0.5287880000000  0.4457660000000 1.0
C      1  0.5747380000000  0.4277620000000  0.4852130000000 1.0
C      1  0.5747370000000  0.5720570000000  0.5142920000000 1.0
C      1  0.5742960000000  0.5728140000000  0.4851030000000 1.0
C      1  0.5742960000000  0.4270050000000  0.5144020000000 1.0
C      1  0.4509450000000  0.4401760000000  0.4841430000000 1.0
C      1  0.4509440000000  0.5596420000000  0.5153620000000 1.0
C      1  0.4499370000000  0.5593460000000  0.4833460000000 1.0
C      1  0.4499370000000  0.4404720000000  0.5161590000000 1.0
C      1  0.5189180000000  0.5241100000000  0.5944520000000 1.0
C      1  0.5189180000000  0.4757080000000  0.4050530000000 1.0
C      1  0.5190810000000  0.4763330000000  0.5922130000000 1.0
C      1  0.5190810000000  0.5234850000000  0.4072920000000 1.0
C      1  0.5792640000000  0.4836660000000  0.4833210000000 1.0
C      1  0.5792630000000  0.5161520000000  0.5161840000000 1.0
C      1  0.5799360000000  0.5174080000000  0.4853570000000 1.0
C      1  0.5799360000000  0.4824110000000  0.5141480000000 1.0
C      1  0.5287280000000  0.5874030000000  0.4461390000000 1.0
C      1  0.5287290000000  0.4124150000000  0.5533660000000 1.0
C      1  0.5301190000000  0.4125750000000  0.4459450000000 1.0
C      1  0.5301180000000  0.5872430000000  0.5535600000000 1.0
C      1  0.5787900000000  0.5172970000000  0.4103130000000 1.0
C      1  0.5787900000000  0.4825210000000  0.5891910000000 1.0
C      1  0.5806540000000  0.4848440000000  0.4110110000000 1.0
C      1  0.5806540000000  0.5149740000000  0.5884940000000 1.0
C      1  0.4082860000000  0.5599620000000  0.4884220000000 1.0
C      1  0.4082860000000  0.4398550000000  0.5110830000000 1.0
C      1  0.4117080000000  0.4252610000000  0.4833500000000 1.0
C      1  0.4117080000000  0.5745570000000  0.5161550000000 1.0
C      1  0.5908170000000  0.4973020000000  0.5518170000000 1.0
C      1  0.5908170000000  0.5025160000000  0.4476870000000 1.0
C      1  0.5129740000000  0.4999090000000  0.4997520000000 1.0
END
