TITL C-862507-1800-383 1.77887674232875 125000 -1135.3095824468 0 0 191 (C1) n - 1
REM
REM in /home/nfs/bkarasulu/CARBON/AIRSS/Generating-Clusters/TERSOFF/Higher-Symm/FIRE-HFTN
REM
REM
REM
REM
REM
REM ./C.cell (b20cbc046b6831c77cfcea5457e17084)
REM AIRSS Version 0.9.1 bugfix July 2018 build 013d7b7c2542+ Fri, 06 Jul 2018 19:26:36 +0100
REM compiler GCC version 9.2.1 20190827 (Red Hat 9.2.1-1)
REM options -cpp -mtune=generic -march=x86-64 -g -O0 -fpre-include=/usr/include/finclude/math-vector-fortran.h
REM seed 1725984930 837929361 -2012213728 -986237413 -1166640747 1938521224 1009782504 -871227345 1006897098 1198635516 1950605998 -253110110 1542556415 495014881 1529220222 -1376032688 1442416722 604707008 87609241 -58578832 1075984775 -1390075123 -1678259007 9072047 428904844 -1969412412 -494207188 1149590266 -1846794678 1203397136 -319699359 -1184177589 746293513
REM
CELL 1.54180   50.00000   50.00000   50.00000   90.00000   90.00000   90.00000
LATT -1
SFAC C  
C      1  0.4478630000000  0.4929340000000  0.5815760000000 1.0
C      1  0.5772730000000  0.4410060000000  0.4725390000000 1.0
C      1  0.4489910000000  0.5587950000000  0.4779830000000 1.0
C      1  0.5795110000000  0.5288600000000  0.5772190000000 1.0
C      1  0.4846560000000  0.4077840000000  0.4282340000000 1.0
C      1  0.5404500000000  0.4697720000000  0.3818500000000 1.0
C      1  0.4199530000000  0.5891420000000  0.5233600000000 1.0
C      1  0.4480120000000  0.4893890000000  0.4279690000000 1.0
C      1  0.3902740000000  0.5544710000000  0.5469180000000 1.0
C      1  0.5302170000000  0.5345370000000  0.4909400000000 1.0
C      1  0.5496220000000  0.3968360000000  0.5645850000000 1.0
C      1  0.5526720000000  0.4249310000000  0.5209460000000 1.0
C      1  0.4896440000000  0.5317980000000  0.4605200000000 1.0
C      1  0.5921110000000  0.4595200000000  0.5203770000000 1.0
C      1  0.3922200000000  0.4779810000000  0.4448040000000 1.0
C      1  0.4993290000000  0.5537370000000  0.4435660000000 1.0
C      1  0.5687750000000  0.4456550000000  0.5349070000000 1.0
C      1  0.3881550000000  0.5048090000000  0.4563300000000 1.0
C      1  0.5681690000000  0.6186170000000  0.4905200000000 1.0
C      1  0.4368900000000  0.5623310000000  0.5673300000000 1.0
C      1  0.5624470000000  0.5119950000000  0.4012030000000 1.0
C      1  0.5525820000000  0.5999510000000  0.4746820000000 1.0
C      1  0.4667030000000  0.4449860000000  0.4458980000000 1.0
C      1  0.5423570000000  0.5365340000000  0.6107640000000 1.0
C      1  0.5260480000000  0.5984460000000  0.4328770000000 1.0
C      1  0.5224400000000  0.5775840000000  0.5130080000000 1.0
C      1  0.6084560000000  0.4859280000000  0.5642650000000 1.0
C      1  0.5235730000000  0.5499330000000  0.5148570000000 1.0
C      1  0.5745870000000  0.5534650000000  0.5367730000000 1.0
C      1  0.4332110000000  0.4643730000000  0.4687740000000 1.0
C      1  0.5979430000000  0.5175250000000  0.4384310000000 1.0
C      1  0.5611040000000  0.5776400000000  0.5481970000000 1.0
C      1  0.4627800000000  0.5456320000000  0.5267010000000 1.0
C      1  0.4599310000000  0.4622720000000  0.4224900000000 1.0
C      1  0.4728410000000  0.6073250000000  0.5786430000000 1.0
C      1  0.5106260000000  0.4573080000000  0.4229000000000 1.0
C      1  0.4500030000000  0.5087470000000  0.4741420000000 1.0
C      1  0.4399810000000  0.5344750000000  0.5110140000000 1.0
C      1  0.6050480000000  0.4841530000000  0.5335620000000 1.0
C      1  0.4693890000000  0.4553200000000  0.3958920000000 1.0
C      1  0.4903730000000  0.5640780000000  0.3987200000000 1.0
C      1  0.5289760000000  0.6080280000000  0.4612440000000 1.0
C      1  0.5689380000000  0.4655820000000  0.5810150000000 1.0
C      1  0.4970850000000  0.4816170000000  0.4254720000000 1.0
C      1  0.6159870000000  0.4729500000000  0.4761240000000 1.0
C      1  0.4905880000000  0.4245550000000  0.4751990000000 1.0
C      1  0.5127790000000  0.5039370000000  0.4304840000000 1.0
C      1  0.4013690000000  0.4869530000000  0.5003140000000 1.0
C      1  0.4976050000000  0.5142190000000  0.5871970000000 1.0
C      1  0.5003520000000  0.5867620000000  0.4959000000000 1.0
C      1  0.5208670000000  0.3857190000000  0.5262790000000 1.0
C      1  0.5331410000000  0.5032660000000  0.4515950000000 1.0
C      1  0.4765700000000  0.5267330000000  0.5435740000000 1.0
C      1  0.4557620000000  0.4088220000000  0.4173270000000 1.0
C      1  0.6120260000000  0.4728040000000  0.4471820000000 1.0
C      1  0.4725510000000  0.3885150000000  0.5106490000000 1.0
C      1  0.4538390000000  0.4627110000000  0.4921410000000 1.0
C      1  0.4983330000000  0.4855650000000  0.5248430000000 1.0
C      1  0.4969640000000  0.3868450000000  0.5745900000000 1.0
C      1  0.5496830000000  0.5263900000000  0.4498440000000 1.0
C      1  0.5703000000000  0.5272120000000  0.4274290000000 1.0
C      1  0.4557620000000  0.4841350000000  0.5546240000000 1.0
C      1  0.5760830000000  0.4408890000000  0.5645400000000 1.0
C      1  0.5214010000000  0.4505960000000  0.3944670000000 1.0
C      1  0.5582850000000  0.5752380000000  0.5784840000000 1.0
C      1  0.5618710000000  0.4820200000000  0.3961810000000 1.0
C      1  0.4758350000000  0.5679600000000  0.4936370000000 1.0
C      1  0.4735750000000  0.6358990000000  0.5094540000000 1.0
C      1  0.4246330000000  0.5000690000000  0.4103230000000 1.0
C      1  0.3867730000000  0.5292680000000  0.4414990000000 1.0
C      1  0.4149410000000  0.5144600000000  0.5668610000000 1.0
C      1  0.5071520000000  0.5175660000000  0.4812790000000 1.0
C      1  0.4476870000000  0.4045950000000  0.5096090000000 1.0
C      1  0.5652660000000  0.4348730000000  0.4188800000000 1.0
C      1  0.4390720000000  0.4626550000000  0.5430130000000 1.0
C      1  0.4623400000000  0.5519280000000  0.5829290000000 1.0
C      1  0.4966950000000  0.4907900000000  0.3720380000000 1.0
C      1  0.5979550000000  0.5068870000000  0.5841340000000 1.0
C      1  0.5341890000000  0.4380560000000  0.5002440000000 1.0
C      1  0.3989370000000  0.4936520000000  0.5526170000000 1.0
C      1  0.5672020000000  0.5579960000000  0.4236920000000 1.0
C      1  0.4133110000000  0.5437180000000  0.5618210000000 1.0
C      1  0.4994190000000  0.3996140000000  0.5139240000000 1.0
C      1  0.4304800000000  0.4118870000000  0.4368570000000 1.0
C      1  0.4376010000000  0.5867510000000  0.4725530000000 1.0
C      1  0.5541750000000  0.4842920000000  0.5629230000000 1.0
C      1  0.5464370000000  0.4568210000000  0.5993850000000 1.0
C      1  0.4642450000000  0.5739260000000  0.5335130000000 1.0
C      1  0.5665100000000  0.4650630000000  0.4584590000000 1.0
C      1  0.4613120000000  0.5328530000000  0.4651020000000 1.0
C      1  0.4654760000000  0.5149970000000  0.4248160000000 1.0
C      1  0.4758730000000  0.4986840000000  0.5389450000000 1.0
C      1  0.4172720000000  0.5422100000000  0.4857250000000 1.0
C      1  0.5357910000000  0.4268890000000  0.4085680000000 1.0
C      1  0.5135850000000  0.5510970000000  0.4153430000000 1.0
C      1  0.4248840000000  0.5294740000000  0.4042150000000 1.0
C      1  0.5248880000000  0.4998820000000  0.5783210000000 1.0
C      1  0.4320670000000  0.4073490000000  0.5347320000000 1.0
C      1  0.4368660000000  0.4499100000000  0.5705120000000 1.0
C      1  0.5052350000000  0.3785640000000  0.4596710000000 1.0
C      1  0.4967890000000  0.5996120000000  0.4298370000000 1.0
C      1  0.5562080000000  0.5068560000000  0.5395520000000 1.0
C      1  0.4817470000000  0.5336250000000  0.5702850000000 1.0
C      1  0.4813850000000  0.4699590000000  0.4823270000000 1.0
C      1  0.5424100000000  0.4787410000000  0.4665260000000 1.0
C      1  0.5762930000000  0.4635510000000  0.4130450000000 1.0
C      1  0.3934130000000  0.4610400000000  0.4879780000000 1.0
C      1  0.5394600000000  0.5091260000000  0.6035320000000 1.0
C      1  0.5592340000000  0.5229880000000  0.4929060000000 1.0
C      1  0.5846240000000  0.4744050000000  0.4380330000000 1.0
C      1  0.5178060000000  0.4469530000000  0.4504260000000 1.0
C      1  0.4755350000000  0.4553810000000  0.6129910000000 1.0
C      1  0.4452490000000  0.5070840000000  0.5026220000000 1.0
C      1  0.5274670000000  0.3880540000000  0.5831100000000 1.0
C      1  0.5716980000000  0.5291850000000  0.5503780000000 1.0
C      1  0.4875460000000  0.5057390000000  0.6151050000000 1.0
C      1  0.4411310000000  0.4231210000000  0.4863210000000 1.0
C      1  0.5013250000000  0.4739390000000  0.6138980000000 1.0
C      1  0.4902450000000  0.5375560000000  0.6227440000000 1.0
C      1  0.5280660000000  0.5137960000000  0.5487440000000 1.0
C      1  0.4489340000000  0.4491770000000  0.5183210000000 1.0
C      1  0.6091870000000  0.5220660000000  0.4661010000000 1.0
C      1  0.5647940000000  0.4175190000000  0.5789060000000 1.0
C      1  0.4620350000000  0.4863100000000  0.6061160000000 1.0
C      1  0.5441500000000  0.3997140000000  0.5359050000000 1.0
C      1  0.4959420000000  0.5928460000000  0.5665460000000 1.0
C      1  0.5183060000000  0.4042920000000  0.4202380000000 1.0
C      1  0.5577630000000  0.4985600000000  0.5105430000000 1.0
C      1  0.4678020000000  0.5541690000000  0.6116860000000 1.0
C      1  0.5953300000000  0.5513460000000  0.5169400000000 1.0
C      1  0.5384920000000  0.4737370000000  0.4967430000000 1.0
C      1  0.4900260000000  0.5903600000000  0.5364220000000 1.0
C      1  0.3634260000000  0.5447210000000  0.5522500000000 1.0
C      1  0.3927180000000  0.4434160000000  0.5399580000000 1.0
C      1  0.5457190000000  0.4662640000000  0.5399790000000 1.0
C      1  0.5073360000000  0.4566200000000  0.5667210000000 1.0
C      1  0.4531490000000  0.6136560000000  0.5558730000000 1.0
C      1  0.5163860000000  0.5225150000000  0.4088580000000 1.0
C      1  0.5056910000000  0.4229710000000  0.4989810000000 1.0
C      1  0.5481110000000  0.4273530000000  0.6020370000000 1.0
C      1  0.5146500000000  0.5125890000000  0.3811560000000 1.0
C      1  0.6160520000000  0.5054270000000  0.5153380000000 1.0
C      1  0.5168480000000  0.5377040000000  0.5396530000000 1.0
C      1  0.5449670000000  0.4043790000000  0.4614170000000 1.0
C      1  0.4901060000000  0.4504090000000  0.4625320000000 1.0
C      1  0.4461800000000  0.4044660000000  0.5606260000000 1.0
C      1  0.5183010000000  0.5495610000000  0.6228110000000 1.0
C      1  0.5381120000000  0.5701930000000  0.4209370000000 1.0
C      1  0.5881720000000  0.5701630000000  0.4398350000000 1.0
C      1  0.5779450000000  0.4246240000000  0.4451970000000 1.0
C      1  0.4808940000000  0.5764730000000  0.4376650000000 1.0
C      1  0.5603540000000  0.5725770000000  0.4719330000000 1.0
C      1  0.4989670000000  0.4897290000000  0.4952080000000 1.0
C      1  0.6162730000000  0.5003320000000  0.4859910000000 1.0
C      1  0.4032380000000  0.4159530000000  0.5339540000000 1.0
C      1  0.5200480000000  0.4695790000000  0.5912560000000 1.0
C      1  0.4618470000000  0.5669490000000  0.4142570000000 1.0
C      1  0.4258240000000  0.5912040000000  0.4455030000000 1.0
C      1  0.4482020000000  0.4244790000000  0.4569760000000 1.0
C      1  0.4402920000000  0.5866710000000  0.5458420000000 1.0
C      1  0.4508560000000  0.5389390000000  0.4151270000000 1.0
C      1  0.5242370000000  0.4097930000000  0.6084230000000 1.0
C      1  0.4424140000000  0.5899410000000  0.4209410000000 1.0
C      1  0.4048440000000  0.4542220000000  0.4602160000000 1.0
C      1  0.4859680000000  0.4010100000000  0.4580420000000 1.0
C      1  0.4755560000000  0.6188030000000  0.5336320000000 1.0
C      1  0.4093940000000  0.4672520000000  0.5438960000000 1.0
C      1  0.5044920000000  0.6090980000000  0.4783860000000 1.0
C      1  0.4947170000000  0.4639740000000  0.3846090000000 1.0
C      1  0.5884920000000  0.5655370000000  0.4694630000000 1.0
C      1  0.5416330000000  0.5507410000000  0.4667990000000 1.0
C      1  0.4007100000000  0.5774790000000  0.4451560000000 1.0
C      1  0.5366590000000  0.4311760000000  0.4691120000000 1.0
C      1  0.5838910000000  0.5438030000000  0.4915470000000 1.0
C      1  0.5288520000000  0.3877630000000  0.4441460000000 1.0
C      1  0.5406010000000  0.5921020000000  0.5313740000000 1.0
C      1  0.3984400000000  0.5513470000000  0.4567290000000 1.0
C      1  0.5987740000000  0.4531760000000  0.4912070000000 1.0
C      1  0.4731960000000  0.4298940000000  0.5965480000000 1.0
C      1  0.3948370000000  0.5750190000000  0.5267650000000 1.0
C      1  0.4047790000000  0.4277130000000  0.4450550000000 1.0
C      1  0.4936290000000  0.4085400000000  0.5972010000000 1.0
C      1  0.3984350000000  0.5113190000000  0.4830130000000 1.0
C      1  0.4274380000000  0.6018110000000  0.4967210000000 1.0
C      1  0.4404550000000  0.4889960000000  0.4562840000000 1.0
C      1  0.4269990000000  0.4881350000000  0.5120410000000 1.0
C      1  0.6168580000000  0.5331430000000  0.5240280000000 1.0
C      1  0.4505470000000  0.4269510000000  0.5783480000000 1.0
C      1  0.4907690000000  0.6335020000000  0.4857750000000 1.0
C      1  0.5154310000000  0.4642110000000  0.5391560000000 1.0
C      1  0.5638800000000  0.5495510000000  0.5941350000000 1.0
END
