TITL C-862127-1500-1098 31.2191375885309 125000 -814.776807813473 0 0 152 (Ci) n - 1
REM
REM in /home/nfs/bkarasulu/CARBON/AIRSS/Generating-Clusters/TERSOFF/Higher-Symm/FIRE-HFTN
REM
REM
REM
REM
REM
REM ./C.cell (b20cbc046b6831c77cfcea5457e17084)
REM AIRSS Version 0.9.1 bugfix July 2018 build 013d7b7c2542+ Fri, 06 Jul 2018 19:26:36 +0100
REM compiler GCC version 9.2.1 20190827 (Red Hat 9.2.1-1)
REM options -cpp -mtune=generic -march=x86-64 -g -O0 -fpre-include=/usr/include/finclude/math-vector-fortran.h
REM seed 1508173815 227211320 1008338746 -298510013 1455325870 719674665 1311470801 -210071959 -1966533800 -1824380084 -226443535 605320688 -978079427 -1360722851 2043207837 -1496115294 720727604 43556857 1629618087 -388640112 -1295863694 -279572961 -1998758154 1815944589 -53893005 -1090615986 -2058926535 393936459 -1396513735 -1123607402 -745400624 -698346267 1496168938
REM
CELL 1.54180   50.00000   50.00000   50.00000   90.00000   90.00000   90.00000
LATT -1
SFAC C  
C      1  0.5923700000000  0.4681600000000  0.5579240000000 1.0
C      1  0.5920390000000  0.4418360000000  0.4685190000000 1.0
C      1  0.5937190000000  0.5311280000000  0.4421840000000 1.0
C      1  0.5965280000000  0.5570510000000  0.5314300000000 1.0
C      1  0.4062810000000  0.4688720000000  0.5578160000000 1.0
C      1  0.4034720000000  0.4429490000000  0.4685700000000 1.0
C      1  0.4076300000000  0.5318400000000  0.4420760000000 1.0
C      1  0.4079610000000  0.5581640000000  0.5314810000000 1.0
C      1  0.5178810000000  0.4611530000000  0.5282010000000 1.0
C      1  0.5139950000000  0.4725240000000  0.4566170000000 1.0
C      1  0.5120790000000  0.5426050000000  0.4743050000000 1.0
C      1  0.5182740000000  0.5311060000000  0.5427780000000 1.0
C      1  0.4879210000000  0.4573950000000  0.5256950000000 1.0
C      1  0.4817260000000  0.4688940000000  0.4572220000000 1.0
C      1  0.4821190000000  0.5388470000000  0.4717990000000 1.0
C      1  0.4860050000000  0.5274760000000  0.5433830000000 1.0
C      1  0.4907790000000  0.4195580000000  0.5808510000000 1.0
C      1  0.4899140000000  0.4070550000000  0.4257650000000 1.0
C      1  0.4816680000000  0.5777350000000  0.4163000000000 1.0
C      1  0.4827970000000  0.5880560000000  0.5753910000000 1.0
C      1  0.5183320000000  0.4222650000000  0.5837000000000 1.0
C      1  0.5172030000000  0.4119440000000  0.4246090000000 1.0
C      1  0.5092210000000  0.5804420000000  0.4191490000000 1.0
C      1  0.5100860000000  0.5929450000000  0.5742350000000 1.0
C      1  0.3995520000000  0.4911870000000  0.4327230000000 1.0
C      1  0.4028240000000  0.5677170000000  0.4902010000000 1.0
C      1  0.4029820000000  0.5099170000000  0.5674010000000 1.0
C      1  0.3990100000000  0.4336800000000  0.5096960000000 1.0
C      1  0.5970180000000  0.4900830000000  0.4325990000000 1.0
C      1  0.6009900000000  0.5663200000000  0.4903040000000 1.0
C      1  0.6004480000000  0.5088130000000  0.5672770000000 1.0
C      1  0.5971760000000  0.4322830000000  0.5097990000000 1.0
C      1  0.4230530000000  0.5112300000000  0.4243180000000 1.0
C      1  0.4250160000000  0.5752360000000  0.5116440000000 1.0
C      1  0.4246230000000  0.4875300000000  0.5750910000000 1.0
C      1  0.4203440000000  0.4248100000000  0.4876500000000 1.0
C      1  0.5753770000000  0.5124700000000  0.4249090000000 1.0
C      1  0.5796560000000  0.5751900000000  0.5123500000000 1.0
C      1  0.5769470000000  0.4887700000000  0.5756820000000 1.0
C      1  0.5749840000000  0.4247640000000  0.4883560000000 1.0
C      1  0.5231160000000  0.5989450000000  0.5088110000000 1.0
C      1  0.5166280000000  0.4910790000000  0.6016530000000 1.0
C      1  0.5131570000000  0.4007970000000  0.4909870000000 1.0
C      1  0.5196000000000  0.5107610000000  0.3980960000000 1.0
C      1  0.4868430000000  0.5992030000000  0.5090130000000 1.0
C      1  0.4804000000000  0.4892390000000  0.6019040000000 1.0
C      1  0.4768840000000  0.4010550000000  0.4911890000000 1.0
C      1  0.4833720000000  0.5089210000000  0.3983470000000 1.0
C      1  0.4706420000000  0.4902120000000  0.5551880000000 1.0
C      1  0.4675210000000  0.4419660000000  0.4924160000000 1.0
C      1  0.4692390000000  0.5061280000000  0.4424750000000 1.0
C      1  0.4706400000000  0.5553910000000  0.5085920000000 1.0
C      1  0.5307610000000  0.4938720000000  0.5575250000000 1.0
C      1  0.5293600000000  0.4446090000000  0.4914080000000 1.0
C      1  0.5293580000000  0.5097880000000  0.4448120000000 1.0
C      1  0.5324790000000  0.5580340000000  0.5075840000000 1.0
C      1  0.4842640000000  0.4876430000000  0.4821110000000 1.0
C      1  0.4719010000000  0.5170700000000  0.4875360000000 1.0
C      1  0.4821010000000  0.5094490000000  0.5178970000000 1.0
C      1  0.4753730000000  0.4787220000000  0.5111060000000 1.0
C      1  0.5178990000000  0.4905510000000  0.4821030000000 1.0
C      1  0.5246270000000  0.5212780000000  0.4888940000000 1.0
C      1  0.5157360000000  0.5123570000000  0.5178890000000 1.0
C      1  0.5280990000000  0.4829300000000  0.5124640000000 1.0
C      1  0.5156610000000  0.4430280000000  0.4648370000000 1.0
C      1  0.5135520000000  0.5364710000000  0.4440540000000 1.0
C      1  0.5156720000000  0.5615550000000  0.5341260000000 1.0
C      1  0.5178940000000  0.4663180000000  0.5585410000000 1.0
C      1  0.4843280000000  0.4384450000000  0.4658740000000 1.0
C      1  0.4821060000000  0.5336820000000  0.4414590000000 1.0
C      1  0.4843390000000  0.5569720000000  0.5351630000000 1.0
C      1  0.4864480000000  0.4635290000000  0.5559460000000 1.0
C      1  0.3914500000000  0.5095260000000  0.5389180000000 1.0
C      1  0.3891970000000  0.4626630000000  0.5091180000000 1.0
C      1  0.3895810000000  0.4925750000000  0.4616940000000 1.0
C      1  0.3918410000000  0.5392180000000  0.4911790000000 1.0
C      1  0.6104190000000  0.5074250000000  0.5383060000000 1.0
C      1  0.6081590000000  0.4607820000000  0.5088210000000 1.0
C      1  0.6085500000000  0.4904740000000  0.4610820000000 1.0
C      1  0.6108030000000  0.5373370000000  0.4908820000000 1.0
C      1  0.5987620000000  0.4692520000000  0.4796040000000 1.0
C      1  0.6000320000000  0.5196290000000  0.4695330000000 1.0
C      1  0.6014670000000  0.5293550000000  0.5201400000000 1.0
C      1  0.5989850000000  0.4790690000000  0.5303380000000 1.0
C      1  0.3985330000000  0.4706450000000  0.4798600000000 1.0
C      1  0.4010150000000  0.5209310000000  0.4696620000000 1.0
C      1  0.4012380000000  0.5307480000000  0.5203960000000 1.0
C      1  0.3999680000000  0.4803710000000  0.5304670000000 1.0
C      1  0.5585200000000  0.5522490000000  0.5666860000000 1.0
C      1  0.5601600000000  0.4369880000000  0.5469580000000 1.0
C      1  0.5604340000000  0.4542670000000  0.4386390000000 1.0
C      1  0.5646490000000  0.5639870000000  0.4447460000000 1.0
C      1  0.4395660000000  0.5457330000000  0.5613610000000 1.0
C      1  0.4353510000000  0.4360130000000  0.5552540000000 1.0
C      1  0.4414800000000  0.4477510000000  0.4333140000000 1.0
C      1  0.4398400000000  0.5630120000000  0.4530420000000 1.0
C      1  0.5716700000000  0.5226030000000  0.5080140000000 1.0
C      1  0.5703040000000  0.4931840000000  0.5228340000000 1.0
C      1  0.5698640000000  0.4781820000000  0.4925620000000 1.0
C      1  0.5705900000000  0.5083960000000  0.4781920000000 1.0
C      1  0.4301360000000  0.5218180000000  0.5074380000000 1.0
C      1  0.4294100000000  0.4916040000000  0.5218080000000 1.0
C      1  0.4283300000000  0.4773970000000  0.4919860000000 1.0
C      1  0.4296960000000  0.5068160000000  0.4771660000000 1.0
C      1  0.5602430000000  0.5507460000000  0.5105080000000 1.0
C      1  0.5586160000000  0.4937310000000  0.5511970000000 1.0
C      1  0.5572760000000  0.4502140000000  0.4911290000000 1.0
C      1  0.5575800000000  0.5112120000000  0.4506560000000 1.0
C      1  0.4427240000000  0.5497860000000  0.5088710000000 1.0
C      1  0.4424200000000  0.4887880000000  0.5493440000000 1.0
C      1  0.4397570000000  0.4492540000000  0.4894920000000 1.0
C      1  0.4413840000000  0.5062690000000  0.4488030000000 1.0
C      1  0.5389170000000  0.5379430000000  0.5850600000000 1.0
C      1  0.5384880000000  0.4188700000000  0.5356690000000 1.0
C      1  0.5411400000000  0.4662540000000  0.4187010000000 1.0
C      1  0.5523710000000  0.5837300000000  0.4643900000000 1.0
C      1  0.4588600000000  0.5337460000000  0.5812990000000 1.0
C      1  0.4476290000000  0.4162700000000  0.5356100000000 1.0
C      1  0.4610830000000  0.4620570000000  0.4149400000000 1.0
C      1  0.4615120000000  0.5811300000000  0.4643310000000 1.0
C      1  0.4532330000000  0.5950160000000  0.5222790000000 1.0
C      1  0.4485580000000  0.4738490000000  0.5935840000000 1.0
C      1  0.4453970000000  0.4079710000000  0.4746230000000 1.0
C      1  0.4500660000000  0.5224400000000  0.4032860000000 1.0
C      1  0.5546030000000  0.5920290000000  0.5253770000000 1.0
C      1  0.5499340000000  0.4775600000000  0.5967140000000 1.0
C      1  0.5467670000000  0.4049840000000  0.4777210000000 1.0
C      1  0.5514420000000  0.5261510000000  0.4064160000000 1.0
C      1  0.5261620000000  0.4921760000000  0.4216030000000 1.0
C      1  0.5302860000000  0.5787720000000  0.4848330000000 1.0
C      1  0.5242180000000  0.5119950000000  0.5796840000000 1.0
C      1  0.5226710000000  0.4234590000000  0.5103730000000 1.0
C      1  0.4757820000000  0.4880050000000  0.4203160000000 1.0
C      1  0.4773290000000  0.5765410000000  0.4896270000000 1.0
C      1  0.4738380000000  0.5078240000000  0.5783970000000 1.0
C      1  0.4697140000000  0.4212280000000  0.5151670000000 1.0
C      1  0.5310800000000  0.4464460000000  0.5757460000000 1.0
C      1  0.5300490000000  0.4260960000000  0.4454970000000 1.0
C      1  0.5244970000000  0.5579610000000  0.4272210000000 1.0
C      1  0.5260240000000  0.5809780000000  0.5540830000000 1.0
C      1  0.4755030000000  0.4420390000000  0.5727790000000 1.0
C      1  0.4739760000000  0.4190220000000  0.4459170000000 1.0
C      1  0.4689200000000  0.5535540000000  0.4242540000000 1.0
C      1  0.4699510000000  0.5739040000000  0.5545030000000 1.0
C      1  0.4409720000000  0.5758340000000  0.5504700000000 1.0
C      1  0.4487700000000  0.4454290000000  0.5809420000000 1.0
C      1  0.4453230000000  0.4189280000000  0.4443130000000 1.0
C      1  0.4395760000000  0.5510470000000  0.4227280000000 1.0
C      1  0.5546770000000  0.5810720000000  0.5556870000000 1.0
C      1  0.5604240000000  0.4489530000000  0.5772720000000 1.0
C      1  0.5590280000000  0.4241660000000  0.4495300000000 1.0
C      1  0.5512300000000  0.5545710000000  0.4190580000000 1.0
END
