TITL C-862133-5440-411 -34.3489969237295 125000 -1020.01925566891 0 0 185 (C1) n - 1
REM
REM in /home/nfs/bkarasulu/CARBON/AIRSS/Generating-Clusters/TERSOFF/Higher-Symm/FIRE-HFTN
REM
REM
REM
REM
REM
REM ./C.cell (b20cbc046b6831c77cfcea5457e17084)
REM AIRSS Version 0.9.1 bugfix July 2018 build 013d7b7c2542+ Fri, 06 Jul 2018 19:26:36 +0100
REM compiler GCC version 9.2.1 20190827 (Red Hat 9.2.1-1)
REM options -cpp -mtune=generic -march=x86-64 -g -O0 -fpre-include=/usr/include/finclude/math-vector-fortran.h
REM seed -1176132846 348555656 1586566411 1417881410 -2027275123 -1907633470 -821330186 179663666 1323233326 -321034332 -139706712 -407444852 311261561 1946362971 -1069623214 -1209394747 765940459 1079651454 -1838496107 -1629027301 -1156414052 523423766 1153856409 1489822483 850314491 1726225064 -165325493 -1079839738 1481073364 2128384254 1153067904 -1792184436 872290641
REM
CELL 1.54180   50.00000   50.00000   50.00000   90.00000   90.00000   90.00000
LATT -1
SFAC C  
C      1  0.5860540000000  0.4832890000000  0.5631070000000 1.0
C      1  0.5454400000000  0.5782200000000  0.5595520000000 1.0
C      1  0.4292990000000  0.5630050000000  0.5635520000000 1.0
C      1  0.4129050000000  0.4682730000000  0.5596930000000 1.0
C      1  0.5127980000000  0.4066360000000  0.5623950000000 1.0
C      1  0.5856370000000  0.5154820000000  0.5625480000000 1.0
C      1  0.5473710000000  0.4184070000000  0.5589830000000 1.0
C      1  0.4325620000000  0.4386770000000  0.5607790000000 1.0
C      1  0.4114000000000  0.5321130000000  0.5587740000000 1.0
C      1  0.5121150000000  0.5930490000000  0.5622450000000 1.0
C      1  0.5659050000000  0.4679250000000  0.5396980000000 1.0
C      1  0.5413770000000  0.5534170000000  0.5398860000000 1.0
C      1  0.4586750000000  0.5649030000000  0.5463770000000 1.0
C      1  0.4337200000000  0.4842450000000  0.5429930000000 1.0
C      1  0.4922560000000  0.4283090000000  0.5458590000000 1.0
C      1  0.5652120000000  0.5299660000000  0.5394700000000 1.0
C      1  0.5434740000000  0.4435060000000  0.5403510000000 1.0
C      1  0.4599630000000  0.4413490000000  0.5430740000000 1.0
C      1  0.4315060000000  0.5174630000000  0.5402980000000 1.0
C      1  0.4920360000000  0.5726710000000  0.5452480000000 1.0
C      1  0.5562610000000  0.4341730000000  0.4269800000000 1.0
C      1  0.5678880000000  0.5194670000000  0.4199470000000 1.0
C      1  0.4978410000000  0.5836000000000  0.4264630000000 1.0
C      1  0.4240630000000  0.5243330000000  0.4238110000000 1.0
C      1  0.4561380000000  0.4375590000000  0.4274450000000 1.0
C      1  0.5546200000000  0.5635930000000  0.4270540000000 1.0
C      1  0.5715390000000  0.4778280000000  0.4215900000000 1.0
C      1  0.5001190000000  0.4166670000000  0.4284640000000 1.0
C      1  0.4267610000000  0.4762830000000  0.4268980000000 1.0
C      1  0.4523800000000  0.5646840000000  0.4285370000000 1.0
C      1  0.4196150000000  0.5791950000000  0.5375960000000 1.0
C      1  0.3998680000000  0.4661270000000  0.5260460000000 1.0
C      1  0.5214870000000  0.3896190000000  0.5315590000000 1.0
C      1  0.6075800000000  0.4717210000000  0.5393320000000 1.0
C      1  0.5624470000000  0.5880720000000  0.5284210000000 1.0
C      1  0.4209680000000  0.4221650000000  0.5366690000000 1.0
C      1  0.3965670000000  0.5358900000000  0.5260770000000 1.0
C      1  0.5213120000000  0.6096990000000  0.5314110000000 1.0
C      1  0.6069320000000  0.5264760000000  0.5394590000000 1.0
C      1  0.5634360000000  0.4090730000000  0.5270600000000 1.0
C      1  0.5409640000000  0.4837770000000  0.3786060000000 1.0
C      1  0.5266880000000  0.5432320000000  0.3849150000000 1.0
C      1  0.4691330000000  0.5445090000000  0.3835200000000 1.0
C      1  0.4549920000000  0.4845150000000  0.3839540000000 1.0
C      1  0.5008070000000  0.4429670000000  0.3832100000000 1.0
C      1  0.5422940000000  0.5147470000000  0.3745840000000 1.0
C      1  0.5292180000000  0.4525460000000  0.3811310000000 1.0
C      1  0.4709300000000  0.4582340000000  0.3790250000000 1.0
C      1  0.4527330000000  0.5190370000000  0.3781640000000 1.0
C      1  0.5001990000000  0.5560820000000  0.3790820000000 1.0
C      1  0.4758610000000  0.4599790000000  0.4388420000000 1.0
C      1  0.5363340000000  0.4523410000000  0.4416000000000 1.0
C      1  0.5405310000000  0.5150150000000  0.4352450000000 1.0
C      1  0.5017790000000  0.5565630000000  0.4395580000000 1.0
C      1  0.4495940000000  0.5172450000000  0.4397420000000 1.0
C      1  0.4724860000000  0.5425630000000  0.4395160000000 1.0
C      1  0.5330920000000  0.5460730000000  0.4399810000000 1.0
C      1  0.5470800000000  0.4811240000000  0.4392040000000 1.0
C      1  0.5045230000000  0.4442170000000  0.4402650000000 1.0
C      1  0.4523920000000  0.4860940000000  0.4409550000000 1.0
C      1  0.4918870000000  0.4222440000000  0.5873700000000 1.0
C      1  0.5715290000000  0.4688670000000  0.5866190000000 1.0
C      1  0.5472930000000  0.5520270000000  0.5814320000000 1.0
C      1  0.4552200000000  0.5682390000000  0.5880480000000 1.0
C      1  0.4238930000000  0.4850350000000  0.5863880000000 1.0
C      1  0.4899410000000  0.5784920000000  0.5867620000000 1.0
C      1  0.5715600000000  0.5302610000000  0.5857700000000 1.0
C      1  0.5504340000000  0.4434410000000  0.5817650000000 1.0
C      1  0.4571720000000  0.4316210000000  0.5838000000000 1.0
C      1  0.4244510000000  0.5157140000000  0.5839240000000 1.0
C      1  0.4917680000000  0.4176960000000  0.4001280000000 1.0
C      1  0.5656400000000  0.4687930000000  0.3942300000000 1.0
C      1  0.5536460000000  0.5583800000000  0.3973900000000 1.0
C      1  0.4581480000000  0.5696430000000  0.3999380000000 1.0
C      1  0.4264620000000  0.4833890000000  0.3983090000000 1.0
C      1  0.4875970000000  0.5806620000000  0.3982670000000 1.0
C      1  0.5656660000000  0.5294320000000  0.3920090000000 1.0
C      1  0.5555390000000  0.4389510000000  0.3967940000000 1.0
C      1  0.4635010000000  0.4316660000000  0.3988150000000 1.0
C      1  0.4248610000000  0.5141400000000  0.3956490000000 1.0
C      1  0.4131480000000  0.5642430000000  0.4855480000000 1.0
C      1  0.4398070000000  0.4189200000000  0.4772400000000 1.0
C      1  0.5270440000000  0.3957950000000  0.4811750000000 1.0
C      1  0.5951590000000  0.5140080000000  0.4634330000000 1.0
C      1  0.4963410000000  0.6049520000000  0.4753320000000 1.0
C      1  0.4157790000000  0.4388890000000  0.4850450000000 1.0
C      1  0.4378920000000  0.5837650000000  0.4777940000000 1.0
C      1  0.5265740000000  0.6029360000000  0.4808520000000 1.0
C      1  0.5983360000000  0.4827150000000  0.4638550000000 1.0
C      1  0.4969740000000  0.3951800000000  0.4758580000000 1.0
C      1  0.5735450000000  0.5194130000000  0.5119840000000 1.0
C      1  0.4993400000000  0.5739700000000  0.5157880000000 1.0
C      1  0.4369690000000  0.5316300000000  0.5156250000000 1.0
C      1  0.4535210000000  0.4422190000000  0.5140890000000 1.0
C      1  0.5319870000000  0.4342840000000  0.5155370000000 1.0
C      1  0.5761640000000  0.4775600000000  0.5120790000000 1.0
C      1  0.5001940000000  0.4260450000000  0.5164210000000 1.0
C      1  0.4406170000000  0.4720430000000  0.5170090000000 1.0
C      1  0.4522480000000  0.5606050000000  0.5168610000000 1.0
C      1  0.5307230000000  0.5641880000000  0.5151810000000 1.0
C      1  0.5825020000000  0.4382200000000  0.4451900000000 1.0
C      1  0.5890180000000  0.5298100000000  0.4382870000000 1.0
C      1  0.4820350000000  0.5981070000000  0.4490880000000 1.0
C      1  0.4027720000000  0.5156100000000  0.4454240000000 1.0
C      1  0.4549600000000  0.4152350000000  0.4497210000000 1.0
C      1  0.5802570000000  0.5584230000000  0.4450320000000 1.0
C      1  0.5933770000000  0.4664060000000  0.4384170000000 1.0
C      1  0.4835510000000  0.4025530000000  0.4496650000000 1.0
C      1  0.4045540000000  0.4841210000000  0.4470000000000 1.0
C      1  0.4527480000000  0.5868060000000  0.4501720000000 1.0
C      1  0.4719770000000  0.4577380000000  0.4930780000000 1.0
C      1  0.5322570000000  0.4585450000000  0.4955630000000 1.0
C      1  0.5446450000000  0.5141390000000  0.4989250000000 1.0
C      1  0.4977650000000  0.5506490000000  0.4933220000000 1.0
C      1  0.4519210000000  0.5167750000000  0.4939450000000 1.0
C      1  0.4701570000000  0.5447940000000  0.4936640000000 1.0
C      1  0.5306700000000  0.5413240000000  0.4946220000000 1.0
C      1  0.5500300000000  0.4823080000000  0.4962610000000 1.0
C      1  0.4990300000000  0.4492050000000  0.4945010000000 1.0
C      1  0.4578820000000  0.4881120000000  0.4964720000000 1.0
C      1  0.5014940000000  0.4502380000000  0.6029570000000 1.0
C      1  0.5479670000000  0.4853250000000  0.6036170000000 1.0
C      1  0.5222550000000  0.5353870000000  0.5934710000000 1.0
C      1  0.4670100000000  0.5415690000000  0.6025440000000 1.0
C      1  0.4537200000000  0.4813140000000  0.6029570000000 1.0
C      1  0.4978620000000  0.5509170000000  0.6021850000000 1.0
C      1  0.5474660000000  0.5151850000000  0.6015800000000 1.0
C      1  0.5273600000000  0.4619630000000  0.5934590000000 1.0
C      1  0.4706430000000  0.4574600000000  0.5958730000000 1.0
C      1  0.4546400000000  0.5155770000000  0.5938270000000 1.0
C      1  0.4703780000000  0.5401930000000  0.5607360000000 1.0
C      1  0.4608020000000  0.4885430000000  0.5623130000000 1.0
C      1  0.5008630000000  0.4561910000000  0.5614140000000 1.0
C      1  0.5443310000000  0.4867470000000  0.5600940000000 1.0
C      1  0.5196300000000  0.5312170000000  0.5485770000000 1.0
C      1  0.4748120000000  0.4658860000000  0.5525300000000 1.0
C      1  0.4590890000000  0.5163680000000  0.5520810000000 1.0
C      1  0.4987790000000  0.5463410000000  0.5604690000000 1.0
C      1  0.5433320000000  0.5148070000000  0.5562670000000 1.0
C      1  0.5257930000000  0.4646670000000  0.5515850000000 1.0
C      1  0.5434570000000  0.4403850000000  0.4718160000000 1.0
C      1  0.5519460000000  0.5188630000000  0.4662200000000 1.0
C      1  0.5090460000000  0.5656000000000  0.4682190000000 1.0
C      1  0.4370640000000  0.5256270000000  0.4685510000000 1.0
C      1  0.4607960000000  0.4534990000000  0.4659890000000 1.0
C      1  0.5421410000000  0.5591330000000  0.4706920000000 1.0
C      1  0.5570850000000  0.4895700000000  0.4672140000000 1.0
C      1  0.5104320000000  0.4343800000000  0.4692450000000 1.0
C      1  0.4423140000000  0.4773230000000  0.4707080000000 1.0
C      1  0.4575020000000  0.5483160000000  0.4668230000000 1.0
C      1  0.5817170000000  0.5693640000000  0.5143020000000 1.0
C      1  0.4395000000000  0.5987930000000  0.5297200000000 1.0
C      1  0.4025400000000  0.4859110000000  0.5015560000000 1.0
C      1  0.4939420000000  0.3803500000000  0.5229180000000 1.0
C      1  0.6029130000000  0.4412630000000  0.5332750000000 1.0
C      1  0.5827060000000  0.4280380000000  0.5133480000000 1.0
C      1  0.4401210000000  0.4019470000000  0.5288130000000 1.0
C      1  0.3991800000000  0.5165020000000  0.5010570000000 1.0
C      1  0.4939790000000  0.6196940000000  0.5226160000000 1.0
C      1  0.6019770000000  0.5567140000000  0.5340300000000 1.0
C      1  0.5759430000000  0.5602250000000  0.4799450000000 1.0
C      1  0.4538960000000  0.5904730000000  0.5033000000000 1.0
C      1  0.4129270000000  0.4712600000000  0.4754790000000 1.0
C      1  0.4844360000000  0.4013020000000  0.5022980000000 1.0
C      1  0.5883510000000  0.4650650000000  0.4869170000000 1.0
C      1  0.5767850000000  0.4372520000000  0.4793720000000 1.0
C      1  0.4551010000000  0.4109580000000  0.5033590000000 1.0
C      1  0.4076340000000  0.5318520000000  0.4739000000000 1.0
C      1  0.4837120000000  0.5992020000000  0.5018820000000 1.0
C      1  0.5861010000000  0.5315980000000  0.4870350000000 1.0
C      1  0.5754930000000  0.5868070000000  0.5683240000000 1.0
C      1  0.4557230000000  0.6095520000000  0.5521600000000 1.0
C      1  0.3868380000000  0.4852120000000  0.5666190000000 1.0
C      1  0.4845880000000  0.3861050000000  0.5512070000000 1.0
C      1  0.6018770000000  0.4235960000000  0.5574310000000 1.0
C      1  0.5775420000000  0.4099620000000  0.5670200000000 1.0
C      1  0.4557790000000  0.3910090000000  0.5517060000000 1.0
C      1  0.3862660000000  0.5142880000000  0.5664950000000 1.0
C      1  0.4844620000000  0.6142040000000  0.5509520000000 1.0
C      1  0.6002790000000  0.5738600000000  0.5585680000000 1.0
C      1  0.4050920000000  0.5632970000000  0.5163900000000 1.0
C      1  0.4070410000000  0.4387080000000  0.5155920000000 1.0
C      1  0.5379540000000  0.4029580000000  0.5097410000000 1.0
C      1  0.5376710000000  0.5957080000000  0.5099420000000 1.0
C      1  0.6000930000000  0.4994640000000  0.5189210000000 1.0
END
