TITL C-862134-6730-831 0.0862186224310934 125000 -76.7666634694838 0 0 15 (C2) n - 1
REM
REM in /home/nfs/bkarasulu/CARBON/AIRSS/Generating-Clusters/TERSOFF/Higher-Symm/FIRE-HFTN
REM
REM
REM
REM
REM
REM ./C.cell (b20cbc046b6831c77cfcea5457e17084)
REM AIRSS Version 0.9.1 bugfix July 2018 build 013d7b7c2542+ Fri, 06 Jul 2018 19:26:36 +0100
REM compiler GCC version 9.2.1 20190827 (Red Hat 9.2.1-1)
REM options -cpp -mtune=generic -march=x86-64 -g -O0 -fpre-include=/usr/include/finclude/math-vector-fortran.h
REM seed 517168662 -1519026888 -1705800135 -1961049071 -1648493107 -1063188000 -1070848483 235457064 -1063283199 -1535920446 -1045673861 107031527 1904621510 159467664 588882040 142860990 441478474 -2035766609 -1316355896 2057932802 -616696773 -1481695939 1634530420 2145483410 -612383898 -126615434 -1125761653 1157706203 1235296544 859577273 -1565799786 -131327553 1633023046
REM
CELL 1.54180   50.00000   50.00000   50.00000   90.00000   90.00000   90.00000
LATT -1
SFAC C  
C      1  0.5255850000000  0.5089560000000  0.5213590000000 1.0
C      1  0.5483790000000  0.4967400000000  0.5075580000000 1.0
C      1  0.5464470000000  0.4903810000000  0.4788770000000 1.0
C      1  0.5207880000000  0.4875030000000  0.4637050000000 1.0
C      1  0.5013720000000  0.5093510000000  0.4583400000000 1.0
C      1  0.4716290000000  0.5062000000000  0.4568390000000 1.0
C      1  0.4543550000000  0.4988160000000  0.4795070000000 1.0
C      1  0.4659790000000  0.4858530000000  0.5030880000000 1.0
C      1  0.4621240000000  0.4945430000000  0.5309870000000 1.0
C      1  0.4840390000000  0.4966200000000  0.5515260000000 1.0
C      1  0.5136040000000  0.4992080000000  0.5464620000000 1.0
C      1  0.4957220000000  0.5356530000000  0.4905930000000 1.0
C      1  0.4935650000000  0.4849640000000  0.4955870000000 1.0
C      1  0.5066230000000  0.5104220000000  0.4999970000000 1.0
C      1  0.5081130000000  0.4599770000000  0.4927850000000 1.0
END
