TITL C-862134-6730-539 -0.00918054134683563 125000 -273.491276476062 0 0 55 (C1) n - 1
REM
REM in /home/nfs/bkarasulu/CARBON/AIRSS/Generating-Clusters/TERSOFF/Higher-Symm/FIRE-HFTN
REM
REM
REM
REM
REM
REM ./C.cell (b20cbc046b6831c77cfcea5457e17084)
REM AIRSS Version 0.9.1 bugfix July 2018 build 013d7b7c2542+ Fri, 06 Jul 2018 19:26:36 +0100
REM compiler GCC version 9.2.1 20190827 (Red Hat 9.2.1-1)
REM options -cpp -mtune=generic -march=x86-64 -g -O0 -fpre-include=/usr/include/finclude/math-vector-fortran.h
REM seed -2020667393 1344423984 1468334820 -122035911 796455499 2029454723 -1399790665 1574215480 345240520 1552821280 1299226669 1395780368 347854652 1460250070 1859900086 2014298368 537500439 1132826928 -890219984 -844388528 524381007 136813552 111945068 -559955715 -90796194 -539050103 1805074303 -104129103 -1301965744 -123742641 213962541 -1335447193 255828510
REM
CELL 1.54180   50.00000   50.00000   50.00000   90.00000   90.00000   90.00000
LATT -1
SFAC C  
C      1  0.4660070000000  0.5368130000000  0.5446010000000 1.0
C      1  0.4642330000000  0.5554550000000  0.4784150000000 1.0
C      1  0.4635610000000  0.4970190000000  0.4400580000000 1.0
C      1  0.4644160000000  0.4434230000000  0.4843200000000 1.0
C      1  0.4647550000000  0.4684700000000  0.5482450000000 1.0
C      1  0.5359270000000  0.5362420000000  0.4554740000000 1.0
C      1  0.5361430000000  0.5543760000000  0.5213920000000 1.0
C      1  0.5380360000000  0.4968540000000  0.5598310000000 1.0
C      1  0.5374740000000  0.4426310000000  0.5157710000000 1.0
C      1  0.5374060000000  0.4679370000000  0.4514320000000 1.0
C      1  0.5233080000000  0.4478140000000  0.4335810000000 1.0
C      1  0.5221980000000  0.4202030000000  0.5293860000000 1.0
C      1  0.5228130000000  0.5033680000000  0.5851860000000 1.0
C      1  0.5210370000000  0.5802390000000  0.5243520000000 1.0
C      1  0.5213600000000  0.5476680000000  0.4317740000000 1.0
C      1  0.4786560000000  0.4486070000000  0.5663530000000 1.0
C      1  0.4789690000000  0.4204910000000  0.4707200000000 1.0
C      1  0.4790070000000  0.5035970000000  0.4148030000000 1.0
C      1  0.4792870000000  0.5815550000000  0.4764010000000 1.0
C      1  0.4808940000000  0.5480500000000  0.5682020000000 1.0
C      1  0.4506010000000  0.4770550000000  0.5080140000000 1.0
C      1  0.4501370000000  0.5014870000000  0.5240400000000 1.0
C      1  0.4494690000000  0.5244240000000  0.5057080000000 1.0
C      1  0.4491940000000  0.5141420000000  0.4780010000000 1.0
C      1  0.4501330000000  0.4846390000000  0.4796630000000 1.0
C      1  0.5513880000000  0.4764150000000  0.4919260000000 1.0
C      1  0.5513710000000  0.5008860000000  0.4758810000000 1.0
C      1  0.5520100000000  0.5237010000000  0.4942060000000 1.0
C      1  0.5525650000000  0.5134570000000  0.5218210000000 1.0
C      1  0.5522170000000  0.4839370000000  0.5204060000000 1.0
C      1  0.4687640000000  0.4537220000000  0.5169110000000 1.0
C      1  0.4681930000000  0.5025600000000  0.5490160000000 1.0
C      1  0.4670560000000  0.5486370000000  0.5126620000000 1.0
C      1  0.4658700000000  0.5289230000000  0.4563640000000 1.0
C      1  0.4675890000000  0.4689280000000  0.4596260000000 1.0
C      1  0.5334940000000  0.4529310000000  0.4831640000000 1.0
C      1  0.5330040000000  0.5020880000000  0.4510170000000 1.0
C      1  0.5340590000000  0.5476300000000  0.4873900000000 1.0
C      1  0.5353380000000  0.5278690000000  0.5430250000000 1.0
C      1  0.5351570000000  0.4681340000000  0.5408670000000 1.0
C      1  0.5053780000000  0.4799320000000  0.5137250000000 1.0
C      1  0.4947850000000  0.5067780000000  0.4772180000000 1.0
C      1  0.4983460000000  0.4798540000000  0.4860530000000 1.0
C      1  0.4982470000000  0.5234720000000  0.5001060000000 1.0
C      1  0.5050770000000  0.5072450000000  0.5224930000000 1.0
C      1  0.5017330000000  0.5281620000000  0.5834910000000 1.0
C      1  0.4999910000000  0.5283480000000  0.4166250000000 1.0
C      1  0.5007830000000  0.4288450000000  0.5525070000000 1.0
C      1  0.5009180000000  0.4284350000000  0.4477360000000 1.0
C      1  0.5002840000000  0.5881050000000  0.5004560000000 1.0
C      1  0.5015630000000  0.4566310000000  0.5321270000000 1.0
C      1  0.5007510000000  0.4562410000000  0.4679380000000 1.0
C      1  0.5005150000000  0.5535380000000  0.4993150000000 1.0
C      1  0.4997000000000  0.5161600000000  0.4490750000000 1.0
C      1  0.5017340000000  0.5158750000000  0.5511300000000 1.0
END
