TITL C-862506-1665-1405 4.57790878623329 125000 -911.451338977824 0 0 163 (C1) n - 1
REM
REM in /home/nfs/bkarasulu/CARBON/AIRSS/Generating-Clusters/TERSOFF/Higher-Symm/FIRE-HFTN
REM
REM
REM
REM
REM
REM ./C.cell (b20cbc046b6831c77cfcea5457e17084)
REM AIRSS Version 0.9.1 bugfix July 2018 build 013d7b7c2542+ Fri, 06 Jul 2018 19:26:36 +0100
REM compiler GCC version 9.2.1 20190827 (Red Hat 9.2.1-1)
REM options -cpp -mtune=generic -march=x86-64 -g -O0 -fpre-include=/usr/include/finclude/math-vector-fortran.h
REM seed 1774681860 -74721429 -508339063 1423641181 -12377583 1948438220 -1566640684 1847883425 1091269362 -1193504070 1862966010 1153345700 1759834434 -1636684358 -1616664736 1557212790 1168607478 689925398 -69225043 -337201497 -1750050088 -1837705385 -317273634 -1391410552 -81837225 -437933617 -1070293289 -1851327929 435827621 -2060092886 -2000701109 1887585482 -1349136047
REM
CELL 1.54180   50.00000   50.00000   50.00000   90.00000   90.00000   90.00000
LATT -1
SFAC C  
C      1  0.4973890000000  0.5965060000000  0.4692850000000 1.0
C      1  0.6022780000000  0.5429980000000  0.4703290000000 1.0
C      1  0.5600660000000  0.4287590000000  0.4759660000000 1.0
C      1  0.4385010000000  0.4177280000000  0.4720550000000 1.0
C      1  0.3985350000000  0.5268270000000  0.4729320000000 1.0
C      1  0.4511710000000  0.5949130000000  0.4841420000000 1.0
C      1  0.5784670000000  0.5856440000000  0.4810810000000 1.0
C      1  0.6054560000000  0.4532920000000  0.4827720000000 1.0
C      1  0.4810620000000  0.3931430000000  0.4840090000000 1.0
C      1  0.3806190000000  0.4767510000000  0.4800180000000 1.0
C      1  0.4508620000000  0.5022660000000  0.5913440000000 1.0
C      1  0.4869910000000  0.5464320000000  0.5924780000000 1.0
C      1  0.5441710000000  0.5299600000000  0.5950770000000 1.0
C      1  0.5418900000000  0.4685350000000  0.5959930000000 1.0
C      1  0.4839420000000  0.4520060000000  0.5922300000000 1.0
C      1  0.4680510000000  0.5279730000000  0.4756340000000 1.0
C      1  0.5353290000000  0.5163170000000  0.4660970000000 1.0
C      1  0.5450840000000  0.4903500000000  0.5069840000000 1.0
C      1  0.5007800000000  0.4572940000000  0.4740890000000 1.0
C      1  0.4586500000000  0.4827250000000  0.4720470000000 1.0
C      1  0.5206460000000  0.4633800000000  0.4264440000000 1.0
C      1  0.4678490000000  0.4680340000000  0.4207160000000 1.0
C      1  0.4583340000000  0.5190620000000  0.4186150000000 1.0
C      1  0.5044170000000  0.5461950000000  0.4191010000000 1.0
C      1  0.5425670000000  0.5110250000000  0.4220860000000 1.0
C      1  0.5329630000000  0.5194040000000  0.5446980000000 1.0
C      1  0.5335830000000  0.4774800000000  0.5452660000000 1.0
C      1  0.4918510000000  0.4731830000000  0.5444510000000 1.0
C      1  0.4342570000000  0.4995730000000  0.5408310000000 1.0
C      1  0.4911770000000  0.5231410000000  0.5462420000000 1.0
C      1  0.3979760000000  0.4502120000000  0.5198620000000 1.0
C      1  0.4403640000000  0.5758500000000  0.5272580000000 1.0
C      1  0.5492540000000  0.5880290000000  0.5226380000000 1.0
C      1  0.6089600000000  0.4750600000000  0.5275670000000 1.0
C      1  0.5032080000000  0.3994740000000  0.5287240000000 1.0
C      1  0.4635980000000  0.5890620000000  0.5111720000000 1.0
C      1  0.5763080000000  0.5765270000000  0.5098320000000 1.0
C      1  0.5986070000000  0.4507900000000  0.5112650000000 1.0
C      1  0.4762200000000  0.4035040000000  0.5120150000000 1.0
C      1  0.3778280000000  0.4723330000000  0.5105260000000 1.0
C      1  0.5360590000000  0.5709500000000  0.5419650000000 1.0
C      1  0.5872060000000  0.4839290000000  0.5467850000000 1.0
C      1  0.5099930000000  0.4245860000000  0.5439420000000 1.0
C      1  0.4099720000000  0.4556530000000  0.5464740000000 1.0
C      1  0.4493920000000  0.5547740000000  0.5448320000000 1.0
C      1  0.5789890000000  0.5546330000000  0.4160740000000 1.0
C      1  0.5742540000000  0.4488200000000  0.4214620000000 1.0
C      1  0.4653590000000  0.4117400000000  0.4169850000000 1.0
C      1  0.4023740000000  0.5053800000000  0.4161100000000 1.0
C      1  0.4715540000000  0.5919900000000  0.4160270000000 1.0
C      1  0.4934570000000  0.4464890000000  0.5331560000000 1.0
C      1  0.4092470000000  0.4858780000000  0.5465780000000 1.0
C      1  0.4753710000000  0.5450400000000  0.5343640000000 1.0
C      1  0.5437710000000  0.5440900000000  0.5335670000000 1.0
C      1  0.5617780000000  0.4689780000000  0.5390470000000 1.0
C      1  0.4574990000000  0.5718410000000  0.4354210000000 1.0
C      1  0.5570460000000  0.5619170000000  0.4367090000000 1.0
C      1  0.5755950000000  0.4715630000000  0.4426640000000 1.0
C      1  0.4871560000000  0.4186950000000  0.4378630000000 1.0
C      1  0.4156380000000  0.4851050000000  0.4351290000000 1.0
C      1  0.4944920000000  0.5257840000000  0.6156690000000 1.0
C      1  0.5235100000000  0.5146500000000  0.6149120000000 1.0
C      1  0.5214230000000  0.4837130000000  0.6137280000000 1.0
C      1  0.4919520000000  0.4757830000000  0.6119200000000 1.0
C      1  0.4756750000000  0.5012100000000  0.6106730000000 1.0
C      1  0.5280210000000  0.4412910000000  0.5098840000000 1.0
C      1  0.4470210000000  0.4660240000000  0.5126900000000 1.0
C      1  0.4374030000000  0.5290170000000  0.5043070000000 1.0
C      1  0.5172880000000  0.5568650000000  0.4917450000000 1.0
C      1  0.5873910000000  0.5124320000000  0.5052050000000 1.0
C      1  0.5837470000000  0.5652840000000  0.4609290000000 1.0
C      1  0.5833620000000  0.4470960000000  0.4649090000000 1.0
C      1  0.4646030000000  0.4023540000000  0.4612690000000 1.0
C      1  0.3926700000000  0.4978920000000  0.4603190000000 1.0
C      1  0.4680890000000  0.5951390000000  0.4608200000000 1.0
C      1  0.5162940000000  0.4080540000000  0.4532190000000 1.0
C      1  0.4124730000000  0.4553130000000  0.4487860000000 1.0
C      1  0.4280620000000  0.5655820000000  0.4533950000000 1.0
C      1  0.5429280000000  0.5898950000000  0.4466180000000 1.0
C      1  0.6016750000000  0.4921930000000  0.4530320000000 1.0
C      1  0.3849700000000  0.4931010000000  0.5306050000000 1.0
C      1  0.4838150000000  0.5656180000000  0.5151910000000 1.0
C      1  0.5673720000000  0.5478150000000  0.5156860000000 1.0
C      1  0.5694760000000  0.4519130000000  0.5169840000000 1.0
C      1  0.4736610000000  0.4337450000000  0.5158590000000 1.0
C      1  0.5035470000000  0.6080270000000  0.5028490000000 1.0
C      1  0.6143420000000  0.5445550000000  0.5043060000000 1.0
C      1  0.5621280000000  0.4125020000000  0.5046970000000 1.0
C      1  0.4272140000000  0.4107750000000  0.5042340000000 1.0
C      1  0.3940500000000  0.5369270000000  0.5073240000000 1.0
C      1  0.4821280000000  0.4748610000000  0.5710990000000 1.0
C      1  0.4547730000000  0.5046980000000  0.5599950000000 1.0
C      1  0.4903680000000  0.5219920000000  0.5740570000000 1.0
C      1  0.5315810000000  0.5139810000000  0.5730200000000 1.0
C      1  0.5240640000000  0.4726960000000  0.5715620000000 1.0
C      1  0.5103140000000  0.5779810000000  0.5526610000000 1.0
C      1  0.5859770000000  0.5120790000000  0.5560950000000 1.0
C      1  0.5365040000000  0.4280470000000  0.5547800000000 1.0
C      1  0.4338290000000  0.4399550000000  0.5537710000000 1.0
C      1  0.4295030000000  0.5380970000000  0.5568680000000 1.0
C      1  0.5028860000000  0.5254820000000  0.3962240000000 1.0
C      1  0.5250490000000  0.5052100000000  0.3984280000000 1.0
C      1  0.5125620000000  0.4781150000000  0.4004720000000 1.0
C      1  0.4827090000000  0.4811330000000  0.3976960000000 1.0
C      1  0.4766890000000  0.5104490000000  0.3959340000000 1.0
C      1  0.5820400000000  0.5252800000000  0.4810750000000 1.0
C      1  0.5424690000000  0.4531690000000  0.4722880000000 1.0
C      1  0.4553870000000  0.4409670000000  0.4787560000000 1.0
C      1  0.4218190000000  0.5136360000000  0.4861060000000 1.0
C      1  0.4965420000000  0.5678390000000  0.4752580000000 1.0
C      1  0.5353240000000  0.4347260000000  0.5854700000000 1.0
C      1  0.4497640000000  0.4496880000000  0.5809680000000 1.0
C      1  0.4366300000000  0.5318130000000  0.5864230000000 1.0
C      1  0.5084280000000  0.5673750000000  0.5826210000000 1.0
C      1  0.5717630000000  0.5124600000000  0.5851360000000 1.0
C      1  0.4574340000000  0.5521450000000  0.5950490000000 1.0
C      1  0.5359630000000  0.5589460000000  0.5924690000000 1.0
C      1  0.5683560000000  0.4833080000000  0.5949000000000 1.0
C      1  0.5050880000000  0.4301860000000  0.5920760000000 1.0
C      1  0.4371090000000  0.4751080000000  0.5920320000000 1.0
C      1  0.4294190000000  0.5761390000000  0.4803970000000 1.0
C      1  0.5515000000000  0.5945370000000  0.4739940000000 1.0
C      1  0.6148280000000  0.4810850000000  0.4779820000000 1.0
C      1  0.5094660000000  0.3989240000000  0.4799890000000 1.0
C      1  0.4037860000000  0.4588520000000  0.4757710000000 1.0
C      1  0.5360620000000  0.5823100000000  0.4962210000000 1.0
C      1  0.6106060000000  0.4946850000000  0.5050130000000 1.0
C      1  0.5202470000000  0.4112250000000  0.5054710000000 1.0
C      1  0.4210030000000  0.4520550000000  0.5001720000000 1.0
C      1  0.4296530000000  0.5589870000000  0.5049160000000 1.0
C      1  0.4679040000000  0.5179600000000  0.5032950000000 1.0
C      1  0.5215430000000  0.5255580000000  0.4899930000000 1.0
C      1  0.5640790000000  0.5061900000000  0.5197760000000 1.0
C      1  0.5119760000000  0.4662200000000  0.4980380000000 1.0
C      1  0.4713630000000  0.4767370000000  0.4968360000000 1.0
C      1  0.6051330000000  0.5218020000000  0.4461870000000 1.0
C      1  0.5447670000000  0.4176030000000  0.4500680000000 1.0
C      1  0.4263240000000  0.4292810000000  0.4456260000000 1.0
C      1  0.4078480000000  0.5442850000000  0.4489010000000 1.0
C      1  0.5143970000000  0.5982780000000  0.4441790000000 1.0
C      1  0.4317850000000  0.4900390000000  0.4734240000000 1.0
C      1  0.4724270000000  0.5544960000000  0.4704710000000 1.0
C      1  0.5631930000000  0.5148540000000  0.4628730000000 1.0
C      1  0.5492120000000  0.4794170000000  0.4805510000000 1.0
C      1  0.4828480000000  0.4375430000000  0.4750600000000 1.0
C      1  0.5602600000000  0.4169750000000  0.5382680000000 1.0
C      1  0.4402450000000  0.4161240000000  0.5340740000000 1.0
C      1  0.4045630000000  0.5292190000000  0.5390240000000 1.0
C      1  0.4961600000000  0.6004320000000  0.5351300000000 1.0
C      1  0.6014620000000  0.5360960000000  0.5369000000000 1.0
C      1  0.4376570000000  0.4202880000000  0.4201490000000 1.0
C      1  0.4022480000000  0.5337740000000  0.4221730000000 1.0
C      1  0.4998230000000  0.5995300000000  0.4187450000000 1.0
C      1  0.5978580000000  0.5325800000000  0.4198520000000 1.0
C      1  0.5562390000000  0.4258630000000  0.4243020000000 1.0
C      1  0.4733220000000  0.5450260000000  0.4295750000000 1.0
C      1  0.5345790000000  0.5399570000000  0.4314550000000 1.0
C      1  0.5460770000000  0.4838630000000  0.4381960000000 1.0
C      1  0.4908440000000  0.4503790000000  0.4339150000000 1.0
C      1  0.4474960000000  0.4910230000000  0.4316790000000 1.0
C      1  0.4990650000000  0.4997890000000  0.5019490000000 1.0
C      1  0.5094340000000  0.5001140000000  0.5308050000000 1.0
C      1  0.4972990000000  0.4987310000000  0.4686350000000 1.0
END
