TITL C-862501-1041-1421 0.0703737107824601 125000 -340.453459129649 0 0 62 (C1) n - 1
REM
REM in /home/nfs/bkarasulu/CARBON/AIRSS/Generating-Clusters/TERSOFF/Higher-Symm/FIRE-HFTN
REM
REM
REM
REM
REM
REM ./C.cell (b20cbc046b6831c77cfcea5457e17084)
REM AIRSS Version 0.9.1 bugfix July 2018 build 013d7b7c2542+ Fri, 06 Jul 2018 19:26:36 +0100
REM compiler GCC version 9.2.1 20190827 (Red Hat 9.2.1-1)
REM options -cpp -mtune=generic -march=x86-64 -g -O0 -fpre-include=/usr/include/finclude/math-vector-fortran.h
REM seed -1809871127 -1007601400 -870844425 667339620 -1006657803 -573870825 -1527117281 869786724 1575539990 41032190 728893413 424760555 1880689806 1993284193 2121352746 451686566 -1201901809 1290843300 783202906 -1219848925 -246970560 1072737277 1681998405 -63573393 -107293234 1140751041 1183673885 -256938005 -11571372 552716563 868543236 1146577697 -1658731035
REM
CELL 1.54180   50.00000   50.00000   50.00000   90.00000   90.00000   90.00000
LATT -1
SFAC C  
C      1  0.4769700000000  0.4865080000000  0.5274190000000 1.0
C      1  0.5027330000000  0.5144140000000  0.4956980000000 1.0
C      1  0.5226570000000  0.5393860000000  0.5347660000000 1.0
C      1  0.4378100000000  0.4898300000000  0.4850910000000 1.0
C      1  0.4350390000000  0.5186980000000  0.5294700000000 1.0
C      1  0.4861120000000  0.4605560000000  0.5591000000000 1.0
C      1  0.5226910000000  0.4208430000000  0.4787320000000 1.0
C      1  0.5507420000000  0.5477050000000  0.5356810000000 1.0
C      1  0.5206610000000  0.5292630000000  0.5638640000000 1.0
C      1  0.4697340000000  0.5208480000000  0.5707490000000 1.0
C      1  0.5072920000000  0.4831670000000  0.5656410000000 1.0
C      1  0.5046100000000  0.5204150000000  0.4348990000000 1.0
C      1  0.4812610000000  0.4277140000000  0.5154590000000 1.0
C      1  0.5213170000000  0.5638810000000  0.4852430000000 1.0
C      1  0.5687650000000  0.5329020000000  0.5196320000000 1.0
C      1  0.5501130000000  0.5531300000000  0.4764760000000 1.0
C      1  0.4744650000000  0.5210410000000  0.4456580000000 1.0
C      1  0.5658250000000  0.5032410000000  0.5231300000000 1.0
C      1  0.4304950000000  0.4847860000000  0.5261360000000 1.0
C      1  0.5672160000000  0.4954250000000  0.4721810000000 1.0
C      1  0.4560910000000  0.5129700000000  0.4241230000000 1.0
C      1  0.5453760000000  0.4402790000000  0.4782660000000 1.0
C      1  0.5378060000000  0.5012960000000  0.5677930000000 1.0
C      1  0.4750870000000  0.4942760000000  0.4662640000000 1.0
C      1  0.5475610000000  0.5388870000000  0.4509130000000 1.0
C      1  0.4744650000000  0.4339740000000  0.4817970000000 1.0
C      1  0.4573430000000  0.4512920000000  0.5158730000000 1.0
C      1  0.5201820000000  0.5007200000000  0.4509230000000 1.0
C      1  0.4562750000000  0.4857670000000  0.4141440000000 1.0
C      1  0.4990140000000  0.4404510000000  0.5421090000000 1.0
C      1  0.5025350000000  0.4684630000000  0.4306290000000 1.0
C      1  0.5610400000000  0.4935650000000  0.5508510000000 1.0
C      1  0.4494990000000  0.5030260000000  0.5586330000000 1.0
C      1  0.5610360000000  0.4853290000000  0.4992670000000 1.0
C      1  0.4744050000000  0.5575890000000  0.5093810000000 1.0
C      1  0.4767580000000  0.5139450000000  0.5286740000000 1.0
C      1  0.4560480000000  0.4704250000000  0.5445380000000 1.0
C      1  0.4359600000000  0.5414620000000  0.4829060000000 1.0
C      1  0.4593140000000  0.5591210000000  0.4808370000000 1.0
C      1  0.4429740000000  0.5160890000000  0.4976050000000 1.0
C      1  0.5221730000000  0.4813210000000  0.5343950000000 1.0
C      1  0.4771120000000  0.5508980000000  0.4590400000000 1.0
C      1  0.4962190000000  0.4233010000000  0.4649560000000 1.0
C      1  0.5148960000000  0.4234240000000  0.5073210000000 1.0
C      1  0.4650470000000  0.5478320000000  0.5606530000000 1.0
C      1  0.4749070000000  0.5271060000000  0.5030460000000 1.0
C      1  0.5494800000000  0.4575420000000  0.5019990000000 1.0
C      1  0.5066530000000  0.4669530000000  0.4848640000000 1.0
C      1  0.4741350000000  0.4646750000000  0.4240670000000 1.0
C      1  0.4999030000000  0.4725900000000  0.5151460000000 1.0
C      1  0.5034210000000  0.4944940000000  0.4744970000000 1.0
C      1  0.5314140000000  0.4480000000000  0.5278080000000 1.0
C      1  0.4970420000000  0.5121080000000  0.5729080000000 1.0
C      1  0.5157110000000  0.4591950000000  0.4553440000000 1.0
C      1  0.5481620000000  0.5092310000000  0.4546670000000 1.0
C      1  0.5049870000000  0.5616280000000  0.4587420000000 1.0
C      1  0.4590110000000  0.4666110000000  0.4830730000000 1.0
C      1  0.5068680000000  0.5583620000000  0.5121050000000 1.0
C      1  0.5721530000000  0.5451840000000  0.4939180000000 1.0
C      1  0.5206980000000  0.5461770000000  0.4383320000000 1.0
C      1  0.5206020000000  0.5117090000000  0.5191700000000 1.0
C      1  0.4541290000000  0.5489830000000  0.5333970000000 1.0
END
