TITL C-862505-1648-635 0.000782163054696262 125000 -1086.07407699672 0 0 184 (S8) n - 1
REM
REM in /home/nfs/bkarasulu/CARBON/AIRSS/Generating-Clusters/TERSOFF/Higher-Symm/FIRE-HFTN
REM
REM
REM
REM
REM
REM ./C.cell (b20cbc046b6831c77cfcea5457e17084)
REM AIRSS Version 0.9.1 bugfix July 2018 build 013d7b7c2542+ Fri, 06 Jul 2018 19:26:36 +0100
REM compiler GCC version 9.2.1 20190827 (Red Hat 9.2.1-1)
REM options -cpp -mtune=generic -march=x86-64 -g -O0 -fpre-include=/usr/include/finclude/math-vector-fortran.h
REM seed 628968843 175680753 1380218891 -32690924 -631900710 -589608404 1053239648 308426571 -1150835438 -116482301 -1848579595 1701280412 -126541545 28951089 -1491577021 1377119931 1317151188 182587379 1966988460 -1206931335 1002726872 179522883 -741275589 389418431 1212523202 1686905415 922263462 -581647891 2000324887 922426561 -224769593 1437205386 -1503522475
REM
CELL 1.54180   50.00000   50.00000   50.00000   90.00000   90.00000   90.00000
LATT -1
SFAC C  
C      1  0.5220280000000  0.4228940000000  0.4914100000000 1.0
C      1  0.5216500000000  0.5771060000000  0.5095020000000 1.0
C      1  0.5085900000000  0.4228940000000  0.5220280000000 1.0
C      1  0.4904980000000  0.5771060000000  0.5216500000000 1.0
C      1  0.4779720000000  0.4228940000000  0.5085900000000 1.0
C      1  0.4783500000000  0.5771060000000  0.4904980000000 1.0
C      1  0.4914100000000  0.4228940000000  0.4779720000000 1.0
C      1  0.5095020000000  0.5771060000000  0.4783500000000 1.0
C      1  0.4480600000000  0.5442180000000  0.5424780000000 1.0
C      1  0.4332360000000  0.4557820000000  0.4933090000000 1.0
C      1  0.4575220000000  0.5442180000000  0.4480600000000 1.0
C      1  0.5066910000000  0.4557820000000  0.4332360000000 1.0
C      1  0.5519400000000  0.5442180000000  0.4575220000000 1.0
C      1  0.5667640000000  0.4557820000000  0.5066910000000 1.0
C      1  0.5424780000000  0.5442180000000  0.5519400000000 1.0
C      1  0.4933090000000  0.4557820000000  0.5667640000000 1.0
C      1  0.5254370000000  0.5070340000000  0.4774220000000 1.0
C      1  0.5339520000000  0.4929660000000  0.5020220000000 1.0
C      1  0.5225780000000  0.5070340000000  0.5254370000000 1.0
C      1  0.4979780000000  0.4929660000000  0.5339520000000 1.0
C      1  0.4745630000000  0.5070340000000  0.5225780000000 1.0
C      1  0.4660480000000  0.4929660000000  0.4979780000000 1.0
C      1  0.4774220000000  0.5070340000000  0.4745630000000 1.0
C      1  0.5020220000000  0.4929660000000  0.4660480000000 1.0
C      1  0.3878360000000  0.5556660000000  0.5012590000000 1.0
C      1  0.4197980000000  0.4443340000000  0.4215790000000 1.0
C      1  0.4987410000000  0.5556660000000  0.3878360000000 1.0
C      1  0.5784220000000  0.4443340000000  0.4197970000000 1.0
C      1  0.6121640000000  0.5556660000000  0.4987410000000 1.0
C      1  0.5802030000000  0.4443340000000  0.5784210000000 1.0
C      1  0.5012590000000  0.5556660000000  0.6121640000000 1.0
C      1  0.4215790000000  0.4443340000000  0.5802030000000 1.0
C      1  0.5231520000000  0.5612210000000  0.5665300000000 1.0
C      1  0.4693270000000  0.4387790000000  0.5634150000000 1.0
C      1  0.4334700000000  0.5612210000000  0.5231520000000 1.0
C      1  0.4365850000000  0.4387790000000  0.4693270000000 1.0
C      1  0.4768480000000  0.5612210000000  0.4334700000000 1.0
C      1  0.5306730000000  0.4387790000000  0.4365850000000 1.0
C      1  0.5665300000000  0.5612210000000  0.4768480000000 1.0
C      1  0.5634150000000  0.4387790000000  0.5306730000000 1.0
C      1  0.5199330000000  0.5882640000000  0.4522370000000 1.0
C      1  0.5478680000000  0.4117360000000  0.4803210000000 1.0
C      1  0.5477630000000  0.5882640000000  0.5199330000000 1.0
C      1  0.5196790000000  0.4117360000000  0.5478680000000 1.0
C      1  0.4800670000000  0.5882640000000  0.5477630000000 1.0
C      1  0.4521320000000  0.4117360000000  0.5196790000000 1.0
C      1  0.4522370000000  0.5882640000000  0.4800670000000 1.0
C      1  0.4803210000000  0.4117360000000  0.4521320000000 1.0
C      1  0.4243980000000  0.4184450000000  0.5103700000000 1.0
C      1  0.4392080000000  0.5815550000000  0.4538740000000 1.0
C      1  0.4896300000000  0.4184450000000  0.4243980000000 1.0
C      1  0.5461260000000  0.5815550000000  0.4392080000000 1.0
C      1  0.5756020000000  0.4184450000000  0.4896300000000 1.0
C      1  0.5607920000000  0.5815550000000  0.5461260000000 1.0
C      1  0.5103700000000  0.4184450000000  0.5756020000000 1.0
C      1  0.4538740000000  0.5815550000000  0.5607920000000 1.0
C      1  0.3926520000000  0.4768870000000  0.5538160000000 1.0
C      1  0.3860400000000  0.5231130000000  0.4621470000000 1.0
C      1  0.4461840000000  0.4768870000000  0.3926520000000 1.0
C      1  0.5378530000000  0.5231130000000  0.3860400000000 1.0
C      1  0.6073480000000  0.4768870000000  0.4461840000000 1.0
C      1  0.6139600000000  0.5231130000000  0.5378530000000 1.0
C      1  0.5538160000000  0.4768870000000  0.6073480000000 1.0
C      1  0.4621470000000  0.5231130000000  0.6139600000000 1.0
C      1  0.4379630000000  0.4650140000000  0.5433280000000 1.0
C      1  0.4254960000000  0.5349860000000  0.4867710000000 1.0
C      1  0.4566720000000  0.4650140000000  0.4379630000000 1.0
C      1  0.5132290000000  0.5349860000000  0.4254960000000 1.0
C      1  0.5620370000000  0.4650140000000  0.4566720000000 1.0
C      1  0.5745040000000  0.5349860000000  0.5132290000000 1.0
C      1  0.5433280000000  0.4650140000000  0.5620370000000 1.0
C      1  0.4867710000000  0.5349860000000  0.5745040000000 1.0
C      1  0.4781370000000  0.4648200000000  0.5066960000000 1.0
C      1  0.4798060000000  0.5351800000000  0.4892750000000 1.0
C      1  0.4933040000000  0.4648200000000  0.4781370000000 1.0
C      1  0.5107250000000  0.5351800000000  0.4798060000000 1.0
C      1  0.5218630000000  0.4648200000000  0.4933040000000 1.0
C      1  0.5201940000000  0.5351800000000  0.5107250000000 1.0
C      1  0.5066960000000  0.4648200000000  0.5218630000000 1.0
C      1  0.4892750000000  0.5351800000000  0.5201940000000 1.0
C      1  0.4498620000000  0.5073310000000  0.4080920000000 1.0
C      1  0.5295360000000  0.4926690000000  0.3995590000000 1.0
C      1  0.5919080000000  0.5073320000000  0.4498620000000 1.0
C      1  0.6004410000000  0.4926690000000  0.5295360000000 1.0
C      1  0.5501380000000  0.5073320000000  0.5919080000000 1.0
C      1  0.4704640000000  0.4926680000000  0.6004410000000 1.0
C      1  0.4080920000000  0.5073310000000  0.5501380000000 1.0
C      1  0.3995590000000  0.4926680000000  0.4704640000000 1.0
C      1  0.6113600000000  0.4643660000000  0.5207610000000 1.0
C      1  0.5640630000000  0.5356340000000  0.5934240000000 1.0
C      1  0.4792390000000  0.4643660000000  0.6113600000000 1.0
C      1  0.4065760000000  0.5356340000000  0.5640630000000 1.0
C      1  0.3886400000000  0.4643660000000  0.4792390000000 1.0
C      1  0.4359370000000  0.5356340000000  0.4065760000000 1.0
C      1  0.5207610000000  0.4643660000000  0.3886400000000 1.0
C      1  0.5934240000000  0.5356340000000  0.4359370000000 1.0
C      1  0.3944690000000  0.5577430000000  0.5497970000000 1.0
C      1  0.3901660000000  0.4422570000000  0.4605900000000 1.0
C      1  0.4502030000000  0.5577430000000  0.3944690000000 1.0
C      1  0.5394100000000  0.4422570000000  0.3901660000000 1.0
C      1  0.6055310000000  0.5577430000000  0.4502030000000 1.0
C      1  0.6098340000000  0.4422570000000  0.5394100000000 1.0
C      1  0.5497970000000  0.5577430000000  0.6055310000000 1.0
C      1  0.4605900000000  0.4422570000000  0.6098340000000 1.0
C      1  0.4368480000000  0.4943520000000  0.5544790000000 1.0
C      1  0.4168220000000  0.5056480000000  0.4938670000000 1.0
C      1  0.4455210000000  0.4943520000000  0.4368480000000 1.0
C      1  0.5061330000000  0.5056480000000  0.4168220000000 1.0
C      1  0.5631520000000  0.4943520000000  0.4455210000000 1.0
C      1  0.5831780000000  0.5056480000000  0.5061330000000 1.0
C      1  0.5544790000000  0.4943520000000  0.5631520000000 1.0
C      1  0.4938670000000  0.5056480000000  0.5831780000000 1.0
C      1  0.4481760000000  0.4514900000000  0.4122140000000 1.0
C      1  0.5254290000000  0.5485100000000  0.4012810000000 1.0
C      1  0.5877860000000  0.4514900000000  0.4481760000000 1.0
C      1  0.5987190000000  0.5485100000000  0.5254290000000 1.0
C      1  0.5518240000000  0.4514900000000  0.5877860000000 1.0
C      1  0.4745710000000  0.5485100000000  0.5987190000000 1.0
C      1  0.4122140000000  0.4514900000000  0.5518240000000 1.0
C      1  0.4012810000000  0.5485100000000  0.4745710000000 1.0
C      1  0.3956210000000  0.5077340000000  0.5179260000000 1.0
C      1  0.4135170000000  0.4922660000000  0.4388690000000 1.0
C      1  0.4820740000000  0.5077340000000  0.3956210000000 1.0
C      1  0.5611310000000  0.4922660000000  0.4135170000000 1.0
C      1  0.6043790000000  0.5077340000000  0.4820740000000 1.0
C      1  0.5864830000000  0.4922660000000  0.5611310000000 1.0
C      1  0.5179260000000  0.5077340000000  0.6043790000000 1.0
C      1  0.4388690000000  0.4922660000000  0.5864830000000 1.0
C      1  0.6181220000000  0.4809770000000  0.4745100000000 1.0
C      1  0.6015490000000  0.5190230000000  0.5655010000000 1.0
C      1  0.5254900000000  0.4809770000000  0.6181220000000 1.0
C      1  0.4344990000000  0.5190230000000  0.6015490000000 1.0
C      1  0.3818780000000  0.4809770000000  0.5254900000000 1.0
C      1  0.3984510000000  0.5190230000000  0.4344990000000 1.0
C      1  0.4745100000000  0.4809770000000  0.3818780000000 1.0
C      1  0.5655010000000  0.5190230000000  0.3984510000000 1.0
C      1  0.5471920000000  0.5460520000000  0.5216280000000 1.0
C      1  0.5180770000000  0.4539480000000  0.5486630000000 1.0
C      1  0.4783720000000  0.5460520000000  0.5471920000000 1.0
C      1  0.4513370000000  0.4539480000000  0.5180770000000 1.0
C      1  0.4528080000000  0.5460520000000  0.4783720000000 1.0
C      1  0.4819230000000  0.4539480000000  0.4513370000000 1.0
C      1  0.5216280000000  0.5460520000000  0.4528080000000 1.0
C      1  0.5486630000000  0.4539480000000  0.4819230000000 1.0
C      1  0.4218190000000  0.4696470000000  0.5955720000000 1.0
C      1  0.3771380000000  0.5303530000000  0.5122980000000 1.0
C      1  0.4044280000000  0.4696470000000  0.4218190000000 1.0
C      1  0.4877020000000  0.5303530000000  0.3771380000000 1.0
C      1  0.5781810000000  0.4696470000000  0.4044280000000 1.0
C      1  0.6228620000000  0.5303530000000  0.4877020000000 1.0
C      1  0.5955720000000  0.4696470000000  0.5781810000000 1.0
C      1  0.5122980000000  0.5303530000000  0.6228620000000 1.0
C      1  0.4492700000000  0.4341840000000  0.5843740000000 1.0
C      1  0.4044670000000  0.5658160000000  0.5237900000000 1.0
C      1  0.4156260000000  0.4341840000000  0.4492700000000 1.0
C      1  0.4762100000000  0.5658160000000  0.4044670000000 1.0
C      1  0.5507300000000  0.4341840000000  0.4156260000000 1.0
C      1  0.5955330000000  0.5658160000000  0.4762100000000 1.0
C      1  0.5843740000000  0.4341840000000  0.5507300000000 1.0
C      1  0.5237890000000  0.5658160000000  0.5955330000000 1.0
C      1  0.5081520000000  0.4582830000000  0.6126080000000 1.0
C      1  0.4261380000000  0.5417170000000  0.5853900000000 1.0
C      1  0.3873920000000  0.4582830000000  0.5081520000000 1.0
C      1  0.4146100000000  0.5417170000000  0.4261380000000 1.0
C      1  0.4918480000000  0.4582830000000  0.3873920000000 1.0
C      1  0.5738620000000  0.5417170000000  0.4146100000000 1.0
C      1  0.6126080000000  0.4582830000000  0.4918480000000 1.0
C      1  0.5853900000000  0.5417170000000  0.5738620000000 1.0
C      1  0.4604330000000  0.5141650000000  0.4521490000000 1.0
C      1  0.5058580000000  0.4858350000000  0.4381860000000 1.0
C      1  0.5478510000000  0.5141650000000  0.4604330000000 1.0
C      1  0.5618140000000  0.4858350000000  0.5058580000000 1.0
C      1  0.5395670000000  0.5141650000000  0.5478510000000 1.0
C      1  0.4941420000000  0.4858350000000  0.5618140000000 1.0
C      1  0.4521490000000  0.5141650000000  0.5395670000000 1.0
C      1  0.4381860000000  0.4858350000000  0.4941420000000 1.0
C      1  0.5832360000000  0.5619280000000  0.5498620000000 1.0
C      1  0.5235990000000  0.4380720000000  0.5941140000000 1.0
C      1  0.4501380000000  0.5619280000000  0.5832360000000 1.0
C      1  0.4058860000000  0.4380720000000  0.5235990000000 1.0
C      1  0.4167640000000  0.5619280000000  0.4501380000000 1.0
C      1  0.4764010000000  0.4380720000000  0.4058860000000 1.0
C      1  0.5498620000000  0.5619280000000  0.4167640000000 1.0
C      1  0.5941140000000  0.4380720000000  0.4764010000000 1.0
END
