TITL C-862134-6730-797 -0.00509357666357725 125000 -931.206810880305 0 0 161 (C5) n - 1
REM
REM in /home/nfs/bkarasulu/CARBON/AIRSS/Generating-Clusters/TERSOFF/Higher-Symm/FIRE-HFTN
REM
REM
REM
REM
REM
REM ./C.cell (b20cbc046b6831c77cfcea5457e17084)
REM AIRSS Version 0.9.1 bugfix July 2018 build 013d7b7c2542+ Fri, 06 Jul 2018 19:26:36 +0100
REM compiler GCC version 9.2.1 20190827 (Red Hat 9.2.1-1)
REM options -cpp -mtune=generic -march=x86-64 -g -O0 -fpre-include=/usr/include/finclude/math-vector-fortran.h
REM seed 2010456522 240926780 532771430 -1505509221 -287573045 592753487 -954400171 850640565 -126788711 1483342172 -675381042 -1878150590 1243079140 -1786483555 -868066060 161506146 816162982 1570803580 1151236771 -409352010 302640954 716524119 -1151965311 645560596 -2086359344 -1671921189 -348203302 -616380300 457662707 1598929888 730535497 -96787547 709847583
REM
CELL 1.54180   50.00000   50.00000   50.00000   90.00000   90.00000   90.00000
LATT -1
SFAC C  
C      1  0.4605370000000  0.5536200000000  0.4525060000000 1.0
C      1  0.4365280000000  0.4789720000000  0.4525060000000 1.0
C      1  0.5001040000000  0.4330700000000  0.4525060000000 1.0
C      1  0.5634040000000  0.4793500000000  0.4525060000000 1.0
C      1  0.5389510000000  0.5538540000000  0.4525060000000 1.0
C      1  0.4775440000000  0.5472680000000  0.6022820000000 1.0
C      1  0.4478250000000  0.4931830000000  0.6022820000000 1.0
C      1  0.4900790000000  0.4482050000000  0.6022820000000 1.0
C      1  0.5459130000000  0.4744930000000  0.6022820000000 1.0
C      1  0.5381650000000  0.5357170000000  0.6022820000000 1.0
C      1  0.5248050000000  0.5760680000000  0.4382440000000 1.0
C      1  0.4350390000000  0.5470320000000  0.4382440000000 1.0
C      1  0.4349150000000  0.4526860000000  0.4382440000000 1.0
C      1  0.5246050000000  0.4234130000000  0.4382440000000 1.0
C      1  0.5801600000000  0.4996680000000  0.4382440000000 1.0
C      1  0.4297130000000  0.5401530000000  0.5421540000000 1.0
C      1  0.4398110000000  0.4454950000000  0.5421540000000 1.0
C      1  0.5329570000000  0.4258470000000  0.5421530000000 1.0
C      1  0.5804260000000  0.5083630000000  0.5421530000000 1.0
C      1  0.5166180000000  0.5790080000000  0.5421540000000 1.0
C      1  0.4364760000000  0.5171920000000  0.5888060000000 1.0
C      1  0.4637380000000  0.4448310000000  0.5888060000000 1.0
C      1  0.5409820000000  0.4483980000000  0.5888060000000 1.0
C      1  0.5614590000000  0.5229630000000  0.5888060000000 1.0
C      1  0.4968710000000  0.5654810000000  0.5888060000000 1.0
C      1  0.5572720000000  0.4923780000000  0.4796090000000 1.0
C      1  0.5246660000000  0.5520470000000  0.4796090000000 1.0
C      1  0.4578410000000  0.5394760000000  0.4796090000000 1.0
C      1  0.4491470000000  0.4720370000000  0.4796090000000 1.0
C      1  0.5105990000000  0.4429290000000  0.4796090000000 1.0
C      1  0.5641560000000  0.5618920000000  0.4693720000000 1.0
C      1  0.4606810000000  0.5800750000000  0.4693720000000 1.0
C      1  0.4114120000000  0.4872840000000  0.4693720000000 1.0
C      1  0.4844370000000  0.4117520000000  0.4693720000000 1.0
C      1  0.5788380000000  0.4578630000000  0.4693720000000 1.0
C      1  0.4212860000000  0.4919720000000  0.4066350000000 1.0
C      1  0.4830300000000  0.4225910000000  0.4066350000000 1.0
C      1  0.5680940000000  0.4598740000000  0.4066340000000 1.0
C      1  0.5589230000000  0.5522960000000  0.4066340000000 1.0
C      1  0.4681900000000  0.5721330000000  0.4066350000000 1.0
C      1  0.4492940000000  0.5014800000000  0.4364410000000 1.0
C      1  0.4826420000000  0.4521670000000  0.4364410000000 1.0
C      1  0.5398470000000  0.4686440000000  0.4364400000000 1.0
C      1  0.5418530000000  0.5281410000000  0.4364400000000 1.0
C      1  0.4858880000000  0.5484350000000  0.4364410000000 1.0
C      1  0.4554230000000  0.4185200000000  0.4716490000000 1.0
C      1  0.5634360000000  0.4323600000000  0.4716490000000 1.0
C      1  0.5836510000000  0.5393630000000  0.4716490000000 1.0
C      1  0.4881320000000  0.5916550000000  0.4716490000000 1.0
C      1  0.4088830000000  0.5169700000000  0.4716490000000 1.0
C      1  0.4998060000000  0.3999370000000  0.4956150000000 1.0
C      1  0.5948240000000  0.4688280000000  0.4956140000000 1.0
C      1  0.5586670000000  0.5804840000000  0.4956140000000 1.0
C      1  0.4413030000000  0.5806000000000  0.4956150000000 1.0
C      1  0.4049250000000  0.4690160000000  0.4956150000000 1.0
C      1  0.4934550000000  0.4748750000000  0.4197750000000 1.0
C      1  0.5215920000000  0.4859450000000  0.4197750000000 1.0
C      1  0.5197580000000  0.5161260000000  0.4197750000000 1.0
C      1  0.4904880000000  0.5237080000000  0.4197750000000 1.0
C      1  0.4742320000000  0.4982130000000  0.4197760000000 1.0
C      1  0.4818200000000  0.5524450000000  0.5040860000000 1.0
C      1  0.4442230000000  0.4988500000000  0.5040860000000 1.0
C      1  0.4835760000000  0.4465310000000  0.5040860000000 1.0
C      1  0.5454960000000  0.4677910000000  0.5040850000000 1.0
C      1  0.5444100000000  0.5332490000000  0.5040850000000 1.0
C      1  0.5788240000000  0.5130920000000  0.4859040000000 1.0
C      1  0.5116250000000  0.5789460000000  0.4859040000000 1.0
C      1  0.4282290000000  0.5353860000000  0.4859050000000 1.0
C      1  0.4438870000000  0.4426100000000  0.4859050000000 1.0
C      1  0.5369590000000  0.4288320000000  0.4859040000000 1.0
C      1  0.4906580000000  0.4021680000000  0.5601430000000 1.0
C      1  0.5898760000000  0.4608170000000  0.5601430000000 1.0
C      1  0.5647570000000  0.5733030000000  0.5601430000000 1.0
C      1  0.4500150000000  0.5841730000000  0.5601440000000 1.0
C      1  0.4042190000000  0.4784060000000  0.5601440000000 1.0
C      1  0.5122310000000  0.4209280000000  0.5634710000000 1.0
C      1  0.5787000000000  0.4871310000000  0.5634700000000 1.0
C      1  0.5362780000000  0.5708050000000  0.5634710000000 1.0
C      1  0.4435900000000  0.5563160000000  0.5634710000000 1.0
C      1  0.4287280000000  0.4636870000000  0.5634710000000 1.0
C      1  0.4412420000000  0.4682360000000  0.3980630000000 1.0
C      1  0.5117710000000  0.4342360000000  0.3980630000000 1.0
C      1  0.5659010000000  0.4908060000000  0.3980630000000 1.0
C      1  0.5288270000000  0.5597690000000  0.3980630000000 1.0
C      1  0.4517830000000  0.5458190000000  0.3980630000000 1.0
C      1  0.5013790000000  0.5715160000000  0.4181210000000 1.0
C      1  0.4321290000000  0.5233450000000  0.4181210000000 1.0
C      1  0.4565430000000  0.4425990000000  0.4181210000000 1.0
C      1  0.5408810000000  0.4408660000000  0.4181210000000 1.0
C      1  0.5685920000000  0.5205410000000  0.4181210000000 1.0
C      1  0.4673970000000  0.4852270000000  0.5363370000000 1.0
C      1  0.5036930000000  0.4643620000000  0.5363370000000 1.0
C      1  0.5347540000000  0.4924330000000  0.5363370000000 1.0
C      1  0.5176550000000  0.5306490000000  0.5363370000000 1.0
C      1  0.4760260000000  0.5261950000000  0.5363370000000 1.0
C      1  0.4848930000000  0.4173500000000  0.5146650000000 1.0
C      1  0.5736550000000  0.4600260000000  0.5146650000000 1.0
C      1  0.5604970000000  0.5576310000000  0.5146650000000 1.0
C      1  0.4636030000000  0.5752790000000  0.5146650000000 1.0
C      1  0.4168770000000  0.4885810000000  0.5146650000000 1.0
C      1  0.4699070000000  0.5924390000000  0.5391490000000 1.0
C      1  0.4025050000000  0.4998790000000  0.5391500000000 1.0
C      1  0.4697060000000  0.4071730000000  0.5391490000000 1.0
C      1  0.5786410000000  0.4424370000000  0.5391490000000 1.0
C      1  0.5787660000000  0.5569380000000  0.5391490000000 1.0
C      1  0.4599310000000  0.4605740000000  0.5242100000000 1.0
C      1  0.5248340000000  0.4496430000000  0.5242090000000 1.0
C      1  0.5552850000000  0.5079910000000  0.5242090000000 1.0
C      1  0.5092030000000  0.5549820000000  0.5242090000000 1.0
C      1  0.4502710000000  0.5256770000000  0.5242100000000 1.0
C      1  0.6057690000000  0.5424330000000  0.5300230000000 1.0
C      1  0.4920470000000  0.6136380000000  0.5300230000000 1.0
C      1  0.3891850000000  0.5274860000000  0.5300230000000 1.0
C      1  0.4393340000000  0.4030360000000  0.5300230000000 1.0
C      1  0.5731910000000  0.4122730000000  0.5300230000000 1.0
C      1  0.4986080000000  0.4603370000000  0.3933460000000 1.0
C      1  0.5370110000000  0.4863540000000  0.3933460000000 1.0
C      1  0.5241340000000  0.5309160000000  0.3933460000000 1.0
C      1  0.4777730000000  0.5324400000000  0.3933460000000 1.0
C      1  0.4619980000000  0.4888200000000  0.3933460000000 1.0
C      1  0.5316290000000  0.5958140000000  0.4991740000000 1.0
C      1  0.4183680000000  0.5596230000000  0.4991740000000 1.0
C      1  0.4177890000000  0.4407220000000  0.4991740000000 1.0
C      1  0.5306910000000  0.4034280000000  0.4991740000000 1.0
C      1  0.6010480000000  0.4992800000000  0.4991730000000 1.0
C      1  0.5281940000000  0.4958130000000  0.5669360000000 1.0
C      1  0.5124140000000  0.5254540000000  0.5669360000000 1.0
C      1  0.4793470000000  0.5196050000000  0.5669360000000 1.0
C      1  0.4746910000000  0.4863500000000  0.5669360000000 1.0
C      1  0.5048800000000  0.4716450000000  0.5669360000000 1.0
C      1  0.4947000000000  0.4738180000000  0.6182500000000 1.0
C      1  0.5229810000000  0.4868020000000  0.6182500000000 1.0
C      1  0.5193720000000  0.5177120000000  0.6182500000000 1.0
C      1  0.4888610000000  0.5238310000000  0.6182500000000 1.0
C      1  0.4736120000000  0.4967030000000  0.6182500000000 1.0
C      1  0.4921480000000  0.5234530000000  0.4976540000000 1.0
C      1  0.4749870000000  0.4997130000000  0.4976540000000 1.0
C      1  0.4922620000000  0.4760570000000  0.4976540000000 1.0
C      1  0.5200990000000  0.4851750000000  0.4976540000000 1.0
C      1  0.5200290000000  0.5144680000000  0.4976540000000 1.0
C      1  0.4580930000000  0.5375840000000  0.5823330000000 1.0
C      1  0.4510240000000  0.4716920000000  0.5823330000000 1.0
C      1  0.5115070000000  0.4446070000000  0.5823330000000 1.0
C      1  0.5559560000000  0.4937600000000  0.5823330000000 1.0
C      1  0.5229450000000  0.5512230000000  0.5823330000000 1.0
C      1  0.5754270000000  0.5322720000000  0.5603280000000 1.0
C      1  0.4923350000000  0.5816410000000  0.5603280000000 1.0
C      1  0.4197050000000  0.5178720000000  0.5603280000000 1.0
C      1  0.4579090000000  0.4290910000000  0.5603280000000 1.0
C      1  0.5541500000000  0.4379900000000  0.5603280000000 1.0
C      1  0.5440430000000  0.4030890000000  0.5260450000000 1.0
C      1  0.6054960000000  0.5118740000000  0.5260450000000 1.0
C      1  0.5210260000000  0.6039360000000  0.5260450000000 1.0
C      1  0.4073670000000  0.5520480000000  0.5260450000000 1.0
C      1  0.4215930000000  0.4279190000000  0.5260450000000 1.0
C      1  0.4756260000000  0.4927290000000  0.3676240000000 1.0
C      1  0.4991010000000  0.4745060000000  0.3676240000000 1.0
C      1  0.5236870000000  0.4912020000000  0.3676240000000 1.0
C      1  0.5154060000000  0.5197430000000  0.3676240000000 1.0
C      1  0.4857030000000  0.5206870000000  0.3676240000000 1.0
C      1  0.4999050000000  0.4997730000000  0.5313710000000 1.0
END
