TITL C-862131-2149-1049 -4.26642326749805e-05 125000 -737.620994400367 0 0 144 (C4) n - 1
REM
REM in /home/nfs/bkarasulu/CARBON/AIRSS/Generating-Clusters/TERSOFF/Higher-Symm/FIRE-HFTN
REM
REM
REM
REM
REM
REM ./C.cell (b20cbc046b6831c77cfcea5457e17084)
REM AIRSS Version 0.9.1 bugfix July 2018 build 013d7b7c2542+ Fri, 06 Jul 2018 19:26:36 +0100
REM compiler GCC version 9.2.1 20190827 (Red Hat 9.2.1-1)
REM options -cpp -mtune=generic -march=x86-64 -g -O0 -fpre-include=/usr/include/finclude/math-vector-fortran.h
REM seed -554959272 959100339 -2081863393 238661841 921513671 -1596505672 -455539768 1455155260 -1362503562 972281452 -1556989252 758957595 1620631210 -626883088 889192663 -2032526932 -1211045879 1630720601 460136247 800064108 1849460263 793529338 -2050190480 -1339667078 1384088425 382203996 -472906263 1527993040 -40820771 -797606978 -785946236 -401033601 -980942975
REM
CELL 1.54180   50.00000   50.00000   50.00000   90.00000   90.00000   90.00000
LATT -1
SFAC C  
C      1  0.4881970000000  0.4302110000000  0.4327460000000 1.0
C      1  0.5697890000000  0.4881970000000  0.4327460000000 1.0
C      1  0.5118030000000  0.5697890000000  0.4327460000000 1.0
C      1  0.4302110000000  0.5118030000000  0.4327460000000 1.0
C      1  0.4380090000000  0.5505140000000  0.5699980000000 1.0
C      1  0.4494860000000  0.4380090000000  0.5699980000000 1.0
C      1  0.5619910000000  0.4494860000000  0.5699980000000 1.0
C      1  0.5505140000000  0.5619910000000  0.5699980000000 1.0
C      1  0.4942040000000  0.4552180000000  0.4074120000000 1.0
C      1  0.5447820000000  0.4942040000000  0.4074120000000 1.0
C      1  0.5057960000000  0.5447820000000  0.4074120000000 1.0
C      1  0.4552180000000  0.5057960000000  0.4074120000000 1.0
C      1  0.4877040000000  0.5505080000000  0.5559370000000 1.0
C      1  0.4494920000000  0.4877040000000  0.5559370000000 1.0
C      1  0.5122960000000  0.4494920000000  0.5559370000000 1.0
C      1  0.5505080000000  0.5122960000000  0.5559370000000 1.0
C      1  0.5284060000000  0.5933060000000  0.4474220000000 1.0
C      1  0.4066940000000  0.5284060000000  0.4474220000000 1.0
C      1  0.4715940000000  0.4066940000000  0.4474220000000 1.0
C      1  0.5933060000000  0.4715940000000  0.4474220000000 1.0
C      1  0.4164700000000  0.4534890000000  0.5271740000000 1.0
C      1  0.5465110000000  0.4164700000000  0.5271740000000 1.0
C      1  0.5835300000000  0.5465110000000  0.5271740000000 1.0
C      1  0.4534890000000  0.5835300000000  0.5271740000000 1.0
C      1  0.4803190000000  0.4837980000000  0.5973710000000 1.0
C      1  0.5162020000000  0.4803190000000  0.5973710000000 1.0
C      1  0.5196810000000  0.5162020000000  0.5973710000000 1.0
C      1  0.4837980000000  0.5196810000000  0.5973710000000 1.0
C      1  0.6007460000000  0.5183270000000  0.5303890000000 1.0
C      1  0.4816730000000  0.6007460000000  0.5303890000000 1.0
C      1  0.3992540000000  0.4816730000000  0.5303890000000 1.0
C      1  0.5183270000000  0.3992540000000  0.5303890000000 1.0
C      1  0.5520380000000  0.4965030000000  0.4785910000000 1.0
C      1  0.5034970000000  0.5520380000000  0.4785910000000 1.0
C      1  0.4479620000000  0.5034970000000  0.4785910000000 1.0
C      1  0.4965030000000  0.4479620000000  0.4785910000000 1.0
C      1  0.5689410000000  0.5381880000000  0.4490220000000 1.0
C      1  0.4618120000000  0.5689410000000  0.4490220000000 1.0
C      1  0.4310590000000  0.4618120000000  0.4490220000000 1.0
C      1  0.5381880000000  0.4310590000000  0.4490220000000 1.0
C      1  0.5278730000000  0.5455270000000  0.4444460000000 1.0
C      1  0.4544730000000  0.5278730000000  0.4444460000000 1.0
C      1  0.4721270000000  0.4544730000000  0.4444460000000 1.0
C      1  0.5455270000000  0.4721270000000  0.4444460000000 1.0
C      1  0.4845130000000  0.4849980000000  0.5127790000000 1.0
C      1  0.5150020000000  0.4845130000000  0.5127790000000 1.0
C      1  0.5154870000000  0.5150020000000  0.5127790000000 1.0
C      1  0.4849980000000  0.5154870000000  0.5127790000000 1.0
C      1  0.5964940000000  0.5051670000000  0.4724480000000 1.0
C      1  0.4948330000000  0.5964940000000  0.4724480000000 1.0
C      1  0.4035060000000  0.4948330000000  0.4724480000000 1.0
C      1  0.5051670000000  0.4035060000000  0.4724480000000 1.0
C      1  0.4305860000000  0.5723330000000  0.5465690000000 1.0
C      1  0.4276670000000  0.4305860000000  0.5465690000000 1.0
C      1  0.5694140000000  0.4276670000000  0.5465690000000 1.0
C      1  0.5723330000000  0.5694140000000  0.5465690000000 1.0
C      1  0.5908870000000  0.5530570000000  0.4950910000000 1.0
C      1  0.4469430000000  0.5908870000000  0.4950910000000 1.0
C      1  0.4091130000000  0.4469430000000  0.4950910000000 1.0
C      1  0.5530570000000  0.4091130000000  0.4950910000000 1.0
C      1  0.4523330000000  0.5481250000000  0.5201270000000 1.0
C      1  0.4518750000000  0.4523330000000  0.5201270000000 1.0
C      1  0.5476670000000  0.4518750000000  0.5201270000000 1.0
C      1  0.5481250000000  0.5476670000000  0.5201270000000 1.0
C      1  0.4651180000000  0.4753410000000  0.4051520000000 1.0
C      1  0.5246590000000  0.4651180000000  0.4051520000000 1.0
C      1  0.5348820000000  0.5246590000000  0.4051520000000 1.0
C      1  0.4753410000000  0.5348820000000  0.4051520000000 1.0
C      1  0.5620730000000  0.4327460000000  0.4760500000000 1.0
C      1  0.5672540000000  0.5620730000000  0.4760500000000 1.0
C      1  0.4379270000000  0.5672540000000  0.4760500000000 1.0
C      1  0.4327460000000  0.4379270000000  0.4760500000000 1.0
C      1  0.4461640000000  0.4128230000000  0.4915570000000 1.0
C      1  0.5871770000000  0.4461640000000  0.4915570000000 1.0
C      1  0.5538360000000  0.5871770000000  0.4915570000000 1.0
C      1  0.4128230000000  0.5538360000000  0.4915570000000 1.0
C      1  0.4215810000000  0.5280450000000  0.5594650000000 1.0
C      1  0.4719550000000  0.4215810000000  0.5594650000000 1.0
C      1  0.5784190000000  0.4719550000000  0.5594650000000 1.0
C      1  0.5280450000000  0.5784190000000  0.5594650000000 1.0
C      1  0.3990170000000  0.5254910000000  0.4804880000000 1.0
C      1  0.4745090000000  0.3990170000000  0.4804880000000 1.0
C      1  0.6009830000000  0.4745090000000  0.4804880000000 1.0
C      1  0.5254910000000  0.6009830000000  0.4804880000000 1.0
C      1  0.5285190000000  0.4710060000000  0.5351850000000 1.0
C      1  0.5289940000000  0.5285190000000  0.5351850000000 1.0
C      1  0.4714810000000  0.5289940000000  0.5351850000000 1.0
C      1  0.4710060000000  0.4714810000000  0.5351850000000 1.0
C      1  0.5732920000000  0.4979440000000  0.5698030000000 1.0
C      1  0.5020560000000  0.5732920000000  0.5698030000000 1.0
C      1  0.4267080000000  0.5020560000000  0.5698030000000 1.0
C      1  0.4979440000000  0.4267080000000  0.5698030000000 1.0
C      1  0.4913860000000  0.5716370000000  0.4550560000000 1.0
C      1  0.4283630000000  0.4913860000000  0.4550560000000 1.0
C      1  0.5086140000000  0.4283630000000  0.4550560000000 1.0
C      1  0.5716370000000  0.5086140000000  0.4550560000000 1.0
C      1  0.4939850000000  0.4763750000000  0.5584300000000 1.0
C      1  0.5236250000000  0.4939850000000  0.5584300000000 1.0
C      1  0.5060150000000  0.5236250000000  0.5584300000000 1.0
C      1  0.4763750000000  0.5060150000000  0.5584300000000 1.0
C      1  0.4811940000000  0.5553770000000  0.5003840000000 1.0
C      1  0.4446230000000  0.4811940000000  0.5003840000000 1.0
C      1  0.5188060000000  0.4446230000000  0.5003840000000 1.0
C      1  0.5553770000000  0.5188060000000  0.5003840000000 1.0
C      1  0.4968030000000  0.4775400000000  0.4733830000000 1.0
C      1  0.5224600000000  0.4968030000000  0.4733830000000 1.0
C      1  0.5031970000000  0.5224600000000  0.4733830000000 1.0
C      1  0.4775400000000  0.5031970000000  0.4733830000000 1.0
C      1  0.5321960000000  0.4576080000000  0.5781560000000 1.0
C      1  0.5423920000000  0.5321960000000  0.5781560000000 1.0
C      1  0.4678040000000  0.5423920000000  0.5781560000000 1.0
C      1  0.4576080000000  0.4678040000000  0.5781560000000 1.0
C      1  0.5578780000000  0.5883630000000  0.5231480000000 1.0
C      1  0.4116370000000  0.5578780000000  0.5231480000000 1.0
C      1  0.4421220000000  0.4116370000000  0.5231480000000 1.0
C      1  0.5883630000000  0.4421220000000  0.5231480000000 1.0
C      1  0.4484950000000  0.4564820000000  0.4250890000000 1.0
C      1  0.5435180000000  0.4484950000000  0.4250890000000 1.0
C      1  0.5515050000000  0.5435180000000  0.4250890000000 1.0
C      1  0.4564820000000  0.5515050000000  0.4250890000000 1.0
C      1  0.4899530000000  0.4793160000000  0.4413330000000 1.0
C      1  0.5206840000000  0.4899530000000  0.4413330000000 1.0
C      1  0.5100470000000  0.5206840000000  0.4413330000000 1.0
C      1  0.4793160000000  0.5100470000000  0.4413330000000 1.0
C      1  0.4029530000000  0.5103920000000  0.5131250000000 1.0
C      1  0.4896080000000  0.4029530000000  0.5131250000000 1.0
C      1  0.5970470000000  0.4896080000000  0.5131250000000 1.0
C      1  0.5103920000000  0.5970470000000  0.5131250000000 1.0
C      1  0.5002580000000  0.4410110000000  0.5273030000000 1.0
C      1  0.5589890000000  0.5002580000000  0.5273030000000 1.0
C      1  0.4997420000000  0.5589890000000  0.5273030000000 1.0
C      1  0.4410110000000  0.4997420000000  0.5273030000000 1.0
C      1  0.4558110000000  0.5388060000000  0.4788790000000 1.0
C      1  0.4611940000000  0.4558110000000  0.4788790000000 1.0
C      1  0.5441890000000  0.4611940000000  0.4788790000000 1.0
C      1  0.5388060000000  0.5441890000000  0.4788790000000 1.0
C      1  0.4154610000000  0.4763310000000  0.4920450000000 1.0
C      1  0.5236690000000  0.4154610000000  0.4920450000000 1.0
C      1  0.5845390000000  0.5236690000000  0.4920450000000 1.0
C      1  0.4763310000000  0.5845390000000  0.4920450000000 1.0
C      1  0.4236170000000  0.5279750000000  0.5284480000000 1.0
C      1  0.4720250000000  0.4236170000000  0.5284480000000 1.0
C      1  0.5763830000000  0.4720250000000  0.5284480000000 1.0
C      1  0.5279750000000  0.5763830000000  0.5284480000000 1.0
END
