TITL C-862504-1170-245 -0.00089671052765398 125000 -396.577297181132 0 0 72 (Ci) n - 1
REM
REM in /home/nfs/bkarasulu/CARBON/AIRSS/Generating-Clusters/TERSOFF/Higher-Symm/FIRE-HFTN
REM
REM
REM
REM
REM
REM ./C.cell (b20cbc046b6831c77cfcea5457e17084)
REM AIRSS Version 0.9.1 bugfix July 2018 build 013d7b7c2542+ Fri, 06 Jul 2018 19:26:36 +0100
REM compiler GCC version 9.2.1 20190827 (Red Hat 9.2.1-1)
REM options -cpp -mtune=generic -march=x86-64 -g -O0 -fpre-include=/usr/include/finclude/math-vector-fortran.h
REM seed -2013682605 -670884890 1322644968 759404959 -2118079817 30847005 1879625310 -1318899841 2147162373 1406359009 -253640574 -614492602 -171301441 462259650 -643582625 412427181 1259477880 -1132362713 -1622425354 1235502849 678169070 756922609 -104351905 -874612758 -521551707 884486228 -237110184 -2020568502 183031020 908131343 1181957405 1002264947 -867537831
REM
CELL 1.54180   50.00000   50.00000   50.00000   90.00000   90.00000   90.00000
LATT -1
SFAC C  
C      1  0.4581950000000  0.4661300000000  0.5396500000000 1.0
C      1  0.5418050000000  0.5338700000000  0.4603500000000 1.0
C      1  0.5518260000000  0.5478220000000  0.5380800000000 1.0
C      1  0.4481740000000  0.4521780000000  0.4619200000000 1.0
C      1  0.4938760000000  0.4312180000000  0.5263700000000 1.0
C      1  0.5061240000000  0.5687820000000  0.4736300000000 1.0
C      1  0.5064990000000  0.5644140000000  0.5313280000000 1.0
C      1  0.4935010000000  0.4355860000000  0.4686720000000 1.0
C      1  0.4701460000000  0.4525430000000  0.4862920000000 1.0
C      1  0.5298540000000  0.5474570000000  0.5137080000000 1.0
C      1  0.5774650000000  0.4859410000000  0.5173380000000 1.0
C      1  0.4225350000000  0.5140590000000  0.4826620000000 1.0
C      1  0.5061990000000  0.5141420000000  0.4273020000000 1.0
C      1  0.4938010000000  0.4858580000000  0.5726980000000 1.0
C      1  0.4278190000000  0.4739860000000  0.4714690000000 1.0
C      1  0.5721810000000  0.5260140000000  0.5285310000000 1.0
C      1  0.5020900000000  0.4426490000000  0.5523850000000 1.0
C      1  0.4979100000000  0.5573510000000  0.4476150000000 1.0
C      1  0.4698540000000  0.5474180000000  0.4518110000000 1.0
C      1  0.5301460000000  0.4525820000000  0.5481890000000 1.0
C      1  0.4617550000000  0.5420220000000  0.4812020000000 1.0
C      1  0.5382450000000  0.4579780000000  0.5187980000000 1.0
C      1  0.4753930000000  0.5133680000000  0.4225550000000 1.0
C      1  0.5246070000000  0.4866320000000  0.5774450000000 1.0
C      1  0.4750430000000  0.5068840000000  0.5795400000000 1.0
C      1  0.5249570000000  0.4931160000000  0.4204600000000 1.0
C      1  0.4578730000000  0.5672220000000  0.5342930000000 1.0
C      1  0.5421270000000  0.4327780000000  0.4657070000000 1.0
C      1  0.5106920000000  0.4957220000000  0.5347980000000 1.0
C      1  0.4893080000000  0.5042780000000  0.4652020000000 1.0
C      1  0.5699260000000  0.4970330000000  0.5466380000000 1.0
C      1  0.4300740000000  0.5029670000000  0.4533620000000 1.0
C      1  0.5199780000000  0.5216600000000  0.5030920000000 1.0
C      1  0.4800220000000  0.4783400000000  0.4969080000000 1.0
C      1  0.5320260000000  0.4921660000000  0.5120050000000 1.0
C      1  0.4679740000000  0.5078340000000  0.4879950000000 1.0
C      1  0.5048870000000  0.5254380000000  0.4784540000000 1.0
C      1  0.4951130000000  0.4745620000000  0.5215460000000 1.0
C      1  0.5176030000000  0.5371160000000  0.4401770000000 1.0
C      1  0.4823970000000  0.4628840000000  0.5598230000000 1.0
C      1  0.5080730000000  0.4819890000000  0.4658870000000 1.0
C      1  0.4919270000000  0.5180110000000  0.5341130000000 1.0
C      1  0.4249520000000  0.4894480000000  0.5034980000000 1.0
C      1  0.5750480000000  0.5105520000000  0.4965020000000 1.0
C      1  0.4861220000000  0.4587840000000  0.4280330000000 1.0
C      1  0.5138780000000  0.5412160000000  0.5719670000000 1.0
C      1  0.5566590000000  0.5016130000000  0.4666970000000 1.0
C      1  0.4433410000000  0.4983870000000  0.5333030000000 1.0
C      1  0.5354240000000  0.4523480000000  0.4443480000000 1.0
C      1  0.4645760000000  0.5476520000000  0.5556520000000 1.0
C      1  0.5445420000000  0.4811120000000  0.4396730000000 1.0
C      1  0.4554580000000  0.5188880000000  0.5603270000000 1.0
C      1  0.4947420000000  0.5434980000000  0.5505390000000 1.0
C      1  0.5052580000000  0.4565020000000  0.4494610000000 1.0
C      1  0.5184850000000  0.4261590000000  0.4824320000000 1.0
C      1  0.4815150000000  0.5738410000000  0.5175680000000 1.0
C      1  0.4651130000000  0.4225190000000  0.4574690000000 1.0
C      1  0.5348870000000  0.5774810000000  0.5425310000000 1.0
C      1  0.4304590000000  0.5303930000000  0.5228830000000 1.0
C      1  0.5695410000000  0.4696070000000  0.4771170000000 1.0
C      1  0.5185230000000  0.4351860000000  0.5094550000000 1.0
C      1  0.4814770000000  0.5648140000000  0.4905450000000 1.0
C      1  0.5320710000000  0.4880670000000  0.4810010000000 1.0
C      1  0.4679290000000  0.5119330000000  0.5189990000000 1.0
C      1  0.5326750000000  0.5565310000000  0.4834560000000 1.0
C      1  0.4673250000000  0.4434690000000  0.5165440000000 1.0
C      1  0.4599220000000  0.4667110000000  0.4364500000000 1.0
C      1  0.5400780000000  0.5332890000000  0.5635500000000 1.0
C      1  0.5666110000000  0.4608410000000  0.5064620000000 1.0
C      1  0.4333890000000  0.5391590000000  0.4935380000000 1.0
C      1  0.5451300000000  0.5049340000000  0.5643080000000 1.0
C      1  0.4548700000000  0.4950660000000  0.4356920000000 1.0
END
