TITL C-862134-6730-1294 2.0573411665063 125000 -710.164208894868 0 0 120 (C3) n - 1
REM
REM in /home/nfs/bkarasulu/CARBON/AIRSS/Generating-Clusters/TERSOFF/Higher-Symm/FIRE-HFTN
REM
REM
REM
REM
REM
REM ./C.cell (b20cbc046b6831c77cfcea5457e17084)
REM AIRSS Version 0.9.1 bugfix July 2018 build 013d7b7c2542+ Fri, 06 Jul 2018 19:26:36 +0100
REM compiler GCC version 9.2.1 20190827 (Red Hat 9.2.1-1)
REM options -cpp -mtune=generic -march=x86-64 -g -O0 -fpre-include=/usr/include/finclude/math-vector-fortran.h
REM seed 422755360 1645604499 2047288561 373481958 -367327140 -1309305318 123194814 918522680 1641393707 -1635399764 -1495637405 -1312089069 -1705599926 1840948332 742633727 118522618 -356093414 -1527737421 1255250944 -1128123902 -1175242613 -1357675880 1529933649 -1988534834 1844949010 -1056611214 -1028959955 -2052308057 -83681267 1769743263 -1688850807 -616230535 1860058363
REM
CELL 1.54180   50.00000   50.00000   50.00000   90.00000   90.00000   90.00000
LATT -1
SFAC C  
C      1  0.5653970000000  0.5166780000000  0.4297950000000 1.0
C      1  0.5653930000000  0.4308590000000  0.5206620000000 1.0
C      1  0.5653930000000  0.5524620000000  0.5495500000000 1.0
C      1  0.5173260000000  0.4965190000000  0.4211460000000 1.0
C      1  0.5173220000000  0.4334510000000  0.5424430000000 1.0
C      1  0.5173220000000  0.5700300000000  0.5364130000000 1.0
C      1  0.4718340000000  0.5467250000000  0.5204660000000 1.0
C      1  0.4718360000000  0.4943620000000  0.4493000000000 1.0
C      1  0.4718340000000  0.4589130000000  0.5302310000000 1.0
C      1  0.4266520000000  0.4794110000000  0.4695920000000 1.0
C      1  0.4266500000000  0.4839630000000  0.5330310000000 1.0
C      1  0.4266510000000  0.5366260000000  0.4973700000000 1.0
C      1  0.4133170000000  0.4746840000000  0.4442910000000 1.0
C      1  0.4133130000000  0.4644150000000  0.5497750000000 1.0
C      1  0.4133150000000  0.5609010000000  0.5059260000000 1.0
C      1  0.5978140000000  0.4579640000000  0.4952310000000 1.0
C      1  0.5978130000000  0.5168850000000  0.5387940000000 1.0
C      1  0.5978150000000  0.5251510000000  0.4659850000000 1.0
C      1  0.4119760000000  0.4747040000000  0.4940760000000 1.0
C      1  0.4119750000000  0.5075210000000  0.5248650000000 1.0
C      1  0.4119770000000  0.5177760000000  0.4810500000000 1.0
C      1  0.4885270000000  0.5661660000000  0.5667320000000 1.0
C      1  0.4885330000000  0.5247090000000  0.4093320000000 1.0
C      1  0.4885280000000  0.4091250000000  0.5239350000000 1.0
C      1  0.4994870000000  0.5552630000000  0.5171140000000 1.0
C      1  0.4994890000000  0.4871890000000  0.4435840000000 1.0
C      1  0.4994860000000  0.4575470000000  0.5393030000000 1.0
C      1  0.4137130000000  0.4505870000000  0.5096050000000 1.0
C      1  0.4137130000000  0.5330280000000  0.5379860000000 1.0
C      1  0.4137160000000  0.5163860000000  0.4524000000000 1.0
C      1  0.4552380000000  0.6062770000000  0.4837180000000 1.0
C      1  0.4552400000000  0.4327620000000  0.4161010000000 1.0
C      1  0.4552340000000  0.4609610000000  0.6001770000000 1.0
C      1  0.5110370000000  0.3912070000000  0.5279290000000 1.0
C      1  0.5110350000000  0.5785830000000  0.5802540000000 1.0
C      1  0.5110420000000  0.5302100000000  0.3918190000000 1.0
C      1  0.4383620000000  0.4364560000000  0.5150490000000 1.0
C      1  0.4383610000000  0.5448070000000  0.5475030000000 1.0
C      1  0.4383650000000  0.5187370000000  0.4374410000000 1.0
C      1  0.4946510000000  0.5157230000000  0.5889920000000 1.0
C      1  0.4946560000000  0.5692080000000  0.4418870000000 1.0
C      1  0.4946550000000  0.4150690000000  0.4691210000000 1.0
C      1  0.5527460000000  0.4826250000000  0.4894540000000 1.0
C      1  0.5527450000000  0.4995530000000  0.5203230000000 1.0
C      1  0.5527460000000  0.5178220000000  0.4902280000000 1.0
C      1  0.5470480000000  0.4494750000000  0.4600030000000 1.0
C      1  0.5470450000000  0.4906220000000  0.5637570000000 1.0
C      1  0.5470480000000  0.5599020000000  0.4762450000000 1.0
C      1  0.5281040000000  0.5989160000000  0.5298780000000 1.0
C      1  0.5281080000000  0.4764160000000  0.3993980000000 1.0
C      1  0.5281020000000  0.4246670000000  0.5707260000000 1.0
C      1  0.5800150000000  0.4737830000000  0.4788760000000 1.0
C      1  0.5800130000000  0.4948120000000  0.5332710000000 1.0
C      1  0.5800150000000  0.5314050000000  0.4878620000000 1.0
C      1  0.4714600000000  0.5080920000000  0.5369090000000 1.0
C      1  0.4714620000000  0.5279190000000  0.4745360000000 1.0
C      1  0.4714620000000  0.4639890000000  0.4885520000000 1.0
C      1  0.5855440000000  0.5536130000000  0.5069170000000 1.0
C      1  0.5855460000000  0.4791810000000  0.4501160000000 1.0
C      1  0.5855430000000  0.4672060000000  0.5429760000000 1.0
C      1  0.5139580000000  0.3939110000000  0.4649330000000 1.0
C      1  0.5139530000000  0.5226750000000  0.6094100000000 1.0
C      1  0.5139590000000  0.5834140000000  0.4256590000000 1.0
C      1  0.5566190000000  0.5087180000000  0.5845580000000 1.0
C      1  0.5566240000000  0.5688680000000  0.4501740000000 1.0
C      1  0.5566230000000  0.4224140000000  0.4652740000000 1.0
C      1  0.5458710000000  0.5608710000000  0.5297660000000 1.0
C      1  0.5458750000000  0.4953410000000  0.4324030000000 1.0
C      1  0.5458710000000  0.4437870000000  0.5378360000000 1.0
C      1  0.5592520000000  0.4665190000000  0.4381050000000 1.0
C      1  0.5592470000000  0.4631360000000  0.5599460000000 1.0
C      1  0.5592500000000  0.5703450000000  0.5019550000000 1.0
C      1  0.4946730000000  0.4868790000000  0.5775610000000 1.0
C      1  0.4946770000000  0.5737300000000  0.4725830000000 1.0
C      1  0.4946780000000  0.4393910000000  0.4498560000000 1.0
C      1  0.4601580000000  0.5346480000000  0.4484380000000 1.0
C      1  0.4601560000000  0.4380240000000  0.4957730000000 1.0
C      1  0.4601540000000  0.5273290000000  0.5557840000000 1.0
C      1  0.4792410000000  0.4168730000000  0.4954220000000 1.0
C      1  0.4792380000000  0.5376000000000  0.5742780000000 1.0
C      1  0.4792430000000  0.5455280000000  0.4302970000000 1.0
C      1  0.4996510000000  0.4708410000000  0.4980800000000 1.0
C      1  0.4996500000000  0.5129170000000  0.5262130000000 1.0
C      1  0.4996520000000  0.5162420000000  0.4757070000000 1.0
C      1  0.4728880000000  0.4972710000000  0.4074510000000 1.0
C      1  0.4728830000000  0.4212150000000  0.5486370000000 1.0
C      1  0.4728840000000  0.5815140000000  0.5439100000000 1.0
C      1  0.5419380000000  0.5155460000000  0.6086400000000 1.0
C      1  0.5419440000000  0.5863100000000  0.4322190000000 1.0
C      1  0.5419430000000  0.3981430000000  0.4591460000000 1.0
C      1  0.4447010000000  0.4984430000000  0.4170150000000 1.0
C      1  0.4446960000000  0.4289130000000  0.5428380000000 1.0
C      1  0.4446960000000  0.5726440000000  0.5401410000000 1.0
C      1  0.5274700000000  0.5011750000000  0.5395130000000 1.0
C      1  0.5274720000000  0.5336310000000  0.4792270000000 1.0
C      1  0.5274720000000  0.4651940000000  0.4812620000000 1.0
C      1  0.4335200000000  0.4491250000000  0.4069670000000 1.0
C      1  0.4335130000000  0.4448700000000  0.5905720000000 1.0
C      1  0.4335170000000  0.6060050000000  0.5024540000000 1.0
C      1  0.5508280000000  0.5986080000000  0.5112850000000 1.0
C      1  0.5508320000000  0.4604670000000  0.4089630000000 1.0
C      1  0.5508260000000  0.4409250000000  0.5797570000000 1.0
C      1  0.4803790000000  0.4447400000000  0.4230720000000 1.0
C      1  0.4803740000000  0.4610090000000  0.5863200000000 1.0
C      1  0.4803770000000  0.5942510000000  0.4906060000000 1.0
C      1  0.5076910000000  0.4812290000000  0.5525740000000 1.0
C      1  0.5076940000000  0.5549160000000  0.4899700000000 1.0
C      1  0.5076950000000  0.4638550000000  0.4574570000000 1.0
C      1  0.5899220000000  0.4471210000000  0.5207740000000 1.0
C      1  0.5899220000000  0.5444280000000  0.5354110000000 1.0
C      1  0.5899250000000  0.5084510000000  0.4438230000000 1.0
C      1  0.4565000000000  0.4836760000000  0.5308540000000 1.0
C      1  0.4565020000000  0.5348830000000  0.4987070000000 1.0
C      1  0.4565030000000  0.4814400000000  0.4704340000000 1.0
C      1  0.4270350000000  0.4424950000000  0.5624430000000 1.0
C      1  0.4270370000000  0.5828320000000  0.5185760000000 1.0
C      1  0.4270400000000  0.4746740000000  0.4189740000000 1.0
C      1  0.4874510000000  0.4344450000000  0.5722440000000 1.0
C      1  0.4874530000000  0.5953430000000  0.5206500000000 1.0
C      1  0.4874570000000  0.4702120000000  0.4071050000000 1.0
END
