TITL C-862132-7359-227 4.37714378722056e-05 125000 -901.693436360957 0 0 158 (C3h) n - 1
REM
REM in /home/nfs/bkarasulu/CARBON/AIRSS/Generating-Clusters/TERSOFF/Higher-Symm/FIRE-HFTN
REM
REM
REM
REM
REM
REM ./C.cell (b20cbc046b6831c77cfcea5457e17084)
REM AIRSS Version 0.9.1 bugfix July 2018 build 013d7b7c2542+ Fri, 06 Jul 2018 19:26:36 +0100
REM compiler GCC version 9.2.1 20190827 (Red Hat 9.2.1-1)
REM options -cpp -mtune=generic -march=x86-64 -g -O0 -fpre-include=/usr/include/finclude/math-vector-fortran.h
REM seed 564851118 1171144206 1222631413 -2106671355 1681555313 663367125 -1556706173 -106587592 -1775415968 1074379431 777384524 -696905517 -433167283 -434488020 -1096456342 -513482899 162191868 -1585031758 899521679 1908330420 -1207470706 1475541420 1099320749 -963420826 507235039 1093921094 -2091113852 2009190167 1414760066 654300748 -2002290424 -2044473269 1246034964
REM
CELL 1.54180   50.00000   50.00000   50.00000   90.00000   90.00000   90.00000
LATT -1
SFAC C  
C      1  0.5142970000000  0.4272660000000  0.5876160000000 1.0
C      1  0.5142970000000  0.6123450000000  0.5188910000000 1.0
C      1  0.5142950000000  0.4602880000000  0.3929700000000 1.0
C      1  0.4848370000000  0.4272660000000  0.5876160000000 1.0
C      1  0.4848380000000  0.6123450000000  0.5188910000000 1.0
C      1  0.4848360000000  0.4602880000000  0.3929710000000 1.0
C      1  0.6128030000000  0.5023050000000  0.5307100000000 1.0
C      1  0.6128020000000  0.5255430000000  0.4823560000000 1.0
C      1  0.6128020000000  0.4720490000000  0.4864090000000 1.0
C      1  0.3863310000000  0.5023060000000  0.5307120000000 1.0
C      1  0.3863310000000  0.5255440000000  0.4823580000000 1.0
C      1  0.3863310000000  0.4720500000000  0.4864100000000 1.0
C      1  0.4845630000000  0.5434280000000  0.5390830000000 1.0
C      1  0.4845620000000  0.5122330000000  0.4425590000000 1.0
C      1  0.4845620000000  0.4442380000000  0.5178360000000 1.0
C      1  0.5145720000000  0.5434270000000  0.5390820000000 1.0
C      1  0.5145710000000  0.5122330000000  0.4425590000000 1.0
C      1  0.5145710000000  0.4442380000000  0.5178360000000 1.0
C      1  0.4297080000000  0.4616420000000  0.4290930000000 1.0
C      1  0.4297090000000  0.4578720000000  0.5683830000000 1.0
C      1  0.4297090000000  0.5803850000000  0.5020030000000 1.0
C      1  0.5694240000000  0.4616420000000  0.4290920000000 1.0
C      1  0.5694250000000  0.4578710000000  0.5683820000000 1.0
C      1  0.5694250000000  0.5803850000000  0.5020020000000 1.0
C      1  0.4753790000000  0.5234240000000  0.5573660000000 1.0
C      1  0.4753790000000  0.5380690000000  0.4507420000000 1.0
C      1  0.4753790000000  0.4384070000000  0.4913710000000 1.0
C      1  0.5237550000000  0.5234230000000  0.5573650000000 1.0
C      1  0.5237540000000  0.5380680000000  0.4507410000000 1.0
C      1  0.5237540000000  0.4384070000000  0.4913700000000 1.0
C      1  0.5341620000000  0.4127070000000  0.4588390000000 1.0
C      1  0.5341640000000  0.5081000000000  0.5958880000000 1.0
C      1  0.5341630000000  0.5790910000000  0.4447500000000 1.0
C      1  0.4649700000000  0.4127070000000  0.4588390000000 1.0
C      1  0.4649710000000  0.5081010000000  0.5958880000000 1.0
C      1  0.4649700000000  0.5790920000000  0.4447510000000 1.0
C      1  0.4840770000000  0.5061760000000  0.4116830000000 1.0
C      1  0.4840780000000  0.4205280000000  0.5385190000000 1.0
C      1  0.4840790000000  0.5731950000000  0.5492750000000 1.0
C      1  0.5150550000000  0.5061760000000  0.4116830000000 1.0
C      1  0.5150550000000  0.4205280000000  0.5385190000000 1.0
C      1  0.5150560000000  0.5731950000000  0.5492750000000 1.0
C      1  0.3991000000000  0.5271880000000  0.4552980000000 1.0
C      1  0.3991000000000  0.4477930000000  0.4985160000000 1.0
C      1  0.3991010000000  0.5249180000000  0.5456650000000 1.0
C      1  0.6000330000000  0.5271870000000  0.4552970000000 1.0
C      1  0.6000330000000  0.4477920000000  0.4985150000000 1.0
C      1  0.6000330000000  0.5249180000000  0.5456640000000 1.0
C      1  0.4364710000000  0.5287640000000  0.4741920000000 1.0
C      1  0.4364710000000  0.4633670000000  0.4877040000000 1.0
C      1  0.4364720000000  0.5077680000000  0.5375830000000 1.0
C      1  0.5626620000000  0.5287640000000  0.4741910000000 1.0
C      1  0.5626610000000  0.4633670000000  0.4877030000000 1.0
C      1  0.5626620000000  0.5077670000000  0.5375820000000 1.0
C      1  0.4085610000000  0.5191240000000  0.5768960000000 1.0
C      1  0.4085600000000  0.5571320000000  0.4447010000000 1.0
C      1  0.4085590000000  0.4236440000000  0.4778830000000 1.0
C      1  0.5905740000000  0.5191230000000  0.5768950000000 1.0
C      1  0.5905730000000  0.5571310000000  0.4447000000000 1.0
C      1  0.5905730000000  0.4236430000000  0.4778810000000 1.0
C      1  0.6002980000000  0.5822470000000  0.4960220000000 1.0
C      1  0.6002970000000  0.4555320000000  0.4304690000000 1.0
C      1  0.6002980000000  0.4621190000000  0.5729840000000 1.0
C      1  0.3988360000000  0.5822470000000  0.4960240000000 1.0
C      1  0.3988350000000  0.4555330000000  0.4304710000000 1.0
C      1  0.3988360000000  0.4621200000000  0.5729850000000 1.0
C      1  0.4670830000000  0.3973070000000  0.5062100000000 1.0
C      1  0.4670850000000  0.5568250000000  0.5855400000000 1.0
C      1  0.4670830000000  0.5457670000000  0.4077280000000 1.0
C      1  0.5320490000000  0.3973060000000  0.5062100000000 1.0
C      1  0.5320500000000  0.5568250000000  0.5855390000000 1.0
C      1  0.5320490000000  0.5457670000000  0.4077280000000 1.0
C      1  0.5145380000000  0.4829320000000  0.5514860000000 1.0
C      1  0.5145370000000  0.5532230000000  0.4887480000000 1.0
C      1  0.5145370000000  0.4637440000000  0.4592430000000 1.0
C      1  0.4845960000000  0.4829320000000  0.5514860000000 1.0
C      1  0.4845960000000  0.5532230000000  0.4887480000000 1.0
C      1  0.4845950000000  0.4637440000000  0.4592440000000 1.0
C      1  0.5153810000000  0.5337770000000  0.5971220000000 1.0
C      1  0.5153800000000  0.5673220000000  0.4218960000000 1.0
C      1  0.5153790000000  0.3988000000000  0.4804590000000 1.0
C      1  0.4837540000000  0.5337780000000  0.5971220000000 1.0
C      1  0.4837530000000  0.5673220000000  0.4218960000000 1.0
C      1  0.4837530000000  0.3988000000000  0.4804590000000 1.0
C      1  0.5656760000000  0.5134730000000  0.5992890000000 1.0
C      1  0.5656750000000  0.5793500000000  0.4383960000000 1.0
C      1  0.5656750000000  0.4070750000000  0.4617910000000 1.0
C      1  0.4334590000000  0.5134740000000  0.5992900000000 1.0
C      1  0.4334580000000  0.5793510000000  0.4383970000000 1.0
C      1  0.4334570000000  0.4070750000000  0.4617920000000 1.0
C      1  0.4470590000000  0.5210070000000  0.5603270000000 1.0
C      1  0.4470590000000  0.5418410000000  0.4513540000000 1.0
C      1  0.4470580000000  0.4370510000000  0.4877970000000 1.0
C      1  0.5520750000000  0.5210070000000  0.5603260000000 1.0
C      1  0.5520740000000  0.5418410000000  0.4513530000000 1.0
C      1  0.5520740000000  0.4370500000000  0.4877970000000 1.0
C      1  0.5276600000000  0.4681930000000  0.5278250000000 1.0
C      1  0.5276610000000  0.5401010000000  0.5133420000000 1.0
C      1  0.5276600000000  0.4916050000000  0.4583090000000 1.0
C      1  0.4714730000000  0.4681930000000  0.5278250000000 1.0
C      1  0.4714730000000  0.5401010000000  0.5133430000000 1.0
C      1  0.4714730000000  0.4916050000000  0.4583100000000 1.0
C      1  0.3855330000000  0.4766670000000  0.5480280000000 1.0
C      1  0.3855330000000  0.5533600000000  0.4959040000000 1.0
C      1  0.3855320000000  0.4698730000000  0.4555480000000 1.0
C      1  0.6136010000000  0.4766660000000  0.5480260000000 1.0
C      1  0.6136010000000  0.5533590000000  0.4959030000000 1.0
C      1  0.6136000000000  0.4698720000000  0.4555460000000 1.0
C      1  0.5299090000000  0.4833920000000  0.4022420000000 1.0
C      1  0.5299100000000  0.4237430000000  0.5629710000000 1.0
C      1  0.5299100000000  0.5927630000000  0.5342640000000 1.0
C      1  0.4692230000000  0.4833920000000  0.4022420000000 1.0
C      1  0.4692240000000  0.4237440000000  0.5629710000000 1.0
C      1  0.4692240000000  0.5927630000000  0.5342640000000 1.0
C      1  0.5849860000000  0.4500910000000  0.5239040000000 1.0
C      1  0.5849860000000  0.5457560000000  0.5309790000000 1.0
C      1  0.5849850000000  0.5040510000000  0.4445930000000 1.0
C      1  0.4141470000000  0.4500910000000  0.5239050000000 1.0
C      1  0.4141480000000  0.5457570000000  0.5309800000000 1.0
C      1  0.4141470000000  0.5040510000000  0.4445940000000 1.0
C      1  0.4429730000000  0.5344450000000  0.4222420000000 1.0
C      1  0.4429730000000  0.4155370000000  0.5087590000000 1.0
C      1  0.4429740000000  0.5499170000000  0.5684780000000 1.0
C      1  0.5561590000000  0.5344450000000  0.4222410000000 1.0
C      1  0.5561590000000  0.4155370000000  0.5087580000000 1.0
C      1  0.5561600000000  0.5499170000000  0.5684770000000 1.0
C      1  0.5701810000000  0.5653940000000  0.5471100000000 1.0
C      1  0.5701800000000  0.5082010000000  0.4195200000000 1.0
C      1  0.5701810000000  0.4263020000000  0.5328460000000 1.0
C      1  0.4289530000000  0.5653950000000  0.5471110000000 1.0
C      1  0.4289520000000  0.5082020000000  0.4195220000000 1.0
C      1  0.4289520000000  0.4263030000000  0.5328470000000 1.0
C      1  0.4410870000000  0.4825300000000  0.4103690000000 1.0
C      1  0.4410880000000  0.4312120000000  0.5596550000000 1.0
C      1  0.4410880000000  0.5861570000000  0.5294550000000 1.0
C      1  0.5580450000000  0.4825300000000  0.4103680000000 1.0
C      1  0.5580460000000  0.4312120000000  0.5596540000000 1.0
C      1  0.5580460000000  0.5861560000000  0.5294540000000 1.0
C      1  0.4490000000000  0.4782550000000  0.5105700000000 1.0
C      1  0.4490000000000  0.5201260000000  0.5132570000000 1.0
C      1  0.4490000000000  0.5015180000000  0.4756520000000 1.0
C      1  0.5501330000000  0.4782550000000  0.5105690000000 1.0
C      1  0.5501330000000  0.5201260000000  0.5132560000000 1.0
C      1  0.5501330000000  0.5015180000000  0.4756510000000 1.0
C      1  0.4199020000000  0.5460010000000  0.4976850000000 1.0
C      1  0.4199020000000  0.4750950000000  0.4610300000000 1.0
C      1  0.4199020000000  0.4788040000000  0.5407640000000 1.0
C      1  0.5792310000000  0.5460000000000  0.4976840000000 1.0
C      1  0.5792310000000  0.4750940000000  0.4610290000000 1.0
C      1  0.5792320000000  0.4788030000000  0.5407630000000 1.0
C      1  0.4717040000000  0.5765700000000  0.4743010000000 1.0
C      1  0.4717030000000  0.4395590000000  0.4462480000000 1.0
C      1  0.4717040000000  0.4837700000000  0.5789300000000 1.0
C      1  0.5274290000000  0.5765700000000  0.4743000000000 1.0
C      1  0.5274290000000  0.4395580000000  0.4462470000000 1.0
C      1  0.5274300000000  0.4837700000000  0.5789290000000 1.0
C      1  0.3860810000000  0.4999670000000  0.4998270000000 1.0
C      1  0.6130520000000  0.4999660000000  0.4998250000000 1.0
END
