TITL C-862506-1665-1087 0.00095471614657845 125000 -367.155820650489 0 0 63 (C1) n - 1
REM
REM in /home/nfs/bkarasulu/CARBON/AIRSS/Generating-Clusters/TERSOFF/Higher-Symm/FIRE-HFTN
REM
REM
REM
REM
REM
REM ./C.cell (b20cbc046b6831c77cfcea5457e17084)
REM AIRSS Version 0.9.1 bugfix July 2018 build 013d7b7c2542+ Fri, 06 Jul 2018 19:26:36 +0100
REM compiler GCC version 9.2.1 20190827 (Red Hat 9.2.1-1)
REM options -cpp -mtune=generic -march=x86-64 -g -O0 -fpre-include=/usr/include/finclude/math-vector-fortran.h
REM seed -779810720 -951754581 -593396783 329914641 943747930 -959261608 925079584 356861810 -1475385224 1225242948 1334568762 755659928 1028793985 -1026915075 -677968147 1431048156 939352423 -1242624118 -317642346 -1462398100 415313672 1185745479 -1826618358 978147498 2078185064 1267420378 683129887 -393869547 -1916819854 -331564631 -97229752 1274394677 -86356879
REM
CELL 1.54180   50.00000   50.00000   50.00000   90.00000   90.00000   90.00000
LATT -1
SFAC C  
C      1  0.5254320000000  0.5076050000000  0.4960700000000 1.0
C      1  0.4655500000000  0.4354320000000  0.4935010000000 1.0
C      1  0.4880590000000  0.4732190000000  0.5087420000000 1.0
C      1  0.4985590000000  0.5609760000000  0.5500490000000 1.0
C      1  0.4714490000000  0.5599330000000  0.5389660000000 1.0
C      1  0.5665660000000  0.5262150000000  0.5049000000000 1.0
C      1  0.5703380000000  0.4973940000000  0.4647850000000 1.0
C      1  0.5356560000000  0.5269700000000  0.5492440000000 1.0
C      1  0.4516550000000  0.4971730000000  0.5501570000000 1.0
C      1  0.5184790000000  0.5525260000000  0.4620250000000 1.0
C      1  0.5344080000000  0.5123740000000  0.4363740000000 1.0
C      1  0.4676390000000  0.4927540000000  0.4996720000000 1.0
C      1  0.5393440000000  0.4823650000000  0.5127520000000 1.0
C      1  0.5639020000000  0.5262590000000  0.4739550000000 1.0
C      1  0.5408510000000  0.5348530000000  0.4551970000000 1.0
C      1  0.4211990000000  0.4849780000000  0.5116380000000 1.0
C      1  0.5237730000000  0.4504290000000  0.5424840000000 1.0
C      1  0.5310290000000  0.4682700000000  0.4488060000000 1.0
C      1  0.5179110000000  0.4786360000000  0.5519970000000 1.0
C      1  0.4903060000000  0.5163400000000  0.5737960000000 1.0
C      1  0.4464130000000  0.4557860000000  0.4783910000000 1.0
C      1  0.4993050000000  0.5325980000000  0.5008360000000 1.0
C      1  0.4882490000000  0.5778140000000  0.4856290000000 1.0
C      1  0.5092030000000  0.4377490000000  0.5198410000000 1.0
C      1  0.5735380000000  0.4793490000000  0.4885570000000 1.0
C      1  0.5058420000000  0.5023960000000  0.4345410000000 1.0
C      1  0.5334740000000  0.5638400000000  0.5109270000000 1.0
C      1  0.4609310000000  0.5209630000000  0.5662950000000 1.0
C      1  0.4665380000000  0.4489610000000  0.5448150000000 1.0
C      1  0.5610510000000  0.4872390000000  0.5349060000000 1.0
C      1  0.5237240000000  0.4319060000000  0.4901340000000 1.0
C      1  0.5474610000000  0.5410440000000  0.5232530000000 1.0
C      1  0.4564830000000  0.4717750000000  0.4536020000000 1.0
C      1  0.4802970000000  0.4575920000000  0.4410130000000 1.0
C      1  0.5124020000000  0.5599390000000  0.4903630000000 1.0
C      1  0.5109610000000  0.5373690000000  0.5626050000000 1.0
C      1  0.4846780000000  0.5159970000000  0.4509850000000 1.0
C      1  0.4940020000000  0.4484810000000  0.4655250000000 1.0
C      1  0.5777610000000  0.4992670000000  0.5128230000000 1.0
C      1  0.4943890000000  0.4854190000000  0.5704050000000 1.0
C      1  0.5015850000000  0.4901750000000  0.5293100000000 1.0
C      1  0.4447230000000  0.5533370000000  0.4668090000000 1.0
C      1  0.5021100000000  0.4690210000000  0.4831200000000 1.0
C      1  0.4535730000000  0.5475930000000  0.5581660000000 1.0
C      1  0.5531630000000  0.4889130000000  0.4419810000000 1.0
C      1  0.5192840000000  0.4892370000000  0.4720860000000 1.0
C      1  0.4819920000000  0.5143760000000  0.4833300000000 1.0
C      1  0.5045570000000  0.4728320000000  0.4312200000000 1.0
C      1  0.5477620000000  0.4581840000000  0.4960620000000 1.0
C      1  0.4794790000000  0.4459440000000  0.5187960000000 1.0
C      1  0.4909330000000  0.4216060000000  0.4781100000000 1.0
C      1  0.5349420000000  0.4409400000000  0.4600040000000 1.0
C      1  0.4439600000000  0.5290180000000  0.5139060000000 1.0
C      1  0.4677300000000  0.5467830000000  0.5120240000000 1.0
C      1  0.4932250000000  0.5448170000000  0.4487200000000 1.0
C      1  0.4993030000000  0.5182140000000  0.5271890000000 1.0
C      1  0.4567500000000  0.5034360000000  0.4516010000000 1.0
C      1  0.4220200000000  0.4643400000000  0.4916880000000 1.0
C      1  0.4619140000000  0.5647000000000  0.4889210000000 1.0
C      1  0.4676450000000  0.4739210000000  0.5597010000000 1.0
C      1  0.4379740000000  0.5238000000000  0.4632700000000 1.0
C      1  0.4450750000000  0.5003130000000  0.5199000000000 1.0
C      1  0.5414930000000  0.4983170000000  0.5535270000000 1.0
END
