TITL C-862130-1496-673 2.08007608407953e-06 125000 -15.9241980963083 0 0 5 (D(inf)h) n - 1
REM
REM in /home/nfs/bkarasulu/CARBON/AIRSS/Generating-Clusters/TERSOFF/Higher-Symm/FIRE-HFTN
REM
REM
REM
REM
REM
REM ./C.cell (b20cbc046b6831c77cfcea5457e17084)
REM AIRSS Version 0.9.1 bugfix July 2018 build 013d7b7c2542+ Fri, 06 Jul 2018 19:26:36 +0100
REM compiler GCC version 9.2.1 20190827 (Red Hat 9.2.1-1)
REM options -cpp -mtune=generic -march=x86-64 -g -O0 -fpre-include=/usr/include/finclude/math-vector-fortran.h
REM seed -696035958 1960664778 -1011502814 518789738 1061158624 -2073394680 -186365755 416995809 1848853446 395540553 1362573371 -2110494841 1279543219 279689841 217867490 150496769 -1033084927 -1452635787 -1686858656 1218801610 -1182412135 436060056 835941084 -1477738849 -1904687970 1846309185 177669358 -382821256 1242145510 1044633297 -1219120837 1116134496 919209011
REM
CELL 1.54180   50.00000   50.00000   50.00000   90.00000   90.00000   90.00000
LATT -1
SFAC C  
C      1  0.5006820000000  0.4390780000000  0.5005460000000 1.0
C      1  0.5006820000000  0.5609220000000  0.5005460000000 1.0
C      1  0.5006820000000  0.5000000000000  0.5005460000000 1.0
C      1  0.5006820000000  0.4690110000000  0.5005460000000 1.0
C      1  0.5006820000000  0.5309890000000  0.5005460000000 1.0
END
