TITL C-862127-1500-163 -3.65326574977095e-05 125000 -167.174964529621 0 0 33 (D3h) n - 1
REM
REM in /home/nfs/bkarasulu/CARBON/AIRSS/Generating-Clusters/TERSOFF/Higher-Symm/FIRE-HFTN
REM
REM
REM
REM
REM
REM ./C.cell (b20cbc046b6831c77cfcea5457e17084)
REM AIRSS Version 0.9.1 bugfix July 2018 build 013d7b7c2542+ Fri, 06 Jul 2018 19:26:36 +0100
REM compiler GCC version 9.2.1 20190827 (Red Hat 9.2.1-1)
REM options -cpp -mtune=generic -march=x86-64 -g -O0 -fpre-include=/usr/include/finclude/math-vector-fortran.h
REM seed -870560119 -696642259 -1552254517 -707752644 580110674 -1436260543 -1128987458 1104091170 -1725058663 -211960776 -1076979870 1359183070 1728968850 1320140900 1178955115 -518162951 1098896699 1948966553 -1052083061 -1404585771 -679495938 1328219539 1333327762 820682415 -78502873 -341198923 -1095282968 -432883558 1640578080 -1673212347 -1621124791 -309066396 1755340223
REM
CELL 1.54180   50.00000   50.00000   50.00000   90.00000   90.00000   90.00000
LATT -1
SFAC C  
C      1  0.4947350000000  0.4786580000000  0.5386390000000 1.0
C      1  0.4691710000000  0.4786580000000  0.4761210000000 1.0
C      1  0.5360950000000  0.4786580000000  0.4852400000000 1.0
C      1  0.4947350000000  0.5206570000000  0.5386390000000 1.0
C      1  0.4691710000000  0.5206570000000  0.4761210000000 1.0
C      1  0.5360950000000  0.5206570000000  0.4852400000000 1.0
C      1  0.4947350000000  0.4786580000000  0.4613610000000 1.0
C      1  0.4691710000000  0.4786580000000  0.5238790000000 1.0
C      1  0.5360950000000  0.4786580000000  0.5147600000000 1.0
C      1  0.4947350000000  0.5206570000000  0.4613610000000 1.0
C      1  0.4691710000000  0.5206570000000  0.5238790000000 1.0
C      1  0.5360950000000  0.5206570000000  0.5147600000000 1.0
C      1  0.5368210000000  0.5492710000000  0.5218070000000 1.0
C      1  0.4627040000000  0.5492710000000  0.5209850000000 1.0
C      1  0.5004750000000  0.5492710000000  0.4572080000000 1.0
C      1  0.5368210000000  0.4500440000000  0.5218070000000 1.0
C      1  0.4627040000000  0.4500440000000  0.5209850000000 1.0
C      1  0.5004750000000  0.4500440000000  0.4572080000000 1.0
C      1  0.5368210000000  0.5492710000000  0.4781930000000 1.0
C      1  0.4627040000000  0.5492710000000  0.4790150000000 1.0
C      1  0.5004750000000  0.5492710000000  0.5427920000000 1.0
C      1  0.5368210000000  0.4500440000000  0.4781930000000 1.0
C      1  0.4627040000000  0.4500440000000  0.4790150000000 1.0
C      1  0.5004750000000  0.4500440000000  0.5427920000000 1.0
C      1  0.4787040000000  0.5671150000000  0.5000000000000 1.0
C      1  0.5106480000000  0.5671150000000  0.4815570000000 1.0
C      1  0.5106480000000  0.4322000000000  0.4815570000000 1.0
C      1  0.5106480000000  0.5671150000000  0.5184430000000 1.0
C      1  0.5106480000000  0.4322000000000  0.5184430000000 1.0
C      1  0.4787040000000  0.4322000000000  0.5000000000000 1.0
C      1  0.4634910000000  0.4996570000000  0.5000000000000 1.0
C      1  0.5182550000000  0.4996570000000  0.5316180000000 1.0
C      1  0.5182550000000  0.4996570000000  0.4683820000000 1.0
END
