TITL C-862501-1041-133 -0.00139236738485467 125000 -935.878815525734 0 0 185 (Cs) n - 1
REM
REM in /home/nfs/bkarasulu/CARBON/AIRSS/Generating-Clusters/TERSOFF/Higher-Symm/FIRE-HFTN
REM
REM
REM
REM
REM
REM ./C.cell (b20cbc046b6831c77cfcea5457e17084)
REM AIRSS Version 0.9.1 bugfix July 2018 build 013d7b7c2542+ Fri, 06 Jul 2018 19:26:36 +0100
REM compiler GCC version 9.2.1 20190827 (Red Hat 9.2.1-1)
REM options -cpp -mtune=generic -march=x86-64 -g -O0 -fpre-include=/usr/include/finclude/math-vector-fortran.h
REM seed 530928555 395365511 1998803761 -86590434 380140096 979407333 -194037460 2117767854 1363063322 -1357428999 -316028550 254749540 -1119219347 794874635 1574537627 1220185853 780331141 2122297406 2051704819 590200559 1085821550 -1281843773 -2078318110 -174687953 -1697170427 1978945281 678452929 -1513892597 -2029621951 1976203575 -140918837 -727398708 -2055795634
REM
CELL 1.54180   50.00000   50.00000   50.00000   90.00000   90.00000   90.00000
LATT -1
SFAC C  
C      1  0.4333440000000  0.4547290000000  0.5209640000000 1.0
C      1  0.5659320000000  0.5443810000000  0.5209630000000 1.0
C      1  0.4333430000000  0.4547290000000  0.4789830000000 1.0
C      1  0.5659320000000  0.5443810000000  0.4789840000000 1.0
C      1  0.5664670000000  0.4550420000000  0.5209640000000 1.0
C      1  0.4351110000000  0.5432560000000  0.5209570000000 1.0
C      1  0.5664670000000  0.4550420000000  0.4789830000000 1.0
C      1  0.4351110000000  0.5432560000000  0.4789920000000 1.0
C      1  0.4056110000000  0.5547410000000  0.4823560000000 1.0
C      1  0.5958200000000  0.4436320000000  0.4828010000000 1.0
C      1  0.4056110000000  0.5547410000000  0.5175920000000 1.0
C      1  0.5958200000000  0.4436320000000  0.5171470000000 1.0
C      1  0.5953310000000  0.5555950000000  0.4820890000000 1.0
C      1  0.4047260000000  0.4420790000000  0.4819600000000 1.0
C      1  0.5953310000000  0.5555950000000  0.5178590000000 1.0
C      1  0.4047260000000  0.4420790000000  0.5179880000000 1.0
C      1  0.5845770000000  0.4724460000000  0.5591670000000 1.0
C      1  0.4196560000000  0.5257650000000  0.5588540000000 1.0
C      1  0.5845770000000  0.4724460000000  0.4407800000000 1.0
C      1  0.4196560000000  0.5257650000000  0.4410940000000 1.0
C      1  0.4178280000000  0.4737810000000  0.5614420000000 1.0
C      1  0.5828080000000  0.5254020000000  0.5597210000000 1.0
C      1  0.4178270000000  0.4737820000000  0.4385060000000 1.0
C      1  0.5828080000000  0.5254020000000  0.4402270000000 1.0
C      1  0.4737800000000  0.4534680000000  0.5439780000000 1.0
C      1  0.5251260000000  0.5474780000000  0.5355570000000 1.0
C      1  0.4737800000000  0.4534680000000  0.4559700000000 1.0
C      1  0.5251260000000  0.5474780000000  0.4643900000000 1.0
C      1  0.5224650000000  0.4506940000000  0.5391320000000 1.0
C      1  0.4774890000000  0.5505590000000  0.5476050000000 1.0
C      1  0.5224650000000  0.4506940000000  0.4608160000000 1.0
C      1  0.4774890000000  0.5505600000000  0.4523420000000 1.0
C      1  0.5723440000000  0.4465540000000  0.4269860000000 1.0
C      1  0.4305400000000  0.5519430000000  0.4274750000000 1.0
C      1  0.5723440000000  0.4465540000000  0.5729620000000 1.0
C      1  0.4305400000000  0.5519430000000  0.5724730000000 1.0
C      1  0.4320390000000  0.4487270000000  0.4255820000000 1.0
C      1  0.5682800000000  0.5502030000000  0.4263170000000 1.0
C      1  0.4320390000000  0.4487270000000  0.5743660000000 1.0
C      1  0.5682800000000  0.5502030000000  0.5736310000000 1.0
C      1  0.3972260000000  0.5282240000000  0.5378270000000 1.0
C      1  0.6052040000000  0.4702660000000  0.5367260000000 1.0
C      1  0.3972260000000  0.5282240000000  0.4621210000000 1.0
C      1  0.6052040000000  0.4702670000000  0.4632220000000 1.0
C      1  0.6037010000000  0.5287150000000  0.5371960000000 1.0
C      1  0.3966660000000  0.4705050000000  0.5386070000000 1.0
C      1  0.6037010000000  0.5287150000000  0.4627510000000 1.0
C      1  0.3966660000000  0.4705050000000  0.4613410000000 1.0
C      1  0.4676070000000  0.5800940000000  0.5321360000000 1.0
C      1  0.5348160000000  0.4219620000000  0.5315140000000 1.0
C      1  0.4676070000000  0.5800940000000  0.4678120000000 1.0
C      1  0.5348160000000  0.4219620000000  0.4684340000000 1.0
C      1  0.5343900000000  0.5782010000000  0.5310080000000 1.0
C      1  0.4675630000000  0.4202230000000  0.5315810000000 1.0
C      1  0.5343890000000  0.5782010000000  0.4689400000000 1.0
C      1  0.4675630000000  0.4202230000000  0.4683670000000 1.0
C      1  0.4785240000000  0.4764860000000  0.5718020000000 1.0
C      1  0.5276430000000  0.5253830000000  0.5640420000000 1.0
C      1  0.4785240000000  0.4764860000000  0.4281460000000 1.0
C      1  0.5276430000000  0.5253830000000  0.4359060000000 1.0
C      1  0.5248710000000  0.4646870000000  0.5701970000000 1.0
C      1  0.4789840000000  0.5337790000000  0.5795560000000 1.0
C      1  0.5248710000000  0.4646870000000  0.4297510000000 1.0
C      1  0.4789840000000  0.5337790000000  0.4203920000000 1.0
C      1  0.5577590000000  0.5797400000000  0.5558810000000 1.0
C      1  0.4428060000000  0.4195430000000  0.5561400000000 1.0
C      1  0.5577590000000  0.5797400000000  0.4440670000000 1.0
C      1  0.4428060000000  0.4195430000000  0.4438080000000 1.0
C      1  0.4413430000000  0.5796040000000  0.5551670000000 1.0
C      1  0.5593390000000  0.4192000000000  0.5550670000000 1.0
C      1  0.4413430000000  0.5796040000000  0.4447810000000 1.0
C      1  0.5593390000000  0.4192000000000  0.4448810000000 1.0
C      1  0.4676190000000  0.5316520000000  0.6199070000000 1.0
C      1  0.5289040000000  0.4673530000000  0.6118840000000 1.0
C      1  0.4676190000000  0.5316530000000  0.3800410000000 1.0
C      1  0.5289040000000  0.4673540000000  0.3880630000000 1.0
C      1  0.5260450000000  0.5349570000000  0.6094420000000 1.0
C      1  0.4732510000000  0.4649010000000  0.6137790000000 1.0
C      1  0.5260450000000  0.5349570000000  0.3905060000000 1.0
C      1  0.4732510000000  0.4649020000000  0.3861690000000 1.0
C      1  0.5756660000000  0.5847270000000  0.4735280000000 1.0
C      1  0.4259320000000  0.4138540000000  0.4738980000000 1.0
C      1  0.5756660000000  0.5847270000000  0.5264200000000 1.0
C      1  0.4259320000000  0.4138540000000  0.5260500000000 1.0
C      1  0.4256780000000  0.5838170000000  0.4746840000000 1.0
C      1  0.5760650000000  0.4145580000000  0.4743340000000 1.0
C      1  0.4256780000000  0.5838170000000  0.5252640000000 1.0
C      1  0.5760650000000  0.4145580000000  0.5256140000000 1.0
C      1  0.5285680000000  0.4790870000000  0.4690220000000 1.0
C      1  0.4707810000000  0.5224670000000  0.4598750000000 1.0
C      1  0.5285680000000  0.4790870000000  0.5309260000000 1.0
C      1  0.4707810000000  0.5224670000000  0.5400730000000 1.0
C      1  0.4707750000000  0.4815830000000  0.4690810000000 1.0
C      1  0.5284990000000  0.5198340000000  0.4774870000000 1.0
C      1  0.4707750000000  0.4815830000000  0.5308660000000 1.0
C      1  0.5284990000000  0.5198340000000  0.5224610000000 1.0
C      1  0.5273960000000  0.5757430000000  0.5751390000000 1.0
C      1  0.4733230000000  0.4225500000000  0.5754690000000 1.0
C      1  0.5273960000000  0.5757430000000  0.4248090000000 1.0
C      1  0.4733220000000  0.4225500000000  0.4244780000000 1.0
C      1  0.4704430000000  0.5800000000000  0.5766500000000 1.0
C      1  0.5298270000000  0.4195080000000  0.5759940000000 1.0
C      1  0.4704430000000  0.5800000000000  0.4232980000000 1.0
C      1  0.5298270000000  0.4195080000000  0.4239540000000 1.0
C      1  0.4385500000000  0.4757180000000  0.5388400000000 1.0
C      1  0.5597190000000  0.5222220000000  0.5375260000000 1.0
C      1  0.4385500000000  0.4757180000000  0.4611080000000 1.0
C      1  0.5597190000000  0.5222220000000  0.4624220000000 1.0
C      1  0.5606460000000  0.4760260000000  0.5393200000000 1.0
C      1  0.4409010000000  0.5206510000000  0.5364960000000 1.0
C      1  0.5606460000000  0.4760260000000  0.4606280000000 1.0
C      1  0.4409010000000  0.5206510000000  0.4634520000000 1.0
C      1  0.4553270000000  0.5521140000000  0.4070030000000 1.0
C      1  0.5441140000000  0.4469000000000  0.4110960000000 1.0
C      1  0.4553270000000  0.5521130000000  0.5929450000000 1.0
C      1  0.5441140000000  0.4469000000000  0.5888510000000 1.0
C      1  0.5377900000000  0.5466240000000  0.4159860000000 1.0
C      1  0.4613830000000  0.4507650000000  0.4138070000000 1.0
C      1  0.5377900000000  0.5466240000000  0.5839620000000 1.0
C      1  0.4613830000000  0.4507650000000  0.5861410000000 1.0
C      1  0.4157170000000  0.5006140000000  0.4246420000000 1.0
C      1  0.5879910000000  0.4991850000000  0.4256730000000 1.0
C      1  0.4157180000000  0.5006140000000  0.5753060000000 1.0
C      1  0.5879920000000  0.4991840000000  0.5742750000000 1.0
C      1  0.5015940000000  0.4079140000000  0.5329130000000 1.0
C      1  0.5015020000000  0.5927920000000  0.5330220000000 1.0
C      1  0.5015940000000  0.4079140000000  0.4670350000000 1.0
C      1  0.5015020000000  0.5927930000000  0.4669260000000 1.0
C      1  0.5646430000000  0.4985090000000  0.4790510000000 1.0
C      1  0.4336850000000  0.4983190000000  0.5208560000000 1.0
C      1  0.4336850000000  0.4983190000000  0.4790920000000 1.0
C      1  0.5646430000000  0.4985090000000  0.5208970000000 1.0
C      1  0.4981130000000  0.5509960000000  0.4741010000000 1.0
C      1  0.4971800000000  0.4493810000000  0.4742370000000 1.0
C      1  0.4971800000000  0.4493810000000  0.5257110000000 1.0
C      1  0.4981130000000  0.5509960000000  0.5258470000000 1.0
C      1  0.3908650000000  0.4992380000000  0.4745950000000 1.0
C      1  0.6091420000000  0.4997320000000  0.5239840000000 1.0
C      1  0.3908650000000  0.4992380000000  0.5253530000000 1.0
C      1  0.6091410000000  0.4997320000000  0.4759640000000 1.0
C      1  0.4618870000000  0.5033790000000  0.5893930000000 1.0
C      1  0.5378280000000  0.4945470000000  0.5796930000000 1.0
C      1  0.4618860000000  0.5033790000000  0.4105550000000 1.0
C      1  0.5378280000000  0.4945470000000  0.4202550000000 1.0
C      1  0.4698170000000  0.4966790000000  0.6195530000000 1.0
C      1  0.5310250000000  0.5005960000000  0.3877550000000 1.0
C      1  0.5310250000000  0.5005950000000  0.6121930000000 1.0
C      1  0.4698170000000  0.4966790000000  0.3803950000000 1.0
C      1  0.5013700000000  0.4170470000000  0.5631830000000 1.0
C      1  0.4994960000000  0.5826470000000  0.5634450000000 1.0
C      1  0.4994960000000  0.5826480000000  0.4365030000000 1.0
C      1  0.5013700000000  0.4170470000000  0.4367650000000 1.0
C      1  0.4336450000000  0.5027540000000  0.5961970000000 1.0
C      1  0.5662610000000  0.4932540000000  0.4092290000000 1.0
C      1  0.5662620000000  0.4932540000000  0.5907190000000 1.0
C      1  0.4336450000000  0.5027540000000  0.4037510000000 1.0
C      1  0.4527920000000  0.5526230000000  0.4999740000000 1.0
C      1  0.5478460000000  0.4466480000000  0.4999740000000 1.0
C      1  0.5481440000000  0.5535320000000  0.4999740000000 1.0
C      1  0.4520280000000  0.4466220000000  0.4999740000000 1.0
C      1  0.4515980000000  0.5843860000000  0.4999740000000 1.0
C      1  0.5505700000000  0.4144250000000  0.4999740000000 1.0
C      1  0.5510180000000  0.5860110000000  0.4999740000000 1.0
C      1  0.4510960000000  0.4143160000000  0.4999740000000 1.0
C      1  0.5009590000000  0.4614450000000  0.5950720000000 1.0
C      1  0.4965670000000  0.5439960000000  0.6073500000000 1.0
C      1  0.4965670000000  0.5439960000000  0.3925980000000 1.0
C      1  0.5009580000000  0.4614450000000  0.4048760000000 1.0
C      1  0.4931630000000  0.5640420000000  0.4999740000000 1.0
C      1  0.4942730000000  0.4358540000000  0.4999740000000 1.0
C      1  0.5020070000000  0.5160940000000  0.6382540000000 1.0
C      1  0.5020060000000  0.5160950000000  0.3616930000000 1.0
C      1  0.4947780000000  0.4054930000000  0.4999740000000 1.0
C      1  0.4929080000000  0.5943080000000  0.4999740000000 1.0
C      1  0.4592410000000  0.4911770000000  0.4999740000000 1.0
C      1  0.5380230000000  0.4952160000000  0.4999740000000 1.0
C      1  0.5000340000000  0.5021910000000  0.6065560000000 1.0
C      1  0.5000340000000  0.5021920000000  0.3933920000000 1.0
C      1  0.5903770000000  0.4989540000000  0.4999740000000 1.0
C      1  0.4076900000000  0.4993680000000  0.4999740000000 1.0
C      1  0.4989080000000  0.5070290000000  0.4295820000000 1.0
C      1  0.4989080000000  0.5070290000000  0.5703660000000 1.0
C      1  0.4998040000000  0.5013960000000  0.4656760000000 1.0
C      1  0.4998040000000  0.5013960000000  0.5342720000000 1.0
C      1  0.4884440000000  0.5038690000000  0.4999740000000 1.0
END
