TITL C-862134-6730-1387 3.72615328843738e-05 125000 -135.754804579467 0 0 26 (C3) n - 1
REM
REM in /home/nfs/bkarasulu/CARBON/AIRSS/Generating-Clusters/TERSOFF/Higher-Symm/FIRE-HFTN
REM
REM
REM
REM
REM
REM ./C.cell (b20cbc046b6831c77cfcea5457e17084)
REM AIRSS Version 0.9.1 bugfix July 2018 build 013d7b7c2542+ Fri, 06 Jul 2018 19:26:36 +0100
REM compiler GCC version 9.2.1 20190827 (Red Hat 9.2.1-1)
REM options -cpp -mtune=generic -march=x86-64 -g -O0 -fpre-include=/usr/include/finclude/math-vector-fortran.h
REM seed -685852319 262469492 1005837078 -544667790 2078863778 2027857336 1814122519 2038531087 -1513209310 262732571 -1914968942 -1872998034 1895630452 -754064470 -1924903233 -1623709229 580460557 1702057035 2078968800 -1765398946 -1855135173 -80648392 2058536096 100667649 -1928339281 -1912478103 1681621379 1766284253 1464300463 -1687056268 -1769607368 706477150 120666040
REM
CELL 1.54180   50.00000   50.00000   50.00000   90.00000   90.00000   90.00000
LATT -1
SFAC C  
C      1  0.5033560000000  0.4742490000000  0.5306700000000 1.0
C      1  0.4716000000000  0.5119200000000  0.5306700000000 1.0
C      1  0.5201020000000  0.5205860000000  0.5306700000000 1.0
C      1  0.4386540000000  0.4376530000000  0.5152650000000 1.0
C      1  0.4722590000000  0.5862520000000  0.5152650000000 1.0
C      1  0.5841460000000  0.4828490000000  0.5152650000000 1.0
C      1  0.5170680000000  0.4655830000000  0.4867800000000 1.0
C      1  0.4572400000000  0.5043780000000  0.4867800000000 1.0
C      1  0.5207510000000  0.5367940000000  0.4867800000000 1.0
C      1  0.4920940000000  0.5430240000000  0.4952940000000 1.0
C      1  0.5367930000000  0.4872860000000  0.4952940000000 1.0
C      1  0.4661720000000  0.4764440000000  0.4952940000000 1.0
C      1  0.5396500000000  0.5370970000000  0.5442920000000 1.0
C      1  0.5078820000000  0.4490640000000  0.5442920000000 1.0
C      1  0.4475270000000  0.5205930000000  0.5442920000000 1.0
C      1  0.4785150000000  0.5217640000000  0.4763680000000 1.0
C      1  0.5251700000000  0.5096750000000  0.4763680000000 1.0
C      1  0.4913740000000  0.4753150000000  0.4763680000000 1.0
C      1  0.4932250000000  0.5305870000000  0.5231920000000 1.0
C      1  0.5254560000000  0.4925240000000  0.5231920000000 1.0
C      1  0.4763770000000  0.4836430000000  0.5231920000000 1.0
C      1  0.5654080000000  0.4815020000000  0.4932470000000 1.0
C      1  0.4468560000000  0.4545550000000  0.4932460000000 1.0
C      1  0.4827950000000  0.5706970000000  0.4932460000000 1.0
C      1  0.4983530000000  0.5022510000000  0.4618620000000 1.0
C      1  0.4983530000000  0.5022510000000  0.4325920000000 1.0
END
