TITL C-862500-986-760 0.00572079462725615 125000 -622.830003991261 0 0 107 (Cs) n - 1
REM
REM in /home/nfs/bkarasulu/CARBON/AIRSS/Generating-Clusters/TERSOFF/Higher-Symm/FIRE-HFTN
REM
REM
REM
REM
REM
REM ./C.cell (b20cbc046b6831c77cfcea5457e17084)
REM AIRSS Version 0.9.1 bugfix July 2018 build 013d7b7c2542+ Fri, 06 Jul 2018 19:26:36 +0100
REM compiler GCC version 9.2.1 20190827 (Red Hat 9.2.1-1)
REM options -cpp -mtune=generic -march=x86-64 -g -O0 -fpre-include=/usr/include/finclude/math-vector-fortran.h
REM seed 1422048542 -1449413277 1680541518 227136770 310760553 1185999609 876496852 276690414 -14787817 -1337580156 1420908074 160633671 -2071048665 -35016732 -516500211 -954348456 905532775 559003275 1435848455 -1218302042 -624990577 -1582015675 -315326435 908556015 -1382955600 -1239922246 -48102708 569223636 787248619 1553180862 -2027117583 -1463175523 -2054183326
REM
CELL 1.54180   50.00000   50.00000   50.00000   90.00000   90.00000   90.00000
LATT -1
SFAC C  
C      1  0.4660860000000  0.4181750000000  0.5032900000000 1.0
C      1  0.4660860000000  0.5811090000000  0.5032910000000 1.0
C      1  0.5581570000000  0.4430700000000  0.4248240000000 1.0
C      1  0.5581570000000  0.5562150000000  0.4248250000000 1.0
C      1  0.5908490000000  0.4688550000000  0.5101220000000 1.0
C      1  0.5908490000000  0.5304290000000  0.5101220000000 1.0
C      1  0.4753480000000  0.4518180000000  0.5786840000000 1.0
C      1  0.4753480000000  0.5474660000000  0.5786850000000 1.0
C      1  0.4866630000000  0.4723910000000  0.4991810000000 1.0
C      1  0.4866630000000  0.5268940000000  0.4991820000000 1.0
C      1  0.4287320000000  0.4434580000000  0.5037620000000 1.0
C      1  0.4287320000000  0.5558270000000  0.5037630000000 1.0
C      1  0.3873420000000  0.4855930000000  0.4825860000000 1.0
C      1  0.3873420000000  0.5136920000000  0.4825860000000 1.0
C      1  0.4386690000000  0.5765710000000  0.4866820000000 1.0
C      1  0.4386690000000  0.4227130000000  0.4866810000000 1.0
C      1  0.4199330000000  0.4608910000000  0.4530010000000 1.0
C      1  0.4199330000000  0.5383940000000  0.4530010000000 1.0
C      1  0.5923290000000  0.5144790000000  0.4856570000000 1.0
C      1  0.5923290000000  0.4848050000000  0.4856560000000 1.0
C      1  0.5018780000000  0.4496410000000  0.4908110000000 1.0
C      1  0.5018790000000  0.5496430000000  0.4908120000000 1.0
C      1  0.4124330000000  0.4726040000000  0.4783100000000 1.0
C      1  0.4124330000000  0.5266810000000  0.4783100000000 1.0
C      1  0.4371110000000  0.5320930000000  0.5502150000000 1.0
C      1  0.4371110000000  0.4671900000000  0.5502140000000 1.0
C      1  0.4316750000000  0.4318120000000  0.4567220000000 1.0
C      1  0.4316750000000  0.5674730000000  0.4567230000000 1.0
C      1  0.5435090000000  0.5206250000000  0.4768700000000 1.0
C      1  0.5435090000000  0.4786590000000  0.4768700000000 1.0
C      1  0.5193660000000  0.4705580000000  0.6016570000000 1.0
C      1  0.5193660000000  0.5287250000000  0.6016580000000 1.0
C      1  0.5735430000000  0.5252220000000  0.4655370000000 1.0
C      1  0.5735420000000  0.4740630000000  0.4655370000000 1.0
C      1  0.4627840000000  0.5170720000000  0.4827920000000 1.0
C      1  0.4627840000000  0.4822130000000  0.4827920000000 1.0
C      1  0.4929330000000  0.4853980000000  0.5233530000000 1.0
C      1  0.4929330000000  0.5138860000000  0.5233540000000 1.0
C      1  0.4931650000000  0.4733050000000  0.4363300000000 1.0
C      1  0.4931650000000  0.5259800000000  0.4363300000000 1.0
C      1  0.5650130000000  0.5286630000000  0.4167960000000 1.0
C      1  0.5650130000000  0.4706220000000  0.4167960000000 1.0
C      1  0.5380230000000  0.5603880000000  0.4488750000000 1.0
C      1  0.5380230000000  0.4388960000000  0.4488740000000 1.0
C      1  0.5045450000000  0.5140390000000  0.6220040000000 1.0
C      1  0.5045450000000  0.4852430000000  0.6220040000000 1.0
C      1  0.5673840000000  0.4707930000000  0.5833220000000 1.0
C      1  0.5673840000000  0.5284900000000  0.5833230000000 1.0
C      1  0.4347050000000  0.4723870000000  0.4991970000000 1.0
C      1  0.4347050000000  0.5268970000000  0.4991970000000 1.0
C      1  0.5713360000000  0.5541550000000  0.5039800000000 1.0
C      1  0.5713360000000  0.4451290000000  0.5039790000000 1.0
C      1  0.5791260000000  0.5145230000000  0.4383480000000 1.0
C      1  0.5791260000000  0.4847620000000  0.4383480000000 1.0
C      1  0.5058300000000  0.5489930000000  0.5858400000000 1.0
C      1  0.5058300000000  0.4502910000000  0.5858400000000 1.0
C      1  0.5190330000000  0.5641100000000  0.5612500000000 1.0
C      1  0.5190320000000  0.4351730000000  0.5612490000000 1.0
C      1  0.5427960000000  0.4847170000000  0.5908030000000 1.0
C      1  0.5427960000000  0.5145670000000  0.5908030000000 1.0
C      1  0.4642740000000  0.5728190000000  0.5331270000000 1.0
C      1  0.4642740000000  0.4264650000000  0.5331260000000 1.0
C      1  0.4920940000000  0.4230190000000  0.4902830000000 1.0
C      1  0.4920940000000  0.5762660000000  0.4902830000000 1.0
C      1  0.4391590000000  0.5610950000000  0.5440410000000 1.0
C      1  0.4391590000000  0.4381890000000  0.5440400000000 1.0
C      1  0.4326780000000  0.4850500000000  0.5264550000000 1.0
C      1  0.4326780000000  0.5142340000000  0.5264550000000 1.0
C      1  0.4758410000000  0.5643880000000  0.4534670000000 1.0
C      1  0.4758400000000  0.4348960000000  0.4534660000000 1.0
C      1  0.4774390000000  0.5266490000000  0.4117900000000 1.0
C      1  0.4774390000000  0.4726360000000  0.4117890000000 1.0
C      1  0.5656890000000  0.4434640000000  0.4711360000000 1.0
C      1  0.5656890000000  0.5558210000000  0.4711360000000 1.0
C      1  0.5433460000000  0.5549200000000  0.5477690000000 1.0
C      1  0.5433460000000  0.4443640000000  0.5477690000000 1.0
C      1  0.4555930000000  0.4738850000000  0.5725240000000 1.0
C      1  0.4555930000000  0.5253990000000  0.5725250000000 1.0
C      1  0.4261820000000  0.4814870000000  0.4300350000000 1.0
C      1  0.4261820000000  0.5177990000000  0.4300350000000 1.0
C      1  0.5347060000000  0.5272060000000  0.5043000000000 1.0
C      1  0.5347060000000  0.4720780000000  0.5043000000000 1.0
C      1  0.5916470000000  0.4851980000000  0.5768350000000 1.0
C      1  0.5916470000000  0.5140850000000  0.5768350000000 1.0
C      1  0.5901910000000  0.4848930000000  0.5348630000000 1.0
C      1  0.5901920000000  0.5143900000000  0.5348640000000 1.0
C      1  0.4533780000000  0.5756950000000  0.4398520000000 1.0
C      1  0.4533770000000  0.4235900000000  0.4398510000000 1.0
C      1  0.5460890000000  0.5501790000000  0.5189390000000 1.0
C      1  0.5460890000000  0.4491050000000  0.5189380000000 1.0
C      1  0.5390040000000  0.5144210000000  0.4170130000000 1.0
C      1  0.5390040000000  0.4848650000000  0.4170130000000 1.0
C      1  0.4878120000000  0.4395780000000  0.5494450000000 1.0
C      1  0.4878130000000  0.5597060000000  0.5494460000000 1.0
C      1  0.4510050000000  0.5148240000000  0.4089880000000 1.0
C      1  0.4510050000000  0.4844610000000  0.4089880000000 1.0
C      1  0.5041640000000  0.4048910000000  0.4712360000000 1.0
C      1  0.5041640000000  0.5943930000000  0.4712380000000 1.0
C      1  0.5227750000000  0.5862660000000  0.4499110000000 1.0
C      1  0.5227750000000  0.4130190000000  0.4499100000000 1.0
C      1  0.4958000000000  0.4700090000000  0.5468310000000 1.0
C      1  0.4958000000000  0.5292750000000  0.5468320000000 1.0
C      1  0.5221190000000  0.4683650000000  0.4353620000000 1.0
C      1  0.5221200000000  0.5309200000000  0.4353620000000 1.0
C      1  0.4784100000000  0.4635270000000  0.4588700000000 1.0
C      1  0.4784100000000  0.5357580000000  0.4588710000000 1.0
C      1  0.4556870000000  0.4996420000000  0.5859890000000 1.0
END
