TITL C-862506-1665-1302 11.0521993538269 125000 -1001.5627283391 0 0 173 (C1) n - 1
REM
REM in /home/nfs/bkarasulu/CARBON/AIRSS/Generating-Clusters/TERSOFF/Higher-Symm/FIRE-HFTN
REM
REM
REM
REM
REM
REM ./C.cell (b20cbc046b6831c77cfcea5457e17084)
REM AIRSS Version 0.9.1 bugfix July 2018 build 013d7b7c2542+ Fri, 06 Jul 2018 19:26:36 +0100
REM compiler GCC version 9.2.1 20190827 (Red Hat 9.2.1-1)
REM options -cpp -mtune=generic -march=x86-64 -g -O0 -fpre-include=/usr/include/finclude/math-vector-fortran.h
REM seed 444427405 1565443401 1802860468 -1504170293 278751950 1269402278 1311153109 -6187066 -1520665663 575785482 -1736630774 -1474884329 929295819 -658612478 -460553383 1685813897 -1504846227 1738393714 -1115491381 908519528 -1775987219 -1270182519 -2092722146 468616861 -1280200145 1755780398 1706035011 1164796184 763826265 -657756860 -459152210 434006822 -128065509
REM
CELL 1.54180   50.00000   50.00000   50.00000   90.00000   90.00000   90.00000
LATT -1
SFAC C  
C      1  0.4833670000000  0.4381830000000  0.4647240000000 1.0
C      1  0.4833460000000  0.5190800000000  0.4325390000000 1.0
C      1  0.4706850000000  0.5704010000000  0.5066320000000 1.0
C      1  0.4867720000000  0.5270650000000  0.5631460000000 1.0
C      1  0.4709520000000  0.4384300000000  0.5369450000000 1.0
C      1  0.5278270000000  0.5568580000000  0.4534870000000 1.0
C      1  0.5145560000000  0.4869000000000  0.4332960000000 1.0
C      1  0.5160210000000  0.4274340000000  0.4929910000000 1.0
C      1  0.5220830000000  0.4798010000000  0.5676190000000 1.0
C      1  0.5168820000000  0.5568790000000  0.5441500000000 1.0
C      1  0.5545990000000  0.5055620000000  0.4545340000000 1.0
C      1  0.5549160000000  0.5406180000000  0.4897200000000 1.0
C      1  0.5532260000000  0.5243700000000  0.5385330000000 1.0
C      1  0.5537900000000  0.4710840000000  0.5308070000000 1.0
C      1  0.5523490000000  0.4576400000000  0.4796060000000 1.0
C      1  0.4482930000000  0.4929250000000  0.4540800000000 1.0
C      1  0.4454130000000  0.4524900000000  0.4921940000000 1.0
C      1  0.4449030000000  0.4775550000000  0.5366570000000 1.0
C      1  0.4490890000000  0.5367910000000  0.5355880000000 1.0
C      1  0.4450980000000  0.5354920000000  0.4836600000000 1.0
C      1  0.6015040000000  0.5801290000000  0.5065300000000 1.0
C      1  0.5975410000000  0.5184510000000  0.5740340000000 1.0
C      1  0.5987130000000  0.4321750000000  0.5422590000000 1.0
C      1  0.5963510000000  0.4413730000000  0.4512620000000 1.0
C      1  0.5993660000000  0.5296820000000  0.4259160000000 1.0
C      1  0.4002710000000  0.4192150000000  0.5058240000000 1.0
C      1  0.3987270000000  0.4812220000000  0.5767980000000 1.0
C      1  0.4045600000000  0.5648110000000  0.5415570000000 1.0
C      1  0.4004300000000  0.5591750000000  0.4476380000000 1.0
C      1  0.4039540000000  0.4699690000000  0.4290580000000 1.0
C      1  0.4628860000000  0.5977780000000  0.5043130000000 1.0
C      1  0.4727050000000  0.5264570000000  0.5883630000000 1.0
C      1  0.4609670000000  0.4186960000000  0.5549690000000 1.0
C      1  0.4708060000000  0.4217690000000  0.4448740000000 1.0
C      1  0.4684600000000  0.5297330000000  0.4102880000000 1.0
C      1  0.5314360000000  0.4040840000000  0.4998550000000 1.0
C      1  0.5326390000000  0.4736190000000  0.5933400000000 1.0
C      1  0.5318880000000  0.5778620000000  0.5567210000000 1.0
C      1  0.5383780000000  0.5785930000000  0.4384440000000 1.0
C      1  0.5276330000000  0.4719980000000  0.4123480000000 1.0
C      1  0.4448350000000  0.5752020000000  0.5753560000000 1.0
C      1  0.4420960000000  0.4560150000000  0.5943500000000 1.0
C      1  0.4453020000000  0.3943310000000  0.4885460000000 1.0
C      1  0.4427480000000  0.4805980000000  0.3948590000000 1.0
C      1  0.4463520000000  0.5872290000000  0.4487310000000 1.0
C      1  0.5529670000000  0.4243630000000  0.5689530000000 1.0
C      1  0.5577660000000  0.5451360000000  0.5959410000000 1.0
C      1  0.5559620000000  0.6015230000000  0.4883090000000 1.0
C      1  0.5549440000000  0.5203210000000  0.3970820000000 1.0
C      1  0.5575350000000  0.4048930000000  0.4502990000000 1.0
C      1  0.4426480000000  0.4265740000000  0.4396430000000 1.0
C      1  0.4403820000000  0.5372730000000  0.4133620000000 1.0
C      1  0.4339620000000  0.6000320000000  0.5038590000000 1.0
C      1  0.4448080000000  0.5166510000000  0.5895800000000 1.0
C      1  0.4321640000000  0.4144770000000  0.5548430000000 1.0
C      1  0.5676050000000  0.5791830000000  0.4356630000000 1.0
C      1  0.5553650000000  0.4643420000000  0.4161620000000 1.0
C      1  0.5588930000000  0.4060480000000  0.5097840000000 1.0
C      1  0.5616610000000  0.4759190000000  0.5948120000000 1.0
C      1  0.5600820000000  0.5824490000000  0.5495220000000 1.0
C      1  0.4072730000000  0.4594470000000  0.4566950000000 1.0
C      1  0.3990860000000  0.5296100000000  0.4436150000000 1.0
C      1  0.4060690000000  0.5575820000000  0.5121850000000 1.0
C      1  0.4011750000000  0.5068600000000  0.5621860000000 1.0
C      1  0.3969500000000  0.4409390000000  0.5269860000000 1.0
C      1  0.6026130000000  0.5437490000000  0.4527920000000 1.0
C      1  0.5928300000000  0.4709570000000  0.4498690000000 1.0
C      1  0.6008690000000  0.4368800000000  0.5127260000000 1.0
C      1  0.5940560000000  0.4935300000000  0.5584270000000 1.0
C      1  0.6014590000000  0.5584380000000  0.5273230000000 1.0
C      1  0.4790220000000  0.6132510000000  0.4856120000000 1.0
C      1  0.4820340000000  0.5467410000000  0.6069490000000 1.0
C      1  0.4762020000000  0.4154830000000  0.5794470000000 1.0
C      1  0.4812170000000  0.3947230000000  0.4443720000000 1.0
C      1  0.4788410000000  0.5222930000000  0.3844060000000 1.0
C      1  0.5216820000000  0.3802920000000  0.4865120000000 1.0
C      1  0.5189330000000  0.4509300000000  0.6054370000000 1.0
C      1  0.5214780000000  0.5852610000000  0.5828030000000 1.0
C      1  0.5230310000000  0.6029390000000  0.4432600000000 1.0
C      1  0.5183510000000  0.4783240000000  0.3857050000000 1.0
C      1  0.4900970000000  0.4721610000000  0.3783240000000 1.0
C      1  0.4936740000000  0.6038230000000  0.4358420000000 1.0
C      1  0.4923560000000  0.5928960000000  0.5851020000000 1.0
C      1  0.4898190000000  0.4532760000000  0.6131370000000 1.0
C      1  0.4926600000000  0.3731280000000  0.4903970000000 1.0
C      1  0.5076050000000  0.5283090000000  0.3783070000000 1.0
C      1  0.5099270000000  0.3903270000000  0.4368120000000 1.0
C      1  0.5052590000000  0.4077220000000  0.5786860000000 1.0
C      1  0.5107620000000  0.5461420000000  0.6156020000000 1.0
C      1  0.5079510000000  0.6194450000000  0.4911940000000 1.0
C      1  0.5812290000000  0.5827910000000  0.4844030000000 1.0
C      1  0.5789830000000  0.5416350000000  0.5733410000000 1.0
C      1  0.5768220000000  0.4429190000000  0.5597560000000 1.0
C      1  0.5782540000000  0.4226350000000  0.4659870000000 1.0
C      1  0.5763160000000  0.5110380000000  0.4183270000000 1.0
C      1  0.4233310000000  0.4173360000000  0.4858440000000 1.0
C      1  0.4176440000000  0.4584390000000  0.5743190000000 1.0
C      1  0.4236120000000  0.5554860000000  0.5631650000000 1.0
C      1  0.4216050000000  0.5733100000000  0.4633490000000 1.0
C      1  0.4220150000000  0.4899120000000  0.4160720000000 1.0
C      1  0.4224500000000  0.5268940000000  0.5728260000000 1.0
C      1  0.4128890000000  0.4364890000000  0.5536070000000 1.0
C      1  0.4231850000000  0.4338400000000  0.4602720000000 1.0
C      1  0.4191070000000  0.5191800000000  0.4224220000000 1.0
C      1  0.4177240000000  0.5783190000000  0.4928620000000 1.0
C      1  0.5792180000000  0.4703710000000  0.5718940000000 1.0
C      1  0.5814100000000  0.5621090000000  0.5513020000000 1.0
C      1  0.5862280000000  0.5702740000000  0.4568610000000 1.0
C      1  0.5759980000000  0.4818500000000  0.4272760000000 1.0
C      1  0.5807630000000  0.4198270000000  0.4958560000000 1.0
C      1  0.4759560000000  0.4948260000000  0.4478310000000 1.0
C      1  0.4688420000000  0.5503860000000  0.4847850000000 1.0
C      1  0.4768890000000  0.5400960000000  0.5390820000000 1.0
C      1  0.4707710000000  0.4685560000000  0.5419800000000 1.0
C      1  0.4725210000000  0.4432690000000  0.4916040000000 1.0
C      1  0.5269670000000  0.5084230000000  0.4486520000000 1.0
C      1  0.5252660000000  0.4501560000000  0.4757520000000 1.0
C      1  0.5291870000000  0.4656180000000  0.5429040000000 1.0
C      1  0.5255960000000  0.5290370000000  0.5419640000000 1.0
C      1  0.5311870000000  0.5534330000000  0.4827410000000 1.0
C      1  0.5098000000000  0.5176260000000  0.4726300000000 1.0
C      1  0.5106290000000  0.5580950000000  0.5026380000000 1.0
C      1  0.5082870000000  0.5116230000000  0.5240060000000 1.0
C      1  0.5106180000000  0.4492250000000  0.5284860000000 1.0
C      1  0.5043310000000  0.4694310000000  0.4833800000000 1.0
C      1  0.4943880000000  0.4928100000000  0.4699940000000 1.0
C      1  0.4922610000000  0.4590130000000  0.5071920000000 1.0
C      1  0.4940420000000  0.4879350000000  0.5374630000000 1.0
C      1  0.4938800000000  0.5365350000000  0.5155020000000 1.0
C      1  0.4916290000000  0.5421230000000  0.4687620000000 1.0
C      1  0.4351050000000  0.5185010000000  0.4617260000000 1.0
C      1  0.4351060000000  0.5232760000000  0.5087460000000 1.0
C      1  0.4356700000000  0.5052700000000  0.5385530000000 1.0
C      1  0.4311830000000  0.4628020000000  0.5169090000000 1.0
C      1  0.4378480000000  0.4786820000000  0.4786250000000 1.0
C      1  0.5625390000000  0.4854140000000  0.4758430000000 1.0
C      1  0.5646780000000  0.4569750000000  0.5070400000000 1.0
C      1  0.5635600000000  0.4981740000000  0.5268190000000 1.0
C      1  0.5664200000000  0.5386230000000  0.5159750000000 1.0
C      1  0.5686220000000  0.5265270000000  0.4700750000000 1.0
C      1  0.5940450000000  0.4867120000000  0.4767200000000 1.0
C      1  0.5989370000000  0.5211080000000  0.4784250000000 1.0
C      1  0.5977800000000  0.5280930000000  0.5126280000000 1.0
C      1  0.5943450000000  0.4965150000000  0.5271620000000 1.0
C      1  0.5966380000000  0.4699690000000  0.5055490000000 1.0
C      1  0.4033660000000  0.5132360000000  0.4725510000000 1.0
C      1  0.4062740000000  0.4803460000000  0.4798790000000 1.0
C      1  0.4011110000000  0.4723480000000  0.5131190000000 1.0
C      1  0.4019170000000  0.5030210000000  0.5290730000000 1.0
C      1  0.4039930000000  0.5269590000000  0.5042440000000 1.0
C      1  0.4729440000000  0.5786900000000  0.4304050000000 1.0
C      1  0.4698920000000  0.5913800000000  0.5619010000000 1.0
C      1  0.4676690000000  0.4753500000000  0.6029240000000 1.0
C      1  0.4710610000000  0.3893920000000  0.5082430000000 1.0
C      1  0.4675970000000  0.4598870000000  0.3976240000000 1.0
C      1  0.5319620000000  0.4131430000000  0.4319600000000 1.0
C      1  0.5265150000000  0.4112340000000  0.5544350000000 1.0
C      1  0.5334980000000  0.5256310000000  0.6054200000000 1.0
C      1  0.5296000000000  0.6019290000000  0.5080080000000 1.0
C      1  0.5293690000000  0.5405090000000  0.3986410000000 1.0
C      1  0.5322370000000  0.5675370000000  0.6035770000000 1.0
C      1  0.5278840000000  0.4253350000000  0.5939350000000 1.0
C      1  0.5320440000000  0.3809380000000  0.4588670000000 1.0
C      1  0.5294260000000  0.5043610000000  0.3773250000000 1.0
C      1  0.5310160000000  0.6158300000000  0.4684390000000 1.0
C      1  0.4673620000000  0.4334590000000  0.6006410000000 1.0
C      1  0.4708370000000  0.5729890000000  0.5996060000000 1.0
C      1  0.4707010000000  0.6104310000000  0.4577430000000 1.0
C      1  0.4683680000000  0.4960380000000  0.3763200000000 1.0
C      1  0.4705720000000  0.3796690000000  0.4674300000000 1.0
C      1  0.5508090000000  0.4999750000000  0.4994180000000 1.0
C      1  0.4487070000000  0.4967880000000  0.4995410000000 1.0
C      1  0.5235040000000  0.5097720000000  0.4985610000000 1.0
END
