TITL C-862128-1543-1324 -1.31932013205482e-05 125000 -694.712245616974 0 0 137 (C1) n - 1
REM
REM in /home/nfs/bkarasulu/CARBON/AIRSS/Generating-Clusters/TERSOFF/Higher-Symm/FIRE-HFTN
REM
REM
REM
REM
REM
REM ./C.cell (b20cbc046b6831c77cfcea5457e17084)
REM AIRSS Version 0.9.1 bugfix July 2018 build 013d7b7c2542+ Fri, 06 Jul 2018 19:26:36 +0100
REM compiler GCC version 9.2.1 20190827 (Red Hat 9.2.1-1)
REM options -cpp -mtune=generic -march=x86-64 -g -O0 -fpre-include=/usr/include/finclude/math-vector-fortran.h
REM seed -495700793 828745632 1900559767 84115829 -1170315862 642578162 -982800827 1631549383 -1731692169 797303727 -1574745457 -1716588327 -568777329 -362637335 2021340981 1663624940 1088400522 1778877774 -199784578 974900675 -1844241486 855309134 182802467 -1228544886 -2059715035 -2139585659 1831348403 -295396454 1728920590 291762298 1502134350 2098084702 1052500235
REM
CELL 1.54180   50.00000   50.00000   50.00000   90.00000   90.00000   90.00000
LATT -1
SFAC C  
C      1  0.5594950000000  0.5654860000000  0.4456070000000 1.0
C      1  0.4627200000000  0.5647360000000  0.4282470000000 1.0
C      1  0.4254560000000  0.5674970000000  0.5112160000000 1.0
C      1  0.4850920000000  0.5687550000000  0.5715660000000 1.0
C      1  0.5718870000000  0.5653490000000  0.5370670000000 1.0
C      1  0.5072770000000  0.5732890000000  0.4412170000000 1.0
C      1  0.4417440000000  0.5703100000000  0.4726980000000 1.0
C      1  0.4524540000000  0.5688410000000  0.5452640000000 1.0
C      1  0.5275680000000  0.5728000000000  0.5536600000000 1.0
C      1  0.5685240000000  0.5683940000000  0.4865180000000 1.0
C      1  0.4942630000000  0.4362870000000  0.4303460000000 1.0
C      1  0.4324720000000  0.4361460000000  0.4835090000000 1.0
C      1  0.4646280000000  0.4371730000000  0.5585360000000 1.0
C      1  0.5437250000000  0.4371180000000  0.5532300000000 1.0
C      1  0.5634810000000  0.4359960000000  0.4732970000000 1.0
C      1  0.5859670000000  0.5141100000000  0.4924750000000 1.0
C      1  0.5211730000000  0.5175740000000  0.4178260000000 1.0
C      1  0.4266780000000  0.5159140000000  0.4551880000000 1.0
C      1  0.4348090000000  0.5149280000000  0.5562260000000 1.0
C      1  0.5316790000000  0.5177120000000  0.5792430000000 1.0
C      1  0.5341720000000  0.4875350000000  0.4518360000000 1.0
C      1  0.4646900000000  0.4877200000000  0.4525820000000 1.0
C      1  0.4436520000000  0.4876540000000  0.5189270000000 1.0
C      1  0.5004120000000  0.4887040000000  0.5600670000000 1.0
C      1  0.5564410000000  0.4873660000000  0.5183070000000 1.0
C      1  0.4711490000000  0.4825970000000  0.5704290000000 1.0
C      1  0.5571220000000  0.4827040000000  0.5498010000000 1.0
C      1  0.5634130000000  0.4806630000000  0.4607560000000 1.0
C      1  0.4827350000000  0.4821200000000  0.4271580000000 1.0
C      1  0.4251400000000  0.4811730000000  0.4940440000000 1.0
C      1  0.5168040000000  0.4747390000000  0.5240460000000 1.0
C      1  0.5269180000000  0.4743730000000  0.4915690000000 1.0
C      1  0.4997850000000  0.4744780000000  0.4719500000000 1.0
C      1  0.4727710000000  0.4743770000000  0.4915090000000 1.0
C      1  0.4831810000000  0.4744490000000  0.5236240000000 1.0
C      1  0.4699990000000  0.5054750000000  0.5194380000000 1.0
C      1  0.5088830000000  0.5057360000000  0.5346260000000 1.0
C      1  0.5354860000000  0.5055110000000  0.5024350000000 1.0
C      1  0.5129580000000  0.5055760000000  0.4672980000000 1.0
C      1  0.4724530000000  0.5057280000000  0.4777350000000 1.0
C      1  0.5896830000000  0.4602350000000  0.4954060000000 1.0
C      1  0.5225680000000  0.4619050000000  0.4128390000000 1.0
C      1  0.4244580000000  0.4611890000000  0.4507610000000 1.0
C      1  0.4298720000000  0.4606410000000  0.5565640000000 1.0
C      1  0.5327120000000  0.4623240000000  0.5849530000000 1.0
C      1  0.4205010000000  0.4427160000000  0.5302920000000 1.0
C      1  0.5047960000000  0.4442690000000  0.5849290000000 1.0
C      1  0.5809820000000  0.4430710000000  0.5225870000000 1.0
C      1  0.5455010000000  0.4429360000000  0.4283670000000 1.0
C      1  0.4464780000000  0.4435380000000  0.4331720000000 1.0
C      1  0.4599530000000  0.5157360000000  0.4166740000000 1.0
C      1  0.4073630000000  0.5148460000000  0.5116490000000 1.0
C      1  0.4831610000000  0.5160810000000  0.5926650000000 1.0
C      1  0.5826680000000  0.5153980000000  0.5436620000000 1.0
C      1  0.5677360000000  0.5146230000000  0.4365160000000 1.0
C      1  0.5009340000000  0.5352350000000  0.4016710000000 1.0
C      1  0.4033630000000  0.5302520000000  0.4674120000000 1.0
C      1  0.4381360000000  0.5301920000000  0.5817990000000 1.0
C      1  0.5572490000000  0.5355960000000  0.5804130000000 1.0
C      1  0.5992220000000  0.5268260000000  0.4694310000000 1.0
C      1  0.4513920000000  0.5584400000000  0.5757720000000 1.0
C      1  0.5556560000000  0.5627630000000  0.5619820000000 1.0
C      1  0.5878020000000  0.5549660000000  0.4647580000000 1.0
C      1  0.4905060000000  0.5625330000000  0.4171130000000 1.0
C      1  0.4124980000000  0.5582600000000  0.4798120000000 1.0
C      1  0.4034120000000  0.4493950000000  0.4772540000000 1.0
C      1  0.4494250000000  0.4494100000000  0.5846560000000 1.0
C      1  0.5642210000000  0.4499460000000  0.5752580000000 1.0
C      1  0.5907680000000  0.4488160000000  0.4612550000000 1.0
C      1  0.4915330000000  0.4504150000000  0.4010550000000 1.0
C      1  0.5441950000000  0.5810010000000  0.4713650000000 1.0
C      1  0.4926390000000  0.5912640000000  0.4690660000000 1.0
C      1  0.4560490000000  0.5838150000000  0.5003000000000 1.0
C      1  0.4814140000000  0.5832980000000  0.5386070000000 1.0
C      1  0.5215610000000  0.5914490000000  0.5233990000000 1.0
C      1  0.4492390000000  0.5464050000000  0.5239090000000 1.0
C      1  0.5072930000000  0.5482010000000  0.5559370000000 1.0
C      1  0.5574220000000  0.5516200000000  0.5109390000000 1.0
C      1  0.5275460000000  0.5490070000000  0.4500430000000 1.0
C      1  0.4613560000000  0.5510480000000  0.4582040000000 1.0
C      1  0.5963490000000  0.4889340000000  0.5053670000000 1.0
C      1  0.5343510000000  0.4909180000000  0.4092200000000 1.0
C      1  0.4249370000000  0.4902560000000  0.4390420000000 1.0
C      1  0.4186080000000  0.4896270000000  0.5525770000000 1.0
C      1  0.5256610000000  0.4915070000000  0.5945060000000 1.0
C      1  0.5073780000000  0.4663560000000  0.4402620000000 1.0
C      1  0.4452320000000  0.4662310000000  0.4741620000000 1.0
C      1  0.4586760000000  0.4676560000000  0.5451270000000 1.0
C      1  0.5291580000000  0.4677610000000  0.5539590000000 1.0
C      1  0.5590770000000  0.4659930000000  0.4890680000000 1.0
C      1  0.5904180000000  0.5033600000000  0.4521570000000 1.0
C      1  0.4840280000000  0.5075540000000  0.4012140000000 1.0
C      1  0.3991680000000  0.5048380000000  0.4848620000000 1.0
C      1  0.4549210000000  0.5067290000000  0.5921230000000 1.0
C      1  0.5716830000000  0.5087430000000  0.5705090000000 1.0
C      1  0.5561190000000  0.5234540000000  0.4897610000000 1.0
C      1  0.5058760000000  0.5234770000000  0.4449120000000 1.0
C      1  0.4485370000000  0.5238620000000  0.4756250000000 1.0
C      1  0.4617030000000  0.5225100000000  0.5426860000000 1.0
C      1  0.5288060000000  0.5232600000000  0.5480050000000 1.0
C      1  0.4725640000000  0.4414900000000  0.4948120000000 1.0
C      1  0.4869530000000  0.4418910000000  0.5227640000000 1.0
C      1  0.5178420000000  0.4425140000000  0.5173760000000 1.0
C      1  0.5224290000000  0.4421940000000  0.4863990000000 1.0
C      1  0.4944940000000  0.4417420000000  0.4722050000000 1.0
C      1  0.4351840000000  0.5272630000000  0.5042840000000 1.0
C      1  0.4847830000000  0.5275510000000  0.5635710000000 1.0
C      1  0.5557030000000  0.5269550000000  0.5322910000000 1.0
C      1  0.5493310000000  0.5269200000000  0.4585730000000 1.0
C      1  0.4751680000000  0.5270170000000  0.4416900000000 1.0
C      1  0.5183230000000  0.5599710000000  0.4794440000000 1.0
C      1  0.4848720000000  0.5604460000000  0.4779910000000 1.0
C      1  0.4753030000000  0.5557950000000  0.5075050000000 1.0
C      1  0.5005600000000  0.5553390000000  0.5257070000000 1.0
C      1  0.5272470000000  0.5619790000000  0.5087430000000 1.0
C      1  0.4701720000000  0.4232690000000  0.4435960000000 1.0
C      1  0.4381900000000  0.4232780000000  0.5103300000000 1.0
C      1  0.4921230000000  0.4251610000000  0.5608640000000 1.0
C      1  0.5543360000000  0.4248180000000  0.5280670000000 1.0
C      1  0.5429770000000  0.4236070000000  0.4549740000000 1.0
C      1  0.5207550000000  0.4094480000000  0.4772670000000 1.0
C      1  0.4850440000000  0.4084710000000  0.4722560000000 1.0
C      1  0.4696030000000  0.4082480000000  0.5048860000000 1.0
C      1  0.4957580000000  0.4091530000000  0.5297770000000 1.0
C      1  0.5275240000000  0.4099750000000  0.5127230000000 1.0
C      1  0.4039660000000  0.4616490000000  0.5111130000000 1.0
C      1  0.4812740000000  0.4625980000000  0.5951280000000 1.0
C      1  0.5836490000000  0.4622560000000  0.5479220000000 1.0
C      1  0.5703540000000  0.4613920000000  0.4343230000000 1.0
C      1  0.4598710000000  0.4628440000000  0.4120440000000 1.0
C      1  0.5952680000000  0.4903100000000  0.5340380000000 1.0
C      1  0.5613740000000  0.4904740000000  0.4199870000000 1.0
C      1  0.4431210000000  0.4912350000000  0.4167170000000 1.0
C      1  0.4028300000000  0.4903880000000  0.5283760000000 1.0
C      1  0.4974900000000  0.4915550000000  0.6018600000000 1.0
C      1  0.4903240000000  0.5955130000000  0.5053010000000 1.0
C      1  0.4999330000000  0.5132110000000  0.5003030000000 1.0
END
