TITL C-862132-7359-412 -0.000632837159964373 125000 -192.706657384167 0 0 44 (C1) n - 1
REM
REM in /home/nfs/bkarasulu/CARBON/AIRSS/Generating-Clusters/TERSOFF/Higher-Symm/FIRE-HFTN
REM
REM
REM
REM
REM
REM ./C.cell (b20cbc046b6831c77cfcea5457e17084)
REM AIRSS Version 0.9.1 bugfix July 2018 build 013d7b7c2542+ Fri, 06 Jul 2018 19:26:36 +0100
REM compiler GCC version 9.2.1 20190827 (Red Hat 9.2.1-1)
REM options -cpp -mtune=generic -march=x86-64 -g -O0 -fpre-include=/usr/include/finclude/math-vector-fortran.h
REM seed -2061468525 537690295 -1006400912 -1302619411 365845095 1284062281 -767634861 -1969677496 790321805 221566553 110850102 -2115345021 -670342254 395911708 -883689608 1093270726 534984591 -1324706529 410943788 -137710320 1703926363 1560513436 1095972914 -1477059916 -419987529 -1031937942 1050971641 395496970 -78812642 -1892775262 1736992784 866735188 1578701956
REM
CELL 1.54180   50.00000   50.00000   50.00000   90.00000   90.00000   90.00000
LATT -1
SFAC C  
C      1  0.5417000000000  0.5476260000000  0.5058070000000 1.0
C      1  0.5621900000000  0.4776300000000  0.4907170000000 1.0
C      1  0.4944850000000  0.4342190000000  0.5067570000000 1.0
C      1  0.4335000000000  0.4837320000000  0.5011460000000 1.0
C      1  0.4639790000000  0.5560140000000  0.5002960000000 1.0
C      1  0.4707730000000  0.5059520000000  0.4813260000000 1.0
C      1  0.4973240000000  0.5292960000000  0.4846130000000 1.0
C      1  0.5291920000000  0.5116870000000  0.4880540000000 1.0
C      1  0.5212680000000  0.4769230000000  0.4813100000000 1.0
C      1  0.4847780000000  0.4740870000000  0.4816520000000 1.0
C      1  0.4358080000000  0.5242750000000  0.5117270000000 1.0
C      1  0.5016690000000  0.5649890000000  0.5165040000000 1.0
C      1  0.5694160000000  0.5163140000000  0.5079970000000 1.0
C      1  0.5358790000000  0.4438360000000  0.5170770000000 1.0
C      1  0.4562680000000  0.4493540000000  0.5152370000000 1.0
C      1  0.4767450000000  0.5283560000000  0.5459080000000 1.0
C      1  0.5184670000000  0.5268570000000  0.5502260000000 1.0
C      1  0.5307520000000  0.4890040000000  0.5369450000000 1.0
C      1  0.5029450000000  0.4630190000000  0.5546980000000 1.0
C      1  0.4613190000000  0.4895720000000  0.5505350000000 1.0
C      1  0.4443570000000  0.4740360000000  0.4706730000000 1.0
C      1  0.4599100000000  0.5446200000000  0.4695280000000 1.0
C      1  0.5315340000000  0.5513650000000  0.4747220000000 1.0
C      1  0.5580070000000  0.4932080000000  0.4637700000000 1.0
C      1  0.5057920000000  0.4386840000000  0.4737180000000 1.0
C      1  0.5036090000000  0.4619530000000  0.4462760000000 1.0
C      1  0.4672130000000  0.4851020000000  0.4451500000000 1.0
C      1  0.4797530000000  0.5277460000000  0.4465950000000 1.0
C      1  0.5215530000000  0.5283330000000  0.4503690000000 1.0
C      1  0.5354090000000  0.4892540000000  0.4437480000000 1.0
C      1  0.5108040000000  0.4425100000000  0.5328700000000 1.0
C      1  0.4456970000000  0.4735600000000  0.5288710000000 1.0
C      1  0.4568130000000  0.5398360000000  0.5254540000000 1.0
C      1  0.5229920000000  0.5490660000000  0.5297150000000 1.0
C      1  0.5576630000000  0.4906800000000  0.5191900000000 1.0
C      1  0.4627600000000  0.4531690000000  0.4868700000000 1.0
C      1  0.4432270000000  0.5204400000000  0.4832920000000 1.0
C      1  0.5033930000000  0.5601950000000  0.4868450000000 1.0
C      1  0.5593760000000  0.5202970000000  0.4793410000000 1.0
C      1  0.5320090000000  0.4488010000000  0.4886560000000 1.0
C      1  0.5007930000000  0.4982270000000  0.4494990000000 1.0
C      1  0.4965980000000  0.4981800000000  0.5486070000000 1.0
C      1  0.4998440000000  0.4979620000000  0.4983050000000 1.0
C      1  0.4916980000000  0.4864480000000  0.5217200000000 1.0
END
