TITL C-862506-1665-1472 -3.42306592532906e-06 125000 -641.37829301266 0 0 118 (C4) n - 1
REM
REM in /home/nfs/bkarasulu/CARBON/AIRSS/Generating-Clusters/TERSOFF/Higher-Symm/FIRE-HFTN
REM
REM
REM
REM
REM
REM ./C.cell (b20cbc046b6831c77cfcea5457e17084)
REM AIRSS Version 0.9.1 bugfix July 2018 build 013d7b7c2542+ Fri, 06 Jul 2018 19:26:36 +0100
REM compiler GCC version 9.2.1 20190827 (Red Hat 9.2.1-1)
REM options -cpp -mtune=generic -march=x86-64 -g -O0 -fpre-include=/usr/include/finclude/math-vector-fortran.h
REM seed 483790669 852459507 1896232716 -1525870234 -975017041 -454476337 -1042259478 -360785954 241414985 -457976009 1530927193 -702578190 -1314023809 1229810661 1030496505 1963215547 1531301960 -1918588778 -747077629 -115420388 1038002098 711058561 -1795839765 -1984883800 472624821 1798811077 383752150 -605618942 2102028664 -1786978084 1747163824 214918150 -902493469
REM
CELL 1.54180   50.00000   50.00000   50.00000   90.00000   90.00000   90.00000
LATT -1
SFAC C  
C      1  0.4667450000000  0.4478780000000  0.5507180000000 1.0
C      1  0.4667450000000  0.5507270000000  0.5519870000000 1.0
C      1  0.4667450000000  0.5519960000000  0.4491390000000 1.0
C      1  0.4667450000000  0.4491480000000  0.4478690000000 1.0
C      1  0.5337820000000  0.4478780000000  0.4491390000000 1.0
C      1  0.5337820000000  0.5507270000000  0.4478690000000 1.0
C      1  0.5337820000000  0.5519960000000  0.5507180000000 1.0
C      1  0.5337820000000  0.4491480000000  0.5519870000000 1.0
C      1  0.5254460000000  0.4876810000000  0.4253000000000 1.0
C      1  0.5254460000000  0.4253090000000  0.5121850000000 1.0
C      1  0.5254460000000  0.5121940000000  0.5745560000000 1.0
C      1  0.5254460000000  0.5745650000000  0.4876720000000 1.0
C      1  0.4750800000000  0.4876810000000  0.5745560000000 1.0
C      1  0.4750800000000  0.4253090000000  0.4876720000000 1.0
C      1  0.4750800000000  0.5121940000000  0.4253000000000 1.0
C      1  0.4750800000000  0.5745650000000  0.5121850000000 1.0
C      1  0.5025970000000  0.4193270000000  0.5314270000000 1.0
C      1  0.5025970000000  0.5314360000000  0.5805390000000 1.0
C      1  0.5025970000000  0.5805480000000  0.4684300000000 1.0
C      1  0.5025970000000  0.4684390000000  0.4193180000000 1.0
C      1  0.4979290000000  0.4193270000000  0.4684300000000 1.0
C      1  0.4979290000000  0.5314360000000  0.4193180000000 1.0
C      1  0.4979290000000  0.5805480000000  0.5314270000000 1.0
C      1  0.4979290000000  0.4684390000000  0.5805390000000 1.0
C      1  0.4380000000000  0.4687940000000  0.5070350000000 1.0
C      1  0.4380000000000  0.5070440000000  0.5310720000000 1.0
C      1  0.4380000000000  0.5310810000000  0.4928220000000 1.0
C      1  0.4380000000000  0.4928310000000  0.4687850000000 1.0
C      1  0.5625260000000  0.4687940000000  0.4928220000000 1.0
C      1  0.5625260000000  0.5070440000000  0.4687850000000 1.0
C      1  0.5625260000000  0.5310810000000  0.5070350000000 1.0
C      1  0.5625260000000  0.4928310000000  0.5310720000000 1.0
C      1  0.4257560000000  0.5225980000000  0.4636180000000 1.0
C      1  0.4257560000000  0.4636270000000  0.4772680000000 1.0
C      1  0.4257560000000  0.4772770000000  0.5362390000000 1.0
C      1  0.4257560000000  0.5362480000000  0.5225890000000 1.0
C      1  0.5747700000000  0.5225970000000  0.5362390000000 1.0
C      1  0.5747700000000  0.4636270000000  0.5225890000000 1.0
C      1  0.5747700000000  0.4772770000000  0.4636180000000 1.0
C      1  0.5747700000000  0.5362480000000  0.4772680000000 1.0
C      1  0.4684800000000  0.4937370000000  0.5231490000000 1.0
C      1  0.4684800000000  0.5231580000000  0.5061290000000 1.0
C      1  0.4684800000000  0.5061380000000  0.4767080000000 1.0
C      1  0.4684800000000  0.4767170000000  0.4937280000000 1.0
C      1  0.5320460000000  0.4937370000000  0.4767080000000 1.0
C      1  0.5320460000000  0.5231580000000  0.4937280000000 1.0
C      1  0.5320460000000  0.5061380000000  0.5231490000000 1.0
C      1  0.5320460000000  0.4767170000000  0.5061290000000 1.0
C      1  0.4381110000000  0.4379860000000  0.5081350000000 1.0
C      1  0.4381110000000  0.5081440000000  0.5618800000000 1.0
C      1  0.4381110000000  0.5618890000000  0.4917220000000 1.0
C      1  0.4381110000000  0.4917310000000  0.4379770000000 1.0
C      1  0.5624150000000  0.4379860000000  0.4917220000000 1.0
C      1  0.5624150000000  0.5081440000000  0.4379770000000 1.0
C      1  0.5624150000000  0.5618890000000  0.5081350000000 1.0
C      1  0.5624150000000  0.4917310000000  0.5618800000000 1.0
C      1  0.5237350000000  0.4132950000000  0.4823770000000 1.0
C      1  0.5237350000000  0.4823860000000  0.5865700000000 1.0
C      1  0.5237350000000  0.5865790000000  0.5174790000000 1.0
C      1  0.5237350000000  0.5174880000000  0.4132860000000 1.0
C      1  0.4767910000000  0.4132950000000  0.5174790000000 1.0
C      1  0.4767910000000  0.4823860000000  0.4132860000000 1.0
C      1  0.4767910000000  0.5865790000000  0.4823770000000 1.0
C      1  0.4767910000000  0.5174880000000  0.5865700000000 1.0
C      1  0.3957060000000  0.4806620000000  0.5314030000000 1.0
C      1  0.3957060000000  0.5314120000000  0.5192040000000 1.0
C      1  0.3957060000000  0.5192130000000  0.4684540000000 1.0
C      1  0.3957060000000  0.4684630000000  0.4806530000000 1.0
C      1  0.6048200000000  0.4806620000000  0.4684540000000 1.0
C      1  0.6048200000000  0.5314120000000  0.4806530000000 1.0
C      1  0.6048200000000  0.5192130000000  0.5314030000000 1.0
C      1  0.6048200000000  0.4684630000000  0.5192040000000 1.0
C      1  0.5149710000000  0.5483400000000  0.5018940000000 1.0
C      1  0.5149710000000  0.5019030000000  0.4515260000000 1.0
C      1  0.5149710000000  0.4515350000000  0.4979630000000 1.0
C      1  0.5149710000000  0.4979720000000  0.5483310000000 1.0
C      1  0.4855550000000  0.5483400000000  0.4979630000000 1.0
C      1  0.4855550000000  0.5019030000000  0.5483310000000 1.0
C      1  0.4855550000000  0.4515350000000  0.5018940000000 1.0
C      1  0.4855550000000  0.4979720000000  0.4515260000000 1.0
C      1  0.5462090000000  0.4691680000000  0.5729270000000 1.0
C      1  0.5462090000000  0.5729360000000  0.5306980000000 1.0
C      1  0.5462090000000  0.5307070000000  0.4269300000000 1.0
C      1  0.5462090000000  0.4269390000000  0.4691590000000 1.0
C      1  0.4543170000000  0.4691680000000  0.4269300000000 1.0
C      1  0.4543170000000  0.5729360000000  0.4691590000000 1.0
C      1  0.4543170000000  0.5307070000000  0.5729270000000 1.0
C      1  0.4543170000000  0.4269390000000  0.5306980000000 1.0
C      1  0.5540720000000  0.4732610000000  0.4343160000000 1.0
C      1  0.5540720000000  0.4343250000000  0.5266050000000 1.0
C      1  0.5540720000000  0.5266140000000  0.5655410000000 1.0
C      1  0.5540720000000  0.5655500000000  0.4732520000000 1.0
C      1  0.4464540000000  0.4732610000000  0.5655410000000 1.0
C      1  0.4464540000000  0.4343250000000  0.4732520000000 1.0
C      1  0.4464540000000  0.5266140000000  0.4343160000000 1.0
C      1  0.4464540000000  0.5655500000000  0.5266050000000 1.0
C      1  0.5160190000000  0.4639500000000  0.4694810000000 1.0
C      1  0.5160190000000  0.4694900000000  0.5359160000000 1.0
C      1  0.5160190000000  0.5359250000000  0.5303760000000 1.0
C      1  0.5160190000000  0.5303850000000  0.4639410000000 1.0
C      1  0.4845080000000  0.4639500000000  0.5303760000000 1.0
C      1  0.4845080000000  0.4694900000000  0.4639410000000 1.0
C      1  0.4845080000000  0.5359250000000  0.4694810000000 1.0
C      1  0.4845080000000  0.5303850000000  0.5359160000000 1.0
C      1  0.3854200000000  0.5082640000000  0.5346020000000 1.0
C      1  0.3854200000000  0.5346110000000  0.4916010000000 1.0
C      1  0.3854200000000  0.4916100000000  0.4652550000000 1.0
C      1  0.3854200000000  0.4652640000000  0.5082550000000 1.0
C      1  0.6151060000000  0.5082640000000  0.4652550000000 1.0
C      1  0.6151060000000  0.5346110000000  0.5082550000000 1.0
C      1  0.6151060000000  0.4916100000000  0.5346020000000 1.0
C      1  0.6151060000000  0.4652640000000  0.4916010000000 1.0
C      1  0.5002630000000  0.4391060000000  0.4390970000000 1.0
C      1  0.5002630000000  0.4391060000000  0.5607590000000 1.0
C      1  0.5002630000000  0.5607680000000  0.5607590000000 1.0
C      1  0.5002630000000  0.5607680000000  0.4390970000000 1.0
C      1  0.4243960000000  0.4999370000000  0.4999280000000 1.0
C      1  0.5761310000000  0.4999370000000  0.4999280000000 1.0
END
