TITL C-862132-7359-298 182.789083901429 125000 -322.896997829117 0 0 56 (C2) n - 1
REM
REM in /home/nfs/bkarasulu/CARBON/AIRSS/Generating-Clusters/TERSOFF/Higher-Symm/FIRE-HFTN
REM
REM
REM
REM
REM
REM ./C.cell (b20cbc046b6831c77cfcea5457e17084)
REM AIRSS Version 0.9.1 bugfix July 2018 build 013d7b7c2542+ Fri, 06 Jul 2018 19:26:36 +0100
REM compiler GCC version 9.2.1 20190827 (Red Hat 9.2.1-1)
REM options -cpp -mtune=generic -march=x86-64 -g -O0 -fpre-include=/usr/include/finclude/math-vector-fortran.h
REM seed 541214909 829615427 -1185050438 -693933349 -1186215101 -1828078513 327480440 1512112868 -2085628190 -251004117 54874169 70376578 1845605056 1912262567 -893649859 -2117015317 -1128010609 -1879103734 841005046 1010749680 -839225282 -723773721 -458584205 -297388464 -1580072590 1789562937 -2137137734 542862905 -1288426149 -593307096 -865918421 -948366423 903251388
REM
CELL 1.54180   50.00000   50.00000   50.00000   90.00000   90.00000   90.00000
LATT -1
SFAC C  
C      1  0.5162380000000  0.4279750000000  0.5251670000000 1.0
C      1  0.5114210000000  0.5583040000000  0.5507280000000 1.0
C      1  0.5127380000000  0.5150190000000  0.4254440000000 1.0
C      1  0.4834830000000  0.4244710000000  0.5243950000000 1.0
C      1  0.4782360000000  0.5564230000000  0.5521200000000 1.0
C      1  0.4796090000000  0.5152060000000  0.4251730000000 1.0
C      1  0.5136290000000  0.5750300000000  0.5242500000000 1.0
C      1  0.5189650000000  0.4431120000000  0.5521260000000 1.0
C      1  0.5171820000000  0.4841690000000  0.4251320000000 1.0
C      1  0.4808770000000  0.5715260000000  0.5251330000000 1.0
C      1  0.4857760000000  0.4412300000000  0.5508440000000 1.0
C      1  0.4840540000000  0.4843560000000  0.4255100000000 1.0
C      1  0.4627230000000  0.5290610000000  0.5006020000000 1.0
C      1  0.4589550000000  0.4811410000000  0.4714010000000 1.0
C      1  0.4591110000000  0.4803950000000  0.5283040000000 1.0
C      1  0.5385470000000  0.5360630000000  0.4995780000000 1.0
C      1  0.5401180000000  0.4839970000000  0.4735390000000 1.0
C      1  0.5406200000000  0.4844120000000  0.5267710000000 1.0
C      1  0.4584850000000  0.4634060000000  0.4997530000000 1.0
C      1  0.4568300000000  0.5154390000000  0.4736530000000 1.0
C      1  0.4564990000000  0.5150910000000  0.5268880000000 1.0
C      1  0.5343120000000  0.4704090000000  0.5005230000000 1.0
C      1  0.5379850000000  0.5182920000000  0.4712500000000 1.0
C      1  0.5380130000000  0.5191100000000  0.5281520000000 1.0
C      1  0.4751490000000  0.4384710000000  0.4987930000000 1.0
C      1  0.4716350000000  0.5268920000000  0.5508230000000 1.0
C      1  0.4717270000000  0.5295820000000  0.4507500000000 1.0
C      1  0.5227820000000  0.4429720000000  0.5001910000000 1.0
C      1  0.5208920000000  0.5298830000000  0.5502580000000 1.0
C      1  0.5209410000000  0.5302950000000  0.4497170000000 1.0
C      1  0.4742510000000  0.5564980000000  0.5001970000000 1.0
C      1  0.4763040000000  0.4696500000000  0.5503680000000 1.0
C      1  0.4759300000000  0.4691100000000  0.4498290000000 1.0
C      1  0.5218800000000  0.5609970000000  0.4986390000000 1.0
C      1  0.5255620000000  0.4726420000000  0.5507700000000 1.0
C      1  0.5251470000000  0.4698250000000  0.4507020000000 1.0
C      1  0.5714280000000  0.5210660000000  0.5273050000000 1.0
C      1  0.5713310000000  0.5204600000000  0.4721120000000 1.0
C      1  0.5845940000000  0.4797690000000  0.5001300000000 1.0
C      1  0.4248740000000  0.5095550000000  0.5252500000000 1.0
C      1  0.4250000000000  0.5100770000000  0.4753800000000 1.0
C      1  0.4252180000000  0.4625390000000  0.4997810000000 1.0
C      1  0.5722410000000  0.4899460000000  0.5250250000000 1.0
C      1  0.5719530000000  0.4893610000000  0.4751550000000 1.0
C      1  0.5718140000000  0.5369300000000  0.4994970000000 1.0
C      1  0.4256940000000  0.4784380000000  0.5275680000000 1.0
C      1  0.4256120000000  0.4789740000000  0.4723740000000 1.0
C      1  0.4124400000000  0.5197010000000  0.5003830000000 1.0
C      1  0.4996770000000  0.4857450000000  0.5577080000000 1.0
C      1  0.4975430000000  0.5137970000000  0.5576940000000 1.0
C      1  0.4971060000000  0.5592690000000  0.4824220000000 1.0
C      1  0.4998700000000  0.4401780000000  0.4824930000000 1.0
C      1  0.5002480000000  0.4550980000000  0.4585090000000 1.0
C      1  0.4966510000000  0.5443180000000  0.4584580000000 1.0
C      1  0.3897050000000  0.5376830000000  0.5005110000000 1.0
C      1  0.6073290000000  0.4617860000000  0.5002080000000 1.0
END
