TITL C-862133-5440-728 1.64240500032162e-05 125000 -592.927891491232 0 0 106 (T23) n - 1
REM
REM in /home/nfs/bkarasulu/CARBON/AIRSS/Generating-Clusters/TERSOFF/Higher-Symm/FIRE-HFTN
REM
REM
REM
REM
REM
REM ./C.cell (b20cbc046b6831c77cfcea5457e17084)
REM AIRSS Version 0.9.1 bugfix July 2018 build 013d7b7c2542+ Fri, 06 Jul 2018 19:26:36 +0100
REM compiler GCC version 9.2.1 20190827 (Red Hat 9.2.1-1)
REM options -cpp -mtune=generic -march=x86-64 -g -O0 -fpre-include=/usr/include/finclude/math-vector-fortran.h
REM seed -971783386 -1290892794 -160206442 687668677 925533702 1174297123 -1476642652 17290612 289957486 1480434306 1019989827 -1596497753 577533607 -59594554 -194873223 -884381995 -561363176 -552742561 -365655298 1674095378 -1057310169 685370869 536223251 839384008 -1707571917 1935763749 156957273 525323057 -521479336 488949518 -463461478 -652437350 -307343540
REM
CELL 1.54180   50.00000   50.00000   50.00000   90.00000   90.00000   90.00000
LATT -1
SFAC C  
C      1  0.4584190000000  0.4451630000000  0.4834300000000 1.0
C      1  0.4839490000000  0.4577650000000  0.4452970000000 1.0
C      1  0.4458160000000  0.4832950000000  0.4579000000000 1.0
C      1  0.5434710000000  0.5554200000000  0.4834300000000 1.0
C      1  0.5434710000000  0.4451620000000  0.5174230000000 1.0
C      1  0.4584190000000  0.5554210000000  0.5174230000000 1.0
C      1  0.5179420000000  0.5428180000000  0.4452970000000 1.0
C      1  0.5179420000000  0.4577650000000  0.5555550000000 1.0
C      1  0.4839490000000  0.5428180000000  0.5555550000000 1.0
C      1  0.5560740000000  0.5172880000000  0.4579000000000 1.0
C      1  0.5560740000000  0.4832950000000  0.5429520000000 1.0
C      1  0.4458160000000  0.5172880000000  0.5429530000000 1.0
C      1  0.5010740000000  0.4150430000000  0.5315040000000 1.0
C      1  0.5320230000000  0.5004200000000  0.4151780000000 1.0
C      1  0.4156970000000  0.5313700000000  0.5005550000000 1.0
C      1  0.5008170000000  0.5855400000000  0.5315040000000 1.0
C      1  0.5008170000000  0.4150430000000  0.4693480000000 1.0
C      1  0.5010740000000  0.5855400000000  0.4693480000000 1.0
C      1  0.4698670000000  0.5001630000000  0.4151780000000 1.0
C      1  0.4698680000000  0.5004200000000  0.5856740000000 1.0
C      1  0.5320240000000  0.5001630000000  0.5856740000000 1.0
C      1  0.5861930000000  0.4692130000000  0.5005550000000 1.0
C      1  0.5861930000000  0.5313690000000  0.5002980000000 1.0
C      1  0.4156970000000  0.4692140000000  0.5002980000000 1.0
C      1  0.5605900000000  0.5002520000000  0.4302760000000 1.0
C      1  0.4307950000000  0.5599360000000  0.5003870000000 1.0
C      1  0.5009060000000  0.4301410000000  0.5600710000000 1.0
C      1  0.4413010000000  0.5003310000000  0.4302760000000 1.0
C      1  0.4413010000000  0.5002520000000  0.5705770000000 1.0
C      1  0.5605900000000  0.5003310000000  0.5705770000000 1.0
C      1  0.5710960000000  0.4406470000000  0.5003870000000 1.0
C      1  0.5710960000000  0.5599360000000  0.5004660000000 1.0
C      1  0.4307950000000  0.4406470000000  0.5004660000000 1.0
C      1  0.5009850000000  0.5704420000000  0.5600710000000 1.0
C      1  0.5009850000000  0.4301410000000  0.4407820000000 1.0
C      1  0.5009060000000  0.5704420000000  0.4407820000000 1.0
C      1  0.4486420000000  0.5767860000000  0.4778980000000 1.0
C      1  0.4784170000000  0.4479880000000  0.5769210000000 1.0
C      1  0.5774400000000  0.4777630000000  0.4481230000000 1.0
C      1  0.5532490000000  0.4237970000000  0.4778980000000 1.0
C      1  0.5532490000000  0.5767860000000  0.5229550000000 1.0
C      1  0.4486420000000  0.4237970000000  0.5229550000000 1.0
C      1  0.5234740000000  0.5525950000000  0.5769210000000 1.0
C      1  0.5234730000000  0.4479880000000  0.4239320000000 1.0
C      1  0.4784170000000  0.5525950000000  0.4239320000000 1.0
C      1  0.4244510000000  0.5228200000000  0.4481230000000 1.0
C      1  0.4244510000000  0.4777630000000  0.5527300000000 1.0
C      1  0.5774400000000  0.5228200000000  0.5527300000000 1.0
C      1  0.4695210000000  0.4442150000000  0.5360730000000 1.0
C      1  0.5365920000000  0.4688680000000  0.4443490000000 1.0
C      1  0.4448680000000  0.5359380000000  0.4690030000000 1.0
C      1  0.5323690000000  0.5563680000000  0.5360730000000 1.0
C      1  0.5323690000000  0.4442150000000  0.4647800000000 1.0
C      1  0.4695220000000  0.5563680000000  0.4647800000000 1.0
C      1  0.4652990000000  0.5317150000000  0.4443500000000 1.0
C      1  0.4652990000000  0.4688680000000  0.5565030000000 1.0
C      1  0.5365920000000  0.5317150000000  0.5565030000000 1.0
C      1  0.5570220000000  0.4646450000000  0.4690020000000 1.0
C      1  0.5570220000000  0.5359380000000  0.5318500000000 1.0
C      1  0.4448680000000  0.4646450000000  0.5318500000000 1.0
C      1  0.4965250000000  0.5439890000000  0.4730850000000 1.0
C      1  0.4736050000000  0.4958710000000  0.5441240000000 1.0
C      1  0.5446420000000  0.4729510000000  0.4960060000000 1.0
C      1  0.5053660000000  0.4565940000000  0.4730850000000 1.0
C      1  0.5053660000000  0.5439890000000  0.5277670000000 1.0
C      1  0.4965250000000  0.4565940000000  0.5277670000000 1.0
C      1  0.5282860000000  0.5047120000000  0.5441230000000 1.0
C      1  0.5282860000000  0.4958710000000  0.4567290000000 1.0
C      1  0.4736040000000  0.5047120000000  0.4567290000000 1.0
C      1  0.4572480000000  0.5276320000000  0.4960060000000 1.0
C      1  0.4572480000000  0.4729510000000  0.5048470000000 1.0
C      1  0.5446430000000  0.5276320000000  0.5048470000000 1.0
C      1  0.4213650000000  0.4869350000000  0.4765610000000 1.0
C      1  0.4770800000000  0.4207120000000  0.4870700000000 1.0
C      1  0.4875880000000  0.4764260000000  0.4208470000000 1.0
C      1  0.5805250000000  0.5136480000000  0.4765610000000 1.0
C      1  0.5805250000000  0.4869350000000  0.5242920000000 1.0
C      1  0.4213660000000  0.5136480000000  0.5242920000000 1.0
C      1  0.5248110000000  0.5798710000000  0.4870700000000 1.0
C      1  0.5248110000000  0.4207120000000  0.5137830000000 1.0
C      1  0.4770800000000  0.5798710000000  0.5137830000000 1.0
C      1  0.5143020000000  0.5241570000000  0.4208460000000 1.0
C      1  0.5143020000000  0.4764260000000  0.5800060000000 1.0
C      1  0.4875890000000  0.5241570000000  0.5800060000000 1.0
C      1  0.5262590000000  0.5918230000000  0.5146130000000 1.0
C      1  0.5151320000000  0.5256050000000  0.5919580000000 1.0
C      1  0.5924770000000  0.5144780000000  0.5257400000000 1.0
C      1  0.4756320000000  0.4087600000000  0.5146130000000 1.0
C      1  0.4756320000000  0.5918230000000  0.4862400000000 1.0
C      1  0.5262590000000  0.4087600000000  0.4862400000000 1.0
C      1  0.4867590000000  0.4749780000000  0.5919580000000 1.0
C      1  0.4867590000000  0.5256050000000  0.4088950000000 1.0
C      1  0.5151310000000  0.4749780000000  0.4088950000000 1.0
C      1  0.4094140000000  0.4861050000000  0.5257400000000 1.0
C      1  0.4094140000000  0.5144780000000  0.4751130000000 1.0
C      1  0.5924770000000  0.4861050000000  0.4751130000000 1.0
C      1  0.5009450000000  0.5002920000000  0.5306420000000 1.0
C      1  0.5311610000000  0.5002910000000  0.5004260000000 1.0
C      1  0.5009450000000  0.5305070000000  0.5004260000000 1.0
C      1  0.5009450000000  0.5002920000000  0.4702100000000 1.0
C      1  0.4707290000000  0.5002920000000  0.5004260000000 1.0
C      1  0.5009450000000  0.4700760000000  0.5004260000000 1.0
C      1  0.4577420000000  0.5434950000000  0.5436300000000 1.0
C      1  0.5441490000000  0.4570880000000  0.5436300000000 1.0
C      1  0.5441490000000  0.5434950000000  0.4572230000000 1.0
C      1  0.4577420000000  0.4570880000000  0.4572230000000 1.0
END
