TITL C-862500-986-806 3.500783925263 125000 -1029.94668419799 0 0 177 (C2) n - 1
REM
REM in /home/nfs/bkarasulu/CARBON/AIRSS/Generating-Clusters/TERSOFF/Higher-Symm/FIRE-HFTN
REM
REM
REM
REM
REM
REM ./C.cell (b20cbc046b6831c77cfcea5457e17084)
REM AIRSS Version 0.9.1 bugfix July 2018 build 013d7b7c2542+ Fri, 06 Jul 2018 19:26:36 +0100
REM compiler GCC version 9.2.1 20190827 (Red Hat 9.2.1-1)
REM options -cpp -mtune=generic -march=x86-64 -g -O0 -fpre-include=/usr/include/finclude/math-vector-fortran.h
REM seed 597134584 241951058 2078480711 -1863984309 -325771171 -2026125670 1255853643 1457896730 -1732091079 767568900 358602470 -1690092918 -282533066 1394935375 -1908580311 -290405647 -392658795 1940854399 -1641694223 -341997073 -1129690002 326686413 937498218 -950602742 -1611605719 105529786 225832762 418560570 2092853664 -952542835 1083185655 -432304729 -967216872
REM
CELL 1.54180   50.00000   50.00000   50.00000   90.00000   90.00000   90.00000
LATT -1
SFAC C  
C      1  0.5471450000000  0.4293530000000  0.4135930000000 1.0
C      1  0.4523340000000  0.5706430000000  0.4135900000000 1.0
C      1  0.5259380000000  0.4996910000000  0.5052500000000 1.0
C      1  0.4735410000000  0.5003070000000  0.5052500000000 1.0
C      1  0.4933860000000  0.4259070000000  0.4085450000000 1.0
C      1  0.5060930000000  0.5740880000000  0.4085430000000 1.0
C      1  0.5890260000000  0.4208390000000  0.4770190000000 1.0
C      1  0.4104530000000  0.5791580000000  0.4770160000000 1.0
C      1  0.4504310000000  0.4387210000000  0.5159670000000 1.0
C      1  0.5490470000000  0.5612780000000  0.5159650000000 1.0
C      1  0.6005260000000  0.4901760000000  0.4340570000000 1.0
C      1  0.3989530000000  0.5098200000000  0.4340560000000 1.0
C      1  0.4596310000000  0.5456500000000  0.5854850000000 1.0
C      1  0.5398470000000  0.4543500000000  0.5854870000000 1.0
C      1  0.5322250000000  0.4209060000000  0.4999450000000 1.0
C      1  0.4672530000000  0.5790920000000  0.4999420000000 1.0
C      1  0.4449900000000  0.4954310000000  0.4156940000000 1.0
C      1  0.5544890000000  0.5045640000000  0.4156940000000 1.0
C      1  0.5134540000000  0.5583830000000  0.5469480000000 1.0
C      1  0.4860250000000  0.4416160000000  0.5469500000000 1.0
C      1  0.4317650000000  0.4674240000000  0.4145780000000 1.0
C      1  0.5677140000000  0.5325720000000  0.4145770000000 1.0
C      1  0.4542080000000  0.4092700000000  0.5102800000000 1.0
C      1  0.5452710000000  0.5907280000000  0.5102780000000 1.0
C      1  0.3875310000000  0.5277550000000  0.4545560000000 1.0
C      1  0.6119480000000  0.4722420000000  0.4545570000000 1.0
C      1  0.4354700000000  0.5382670000000  0.4527010000000 1.0
C      1  0.5640090000000  0.4617290000000  0.4527030000000 1.0
C      1  0.5675440000000  0.4763480000000  0.4787800000000 1.0
C      1  0.4319350000000  0.5236490000000  0.4787790000000 1.0
C      1  0.5084990000000  0.4510200000000  0.5319750000000 1.0
C      1  0.4909800000000  0.5489790000000  0.5319740000000 1.0
C      1  0.4751840000000  0.5258600000000  0.5411420000000 1.0
C      1  0.5242950000000  0.4741390000000  0.5411430000000 1.0
C      1  0.4105760000000  0.4877760000000  0.4507650000000 1.0
C      1  0.5889030000000  0.5122200000000  0.4507650000000 1.0
C      1  0.4247370000000  0.6110030000000  0.4754640000000 1.0
C      1  0.5747420000000  0.3889940000000  0.4754680000000 1.0
C      1  0.4684890000000  0.4805820000000  0.4851760000000 1.0
C      1  0.5309890000000  0.5194160000000  0.4851760000000 1.0
C      1  0.4559230000000  0.4779710000000  0.5954820000000 1.0
C      1  0.5435560000000  0.5220290000000  0.5954810000000 1.0
C      1  0.4684610000000  0.5023410000000  0.3986590000000 1.0
C      1  0.5310180000000  0.4976540000000  0.3986590000000 1.0
C      1  0.4940530000000  0.4157110000000  0.4619810000000 1.0
C      1  0.5054260000000  0.5842860000000  0.4619790000000 1.0
C      1  0.4282290000000  0.5183990000000  0.4280940000000 1.0
C      1  0.5712510000000  0.4815970000000  0.4280950000000 1.0
C      1  0.4332730000000  0.5582250000000  0.5840570000000 1.0
C      1  0.5662050000000  0.4417750000000  0.5840590000000 1.0
C      1  0.5105830000000  0.5605000000000  0.5906500000000 1.0
C      1  0.4888950000000  0.4395010000000  0.5906520000000 1.0
C      1  0.5376020000000  0.4231730000000  0.4709360000000 1.0
C      1  0.4618770000000  0.5768240000000  0.4709340000000 1.0
C      1  0.5355570000000  0.4780210000000  0.5683040000000 1.0
C      1  0.4639210000000  0.5219780000000  0.5683030000000 1.0
C      1  0.3862430000000  0.4819990000000  0.4903250000000 1.0
C      1  0.6132360000000  0.5179980000000  0.4903250000000 1.0
C      1  0.5133560000000  0.4925780000000  0.4498590000000 1.0
C      1  0.4861230000000  0.5074180000000  0.4498590000000 1.0
C      1  0.4678020000000  0.5454650000000  0.4172250000000 1.0
C      1  0.5316770000000  0.4545310000000  0.4172270000000 1.0
C      1  0.4997290000000  0.6312780000000  0.4815030000000 1.0
C      1  0.4997500000000  0.3687200000000  0.4815070000000 1.0
C      1  0.3948420000000  0.4871670000000  0.5351480000000 1.0
C      1  0.6046370000000  0.5128320000000  0.5351480000000 1.0
C      1  0.4774520000000  0.5305770000000  0.3939610000000 1.0
C      1  0.5220270000000  0.4694180000000  0.3939610000000 1.0
C      1  0.5452600000000  0.6013010000000  0.4820190000000 1.0
C      1  0.4542190000000  0.3986960000000  0.4820210000000 1.0
C      1  0.5639610000000  0.5822320000000  0.4347210000000 1.0
C      1  0.4355180000000  0.4177640000000  0.4347230000000 1.0
C      1  0.5371110000000  0.6053460000000  0.5327370000000 1.0
C      1  0.4623670000000  0.3946530000000  0.5327390000000 1.0
C      1  0.5815780000000  0.4366710000000  0.4514780000000 1.0
C      1  0.4179010000000  0.5633250000000  0.4514760000000 1.0
C      1  0.5546390000000  0.4038970000000  0.4571670000000 1.0
C      1  0.4448400000000  0.5961000000000  0.4571640000000 1.0
C      1  0.5318020000000  0.5803520000000  0.5775700000000 1.0
C      1  0.4676760000000  0.4196480000000  0.5775720000000 1.0
C      1  0.4465030000000  0.6332120000000  0.4811790000000 1.0
C      1  0.5529760000000  0.3667860000000  0.4811830000000 1.0
C      1  0.4000560000000  0.5147120000000  0.5664080000000 1.0
C      1  0.5994230000000  0.4852880000000  0.5664090000000 1.0
C      1  0.4447230000000  0.4401900000000  0.4168380000000 1.0
C      1  0.5547560000000  0.5598060000000  0.4168370000000 1.0
C      1  0.5353870000000  0.5317770000000  0.4413650000000 1.0
C      1  0.4640920000000  0.4682190000000  0.4413650000000 1.0
C      1  0.5186950000000  0.5936300000000  0.5521880000000 1.0
C      1  0.4807830000000  0.4063690000000  0.5521900000000 1.0
C      1  0.4958580000000  0.4531150000000  0.3953460000000 1.0
C      1  0.5036210000000  0.5468800000000  0.3953450000000 1.0
C      1  0.4614480000000  0.4908940000000  0.4582800000000 1.0
C      1  0.5380310000000  0.5091030000000  0.4582800000000 1.0
C      1  0.5125110000000  0.5478440000000  0.4423500000000 1.0
C      1  0.4869680000000  0.4521520000000  0.4423520000000 1.0
C      1  0.4845550000000  0.5375680000000  0.4432280000000 1.0
C      1  0.5149240000000  0.4624280000000  0.4432290000000 1.0
C      1  0.4089870000000  0.5339210000000  0.5478850000000 1.0
C      1  0.5904910000000  0.4660780000000  0.5478860000000 1.0
C      1  0.6025010000000  0.4330990000000  0.5019260000000 1.0
C      1  0.3969770000000  0.5668990000000  0.5019240000000 1.0
C      1  0.4034720000000  0.4558140000000  0.5326960000000 1.0
C      1  0.5960070000000  0.5441850000000  0.5326950000000 1.0
C      1  0.5518510000000  0.5043620000000  0.5726610000000 1.0
C      1  0.4476270000000  0.4956380000000  0.5726610000000 1.0
C      1  0.4337630000000  0.4959490000000  0.5220340000000 1.0
C      1  0.5657160000000  0.5040500000000  0.5220340000000 1.0
C      1  0.5309610000000  0.4074870000000  0.5873830000000 1.0
C      1  0.4685180000000  0.5925130000000  0.5873800000000 1.0
C      1  0.4922120000000  0.5836310000000  0.4339940000000 1.0
C      1  0.5072670000000  0.4163650000000  0.4339960000000 1.0
C      1  0.5176890000000  0.6088770000000  0.4712720000000 1.0
C      1  0.4817900000000  0.3911210000000  0.4712740000000 1.0
C      1  0.5651960000000  0.5552900000000  0.4777190000000 1.0
C      1  0.4342820000000  0.4447070000000  0.4777200000000 1.0
C      1  0.4973470000000  0.6126660000000  0.5543170000000 1.0
C      1  0.5021310000000  0.3873330000000  0.5543200000000 1.0
C      1  0.3884860000000  0.5352510000000  0.5051510000000 1.0
C      1  0.6109930000000  0.4647470000000  0.5051530000000 1.0
C      1  0.5926640000000  0.5410590000000  0.4962370000000 1.0
C      1  0.4068150000000  0.4589390000000  0.4962380000000 1.0
C      1  0.5089270000000  0.5611850000000  0.4836990000000 1.0
C      1  0.4905510000000  0.4388120000000  0.4837000000000 1.0
C      1  0.5393520000000  0.5461810000000  0.5395600000000 1.0
C      1  0.4601270000000  0.4538180000000  0.5395610000000 1.0
C      1  0.5758330000000  0.4761260000000  0.5250850000000 1.0
C      1  0.4236450000000  0.5238730000000  0.5250840000000 1.0
C      1  0.4541750000000  0.6008220000000  0.5631320000000 1.0
C      1  0.5453040000000  0.3991780000000  0.5631350000000 1.0
C      1  0.4722670000000  0.6271830000000  0.4942890000000 1.0
C      1  0.5272120000000  0.3728150000000  0.4942930000000 1.0
C      1  0.5814550000000  0.5007930000000  0.5820920000000 1.0
C      1  0.4180230000000  0.4992070000000  0.5820910000000 1.0
C      1  0.4336890000000  0.5819320000000  0.4330890000000 1.0
C      1  0.5657900000000  0.4180640000000  0.4330920000000 1.0
C      1  0.5188570000000  0.4338940000000  0.5902860000000 1.0
C      1  0.4806210000000  0.5661060000000  0.5902850000000 1.0
C      1  0.4816780000000  0.4664180000000  0.5986850000000 1.0
C      1  0.5178000000000  0.5335830000000  0.5986840000000 1.0
C      1  0.5631110000000  0.5817600000000  0.4644720000000 1.0
C      1  0.4363680000000  0.4182370000000  0.4644740000000 1.0
C      1  0.4023500000000  0.5308410000000  0.4795100000000 1.0
C      1  0.5971290000000  0.4691560000000  0.4795120000000 1.0
C      1  0.5373850000000  0.4500540000000  0.4585850000000 1.0
C      1  0.4620940000000  0.5499430000000  0.4585830000000 1.0
C      1  0.4279650000000  0.4816170000000  0.4967030000000 1.0
C      1  0.5715140000000  0.5183800000000  0.4967030000000 1.0
C      1  0.4136090000000  0.4431790000000  0.5648910000000 1.0
C      1  0.5858700000000  0.5568200000000  0.5648900000000 1.0
C      1  0.5308020000000  0.3945930000000  0.5128830000000 1.0
C      1  0.4686770000000  0.6054050000000  0.5128800000000 1.0
C      1  0.5277310000000  0.3903860000000  0.5420680000000 1.0
C      1  0.4717470000000  0.6096130000000  0.5420650000000 1.0
C      1  0.4005720000000  0.4534900000000  0.5885310000000 1.0
C      1  0.5989060000000  0.5465100000000  0.5885310000000 1.0
C      1  0.4320460000000  0.4948090000000  0.4699950000000 1.0
C      1  0.5674330000000  0.5051880000000  0.4699950000000 1.0
C      1  0.5765700000000  0.5668010000000  0.5251690000000 1.0
C      1  0.4229090000000  0.4331970000000  0.5251710000000 1.0
C      1  0.4170430000000  0.5584460000000  0.5603960000000 1.0
C      1  0.5824350000000  0.4415540000000  0.5603980000000 1.0
C      1  0.4875730000000  0.5600290000000  0.5051590000000 1.0
C      1  0.5119050000000  0.4399690000000  0.5051600000000 1.0
C      1  0.4481840000000  0.4819090000000  0.5446980000000 1.0
C      1  0.5512940000000  0.5180900000000  0.5446970000000 1.0
C      1  0.5428490000000  0.4751020000000  0.4991350000000 1.0
C      1  0.4566300000000  0.5248960000000  0.4991340000000 1.0
C      1  0.4066420000000  0.4790790000000  0.5989940000000 1.0
C      1  0.5928360000000  0.5209210000000  0.5989940000000 1.0
C      1  0.3837940000000  0.5031190000000  0.5116600000000 1.0
C      1  0.6156850000000  0.4968790000000  0.5116610000000 1.0
C      1  0.4630680000000  0.4521920000000  0.4898160000000 1.0
C      1  0.5364110000000  0.5478060000000  0.4898150000000 1.0
C      1  0.4365440000000  0.4229290000000  0.5694530000000 1.0
C      1  0.5629350000000  0.5770710000000  0.5694510000000 1.0
C      1  0.4997390000000  0.4999990000000  0.5189610000000 1.0
END
