TITL C-862129-6180-224 56.7003159077696 125000 -105.389653607081 0 0 21 (C1) n - 1
REM
REM in /home/nfs/bkarasulu/CARBON/AIRSS/Generating-Clusters/TERSOFF/Higher-Symm/FIRE-HFTN
REM
REM
REM
REM
REM
REM ./C.cell (b20cbc046b6831c77cfcea5457e17084)
REM AIRSS Version 0.9.1 bugfix July 2018 build 013d7b7c2542+ Fri, 06 Jul 2018 19:26:36 +0100
REM compiler GCC version 9.2.1 20190827 (Red Hat 9.2.1-1)
REM options -cpp -mtune=generic -march=x86-64 -g -O0 -fpre-include=/usr/include/finclude/math-vector-fortran.h
REM seed 1878714321 568224404 -1212014609 497435002 15867537 556763276 -977472038 -262081231 -1813958369 -169559749 1838862615 -752279941 1451417808 -738930730 1637264613 1647855395 -629743533 1483649314 1999157795 -1655430376 -399483698 24931703 -917885378 -2102553267 -682968171 -369370847 -1242755817 1534433773 145791611 344229633 636524331 1198574398 -1847063066
REM
CELL 1.54180   50.00000   50.00000   50.00000   90.00000   90.00000   90.00000
LATT -1
SFAC C  
C      1  0.5252640000000  0.5500150000000  0.5174500000000 1.0
C      1  0.5132250000000  0.5337990000000  0.4952430000000 1.0
C      1  0.5188350000000  0.5348300000000  0.4668590000000 1.0
C      1  0.5153500000000  0.5114710000000  0.4493270000000 1.0
C      1  0.5229120000000  0.4835470000000  0.4564350000000 1.0
C      1  0.5093350000000  0.4661040000000  0.4764470000000 1.0
C      1  0.5229510000000  0.4529980000000  0.4995110000000 1.0
C      1  0.5154230000000  0.4555220000000  0.5282240000000 1.0
C      1  0.5189080000000  0.4797980000000  0.5444630000000 1.0
C      1  0.5132630000000  0.5062380000000  0.5341070000000 1.0
C      1  0.5252880000000  0.5325690000000  0.5420510000000 1.0
C      1  0.6126670000000  0.5007050000000  0.5028060000000 1.0
C      1  0.4839260000000  0.4933700000000  0.4958060000000 1.0
C      1  0.5352770000000  0.4930570000000  0.4955320000000 1.0
C      1  0.4326570000000  0.4943200000000  0.4943410000000 1.0
C      1  0.5091140000000  0.5057670000000  0.5045730000000 1.0
C      1  0.3813620000000  0.4946350000000  0.4937790000000 1.0
C      1  0.4580170000000  0.4984420000000  0.5076700000000 1.0
C      1  0.4069380000000  0.5023280000000  0.5049340000000 1.0
C      1  0.5614500000000  0.5001610000000  0.5056450000000 1.0
C      1  0.5865110000000  0.4931820000000  0.4929560000000 1.0
END
