TITL C-862128-1543-372 0.000420122624033017 125000 -555.105185292644 0 0 96 (Cs) n - 1
REM
REM in /home/nfs/bkarasulu/CARBON/AIRSS/Generating-Clusters/TERSOFF/Higher-Symm/FIRE-HFTN
REM
REM
REM
REM
REM
REM ./C.cell (b20cbc046b6831c77cfcea5457e17084)
REM AIRSS Version 0.9.1 bugfix July 2018 build 013d7b7c2542+ Fri, 06 Jul 2018 19:26:36 +0100
REM compiler GCC version 9.2.1 20190827 (Red Hat 9.2.1-1)
REM options -cpp -mtune=generic -march=x86-64 -g -O0 -fpre-include=/usr/include/finclude/math-vector-fortran.h
REM seed 134123856 926607778 -1921351170 -197847683 290284467 657406275 1401066099 -51644712 1311420652 1348307323 1180797814 -813689084 -1244275358 2071287286 -18552014 1302309517 -763862557 962512533 -1074760530 -1729580339 1914236670 -880483068 -1481852299 -2043176681 662367934 1537853519 -1844108804 858175761 1812913298 1308908932 966721882 344294169 -132649105
REM
CELL 1.54180   50.00000   50.00000   50.00000   90.00000   90.00000   90.00000
LATT -1
SFAC C  
C      1  0.5338270000000  0.4712550000000  0.5651490000000 1.0
C      1  0.5379760000000  0.4713030000000  0.4425590000000 1.0
C      1  0.4234990000000  0.4704010000000  0.4930650000000 1.0
C      1  0.5338270000000  0.5287450000000  0.5651490000000 1.0
C      1  0.5379760000000  0.5286970000000  0.4425590000000 1.0
C      1  0.4234990000000  0.5295990000000  0.4930650000000 1.0
C      1  0.5341300000000  0.5555740000000  0.5217670000000 1.0
C      1  0.5006760000000  0.5544600000000  0.4732850000000 1.0
C      1  0.4666340000000  0.5561410000000  0.5117070000000 1.0
C      1  0.5341300000000  0.4444260000000  0.5217670000000 1.0
C      1  0.5006760000000  0.4455400000000  0.4732850000000 1.0
C      1  0.4666340000000  0.4438590000000  0.5117070000000 1.0
C      1  0.5157110000000  0.5153010000000  0.5868900000000 1.0
C      1  0.5665040000000  0.5155900000000  0.4427500000000 1.0
C      1  0.4138150000000  0.5154160000000  0.4661950000000 1.0
C      1  0.5157110000000  0.4846990000000  0.5868900000000 1.0
C      1  0.5665040000000  0.4844100000000  0.4427500000000 1.0
C      1  0.4138150000000  0.4845840000000  0.4661950000000 1.0
C      1  0.5070470000000  0.4279370000000  0.5492990000000 1.0
C      1  0.5383050000000  0.4270170000000  0.4728330000000 1.0
C      1  0.4503740000000  0.4270940000000  0.4767520000000 1.0
C      1  0.5070470000000  0.5720630000000  0.5492990000000 1.0
C      1  0.5383050000000  0.5729830000000  0.4728330000000 1.0
C      1  0.4503740000000  0.5729060000000  0.4767520000000 1.0
C      1  0.5311940000000  0.5155600000000  0.4707060000000 1.0
C      1  0.4509380000000  0.5158810000000  0.4858320000000 1.0
C      1  0.5147810000000  0.5157970000000  0.5432060000000 1.0
C      1  0.5311940000000  0.4844400000000  0.4707060000000 1.0
C      1  0.4509380000000  0.4841190000000  0.4858320000000 1.0
C      1  0.5147810000000  0.4842030000000  0.5432060000000 1.0
C      1  0.4901670000000  0.4723410000000  0.4310030000000 1.0
C      1  0.4417710000000  0.4712140000000  0.5433120000000 1.0
C      1  0.5735210000000  0.4707360000000  0.5282300000000 1.0
C      1  0.4901670000000  0.5276590000000  0.4310030000000 1.0
C      1  0.4417710000000  0.5287860000000  0.5433120000000 1.0
C      1  0.5735210000000  0.5292630000000  0.5282300000000 1.0
C      1  0.5635640000000  0.5585460000000  0.5188440000000 1.0
C      1  0.4875000000000  0.5553650000000  0.4466620000000 1.0
C      1  0.4560500000000  0.5585830000000  0.5391230000000 1.0
C      1  0.5635640000000  0.4414540000000  0.5188440000000 1.0
C      1  0.4875000000000  0.4446350000000  0.4466620000000 1.0
C      1  0.4560490000000  0.4414170000000  0.5391230000000 1.0
C      1  0.4740900000000  0.4202390000000  0.4950290000000 1.0
C      1  0.5163220000000  0.4209120000000  0.5202710000000 1.0
C      1  0.5072790000000  0.4191580000000  0.4895210000000 1.0
C      1  0.4740900000000  0.5797610000000  0.4950290000000 1.0
C      1  0.5163220000000  0.5790880000000  0.5202710000000 1.0
C      1  0.5072790000000  0.5808420000000  0.4895210000000 1.0
C      1  0.4879010000000  0.5259410000000  0.5523400000000 1.0
C      1  0.5577630000000  0.5275200000000  0.4834130000000 1.0
C      1  0.4547920000000  0.5277580000000  0.4575330000000 1.0
C      1  0.4879010000000  0.4740590000000  0.5523400000000 1.0
C      1  0.5577630000000  0.4724800000000  0.4834130000000 1.0
C      1  0.4547920000000  0.4722420000000  0.4575330000000 1.0
C      1  0.5848470000000  0.4826890000000  0.4718480000000 1.0
C      1  0.4342510000000  0.4830610000000  0.4369890000000 1.0
C      1  0.4814060000000  0.4829030000000  0.5819270000000 1.0
C      1  0.5848470000000  0.5173110000000  0.4718480000000 1.0
C      1  0.4342510000000  0.5169390000000  0.4369890000000 1.0
C      1  0.4814060000000  0.5170970000000  0.5819270000000 1.0
C      1  0.5590700000000  0.4426790000000  0.4880400000000 1.0
C      1  0.4585340000000  0.4425500000000  0.4537160000000 1.0
C      1  0.4830350000000  0.4446520000000  0.5526650000000 1.0
C      1  0.5590700000000  0.5573210000000  0.4880400000000 1.0
C      1  0.4585340000000  0.5574500000000  0.4537160000000 1.0
C      1  0.4830350000000  0.5553480000000  0.5526650000000 1.0
C      1  0.4844920000000  0.5147310000000  0.4602450000000 1.0
C      1  0.4687100000000  0.5148710000000  0.5314990000000 1.0
C      1  0.5510290000000  0.5148080000000  0.5102630000000 1.0
C      1  0.4844920000000  0.4852690000000  0.4602450000000 1.0
C      1  0.4687100000000  0.4851290000000  0.5314990000000 1.0
C      1  0.5510290000000  0.4851920000000  0.5102630000000 1.0
C      1  0.4641220000000  0.4844780000000  0.4184580000000 1.0
C      1  0.4483960000000  0.4845170000000  0.5710950000000 1.0
C      1  0.5928640000000  0.4845990000000  0.5066240000000 1.0
C      1  0.4641220000000  0.5155220000000  0.4184580000000 1.0
C      1  0.4483960000000  0.5154830000000  0.5710950000000 1.0
C      1  0.5928640000000  0.5154010000000  0.5066240000000 1.0
C      1  0.4731430000000  0.5277040000000  0.5032750000000 1.0
C      1  0.5235460000000  0.5277620000000  0.5164530000000 1.0
C      1  0.5031300000000  0.5272000000000  0.4874010000000 1.0
C      1  0.4731430000000  0.4722960000000  0.5032750000000 1.0
C      1  0.5235460000000  0.4722380000000  0.5164530000000 1.0
C      1  0.5031300000000  0.4728000000000  0.4874010000000 1.0
C      1  0.5359210000000  0.5590290000000  0.4460370000000 1.0
C      1  0.4269830000000  0.5598200000000  0.4907630000000 1.0
C      1  0.5299010000000  0.5589010000000  0.5642560000000 1.0
C      1  0.5359210000000  0.4409710000000  0.4460370000000 1.0
C      1  0.4269830000000  0.4401800000000  0.4907630000000 1.0
C      1  0.5299010000000  0.4410990000000  0.5642560000000 1.0
C      1  0.5171270000000  0.4846980000000  0.4250750000000 1.0
C      1  0.4226550000000  0.4844710000000  0.5216410000000 1.0
C      1  0.5607070000000  0.4845910000000  0.5544510000000 1.0
C      1  0.5171270000000  0.5153020000000  0.4250750000000 1.0
C      1  0.4226550000000  0.5155290000000  0.5216410000000 1.0
C      1  0.5607070000000  0.5154090000000  0.5544510000000 1.0
END
