TITL C-862130-1496-1068 -0.0769387678937276 125000 -617.725770436398 0 0 117 (C2) n - 1
REM
REM in /home/nfs/bkarasulu/CARBON/AIRSS/Generating-Clusters/TERSOFF/Higher-Symm/FIRE-HFTN
REM
REM
REM
REM
REM
REM ./C.cell (b20cbc046b6831c77cfcea5457e17084)
REM AIRSS Version 0.9.1 bugfix July 2018 build 013d7b7c2542+ Fri, 06 Jul 2018 19:26:36 +0100
REM compiler GCC version 9.2.1 20190827 (Red Hat 9.2.1-1)
REM options -cpp -mtune=generic -march=x86-64 -g -O0 -fpre-include=/usr/include/finclude/math-vector-fortran.h
REM seed -473348580 -335638942 790753627 -1802531072 -1970497309 674863824 348250102 1687860474 -1882939045 1632730401 -54995193 -483327095 -857275405 2037809206 2005897762 -2081570634 -2125639123 1583686811 1952059698 -698940119 -803220506 -481673074 -1359970586 1818723697 -1284376660 -207211109 677319675 -192728426 1435615591 -43526425 345238220 -1697615012 175542754
REM
CELL 1.54180   50.00000   50.00000   50.00000   90.00000   90.00000   90.00000
LATT -1
SFAC C  
C      1  0.5559460000000  0.4708990000000  0.4583750000000 1.0
C      1  0.5559990000000  0.5514870000000  0.4960780000000 1.0
C      1  0.5557090000000  0.4786890000000  0.5467110000000 1.0
C      1  0.4433860000000  0.5298110000000  0.4581980000000 1.0
C      1  0.4431470000000  0.4494040000000  0.4955970000000 1.0
C      1  0.4430970000000  0.5223360000000  0.5465570000000 1.0
C      1  0.5022960000000  0.4697190000000  0.4414690000000 1.0
C      1  0.5022920000000  0.5666690000000  0.5031540000000 1.0
C      1  0.5018240000000  0.4648670000000  0.5560160000000 1.0
C      1  0.4972710000000  0.5309610000000  0.4415750000000 1.0
C      1  0.4967960000000  0.4341700000000  0.5030230000000 1.0
C      1  0.4968050000000  0.5360500000000  0.5561700000000 1.0
C      1  0.4395300000000  0.4329360000000  0.5436150000000 1.0
C      1  0.4401710000000  0.4965140000000  0.4198530000000 1.0
C      1  0.4399590000000  0.5722230000000  0.5367860000000 1.0
C      1  0.5591390000000  0.5679550000000  0.5441720000000 1.0
C      1  0.5595640000000  0.5042600000000  0.4201130000000 1.0
C      1  0.5589220000000  0.4288350000000  0.5370330000000 1.0
C      1  0.4822180000000  0.5847750000000  0.5352870000000 1.0
C      1  0.4817870000000  0.4279670000000  0.5555050000000 1.0
C      1  0.4824320000000  0.4887080000000  0.4097180000000 1.0
C      1  0.5166610000000  0.4161570000000  0.5353380000000 1.0
C      1  0.5168810000000  0.5729300000000  0.5557940000000 1.0
C      1  0.5173070000000  0.5120770000000  0.4098680000000 1.0
C      1  0.4705960000000  0.4192060000000  0.4719760000000 1.0
C      1  0.4710460000000  0.5652930000000  0.4439980000000 1.0
C      1  0.4704260000000  0.5167210000000  0.5844440000000 1.0
C      1  0.5286710000000  0.5814980000000  0.4722810000000 1.0
C      1  0.5284950000000  0.4353480000000  0.4440230000000 1.0
C      1  0.5280500000000  0.4841220000000  0.5845410000000 1.0
C      1  0.5259160000000  0.4936870000000  0.5328900000000 1.0
C      1  0.5259910000000  0.4753050000000  0.4780570000000 1.0
C      1  0.5262010000000  0.5320350000000  0.4899160000000 1.0
C      1  0.4728950000000  0.5072760000000  0.5327880000000 1.0
C      1  0.4731790000000  0.5253340000000  0.4780960000000 1.0
C      1  0.4731030000000  0.4686530000000  0.4895760000000 1.0
C      1  0.5198410000000  0.4471500000000  0.5355690000000 1.0
C      1  0.5203650000000  0.4963170000000  0.4365610000000 1.0
C      1  0.5201380000000  0.5576720000000  0.5288450000000 1.0
C      1  0.4789590000000  0.5538070000000  0.5355390000000 1.0
C      1  0.4792530000000  0.5043970000000  0.4364480000000 1.0
C      1  0.4787290000000  0.4432120000000  0.5285140000000 1.0
C      1  0.4891050000000  0.3995470000000  0.5254680000000 1.0
C      1  0.4897830000000  0.5289720000000  0.4003240000000 1.0
C      1  0.4892490000000  0.5728310000000  0.5749270000000 1.0
C      1  0.5098500000000  0.6012970000000  0.5256380000000 1.0
C      1  0.5099870000000  0.4718570000000  0.4002630000000 1.0
C      1  0.5093110000000  0.4281420000000  0.5749080000000 1.0
C      1  0.4564720000000  0.5864740000000  0.4889860000000 1.0
C      1  0.4558250000000  0.4672510000000  0.5798750000000 1.0
C      1  0.4563340000000  0.4479170000000  0.4313020000000 1.0
C      1  0.5427570000000  0.4144660000000  0.4892180000000 1.0
C      1  0.5426250000000  0.5336740000000  0.5804040000000 1.0
C      1  0.5432700000000  0.5528170000000  0.4317150000000 1.0
C      1  0.5930410000000  0.4999280000000  0.4724010000000 1.0
C      1  0.5949650000000  0.5080130000000  0.5076310000000 1.0
C      1  0.5929500000000  0.4734890000000  0.4975000000000 1.0
C      1  0.4061430000000  0.4845890000000  0.4782890000000 1.0
C      1  0.4060530000000  0.4760620000000  0.5137320000000 1.0
C      1  0.4041300000000  0.5106170000000  0.5031290000000 1.0
C      1  0.4476520000000  0.5665840000000  0.5090620000000 1.0
C      1  0.4470740000000  0.4598230000000  0.5525710000000 1.0
C      1  0.4477220000000  0.4752870000000  0.4385930000000 1.0
C      1  0.5513710000000  0.4344590000000  0.5092820000000 1.0
C      1  0.5514460000000  0.5411240000000  0.5531430000000 1.0
C      1  0.5520210000000  0.5254540000000  0.4389260000000 1.0
C      1  0.4298440000000  0.4415370000000  0.4707970000000 1.0
C      1  0.4301380000000  0.5552840000000  0.4636590000000 1.0
C      1  0.4296160000000  0.5048560000000  0.5656860000000 1.0
C      1  0.5694810000000  0.5593190000000  0.4713780000000 1.0
C      1  0.5692480000000  0.4454850000000  0.4639540000000 1.0
C      1  0.5689580000000  0.4961490000000  0.5660450000000 1.0
C      1  0.5627400000000  0.5148140000000  0.5149040000000 1.0
C      1  0.5612530000000  0.4809330000000  0.5052210000000 1.0
C      1  0.5615610000000  0.5054640000000  0.4814500000000 1.0
C      1  0.4375340000000  0.4866650000000  0.5140040000000 1.0
C      1  0.4363550000000  0.5203150000000  0.5053840000000 1.0
C      1  0.4378410000000  0.4949960000000  0.4808760000000 1.0
C      1  0.4619360000000  0.4877390000000  0.4633500000000 1.0
C      1  0.4617600000000  0.5388630000000  0.5075780000000 1.0
C      1  0.4613690000000  0.4748270000000  0.5293360000000 1.0
C      1  0.5377250000000  0.5128280000000  0.4635340000000 1.0
C      1  0.5371580000000  0.4621270000000  0.5076950000000 1.0
C      1  0.5373360000000  0.5259840000000  0.5298740000000 1.0
C      1  0.5556970000000  0.4502310000000  0.5570440000000 1.0
C      1  0.5562470000000  0.4762020000000  0.4285560000000 1.0
C      1  0.5561010000000  0.5746300000000  0.5156030000000 1.0
C      1  0.4429960000000  0.5508130000000  0.5568460000000 1.0
C      1  0.4433970000000  0.5245390000000  0.4283850000000 1.0
C      1  0.4428460000000  0.4262260000000  0.5150930000000 1.0
C      1  0.4847100000000  0.4499290000000  0.4255970000000 1.0
C      1  0.4848340000000  0.5903250000000  0.4937720000000 1.0
C      1  0.4841590000000  0.4611770000000  0.5810500000000 1.0
C      1  0.5149360000000  0.5508010000000  0.4258670000000 1.0
C      1  0.5143820000000  0.4105310000000  0.4938130000000 1.0
C      1  0.5142640000000  0.5397450000000  0.5813490000000 1.0
C      1  0.4647270000000  0.4072510000000  0.5049500000000 1.0
C      1  0.4653230000000  0.5428370000000  0.4171790000000 1.0
C      1  0.4647650000000  0.5513490000000  0.5784410000000 1.0
C      1  0.5343330000000  0.5936040000000  0.5052740000000 1.0
C      1  0.5343640000000  0.4579350000000  0.4171890000000 1.0
C      1  0.5337720000000  0.4496700000000  0.5784930000000 1.0
C      1  0.4878920000000  0.4442870000000  0.4779410000000 1.0
C      1  0.4881740000000  0.5475550000000  0.4628620000000 1.0
C      1  0.4877240000000  0.5092860000000  0.5597230000000 1.0
C      1  0.5113720000000  0.5563700000000  0.4781960000000 1.0
C      1  0.5112000000000  0.4530500000000  0.4627670000000 1.0
C      1  0.5109220000000  0.4915980000000  0.5597500000000 1.0
C      1  0.5513310000000  0.5727780000000  0.4526180000000 1.0
C      1  0.5506620000000  0.5055150000000  0.5870490000000 1.0
C      1  0.5510030000000  0.4225860000000  0.4615200000000 1.0
C      1  0.4480880000000  0.4279840000000  0.4521780000000 1.0
C      1  0.4477650000000  0.4953320000000  0.5867190000000 1.0
C      1  0.4484350000000  0.5781570000000  0.4612750000000 1.0
C      1  0.4995480000000  0.5213110000000  0.5123080000000 1.0
C      1  0.4993600000000  0.4796390000000  0.5122890000000 1.0
C      1  0.4997340000000  0.5004680000000  0.4762220000000 1.0
END
