TITL C-862134-6730-1394 6.39986187235391 125000 -1176.45733301666 0 0 186 (C2) n - 1
REM
REM in /home/nfs/bkarasulu/CARBON/AIRSS/Generating-Clusters/TERSOFF/Higher-Symm/FIRE-HFTN
REM
REM
REM
REM
REM
REM ./C.cell (b20cbc046b6831c77cfcea5457e17084)
REM AIRSS Version 0.9.1 bugfix July 2018 build 013d7b7c2542+ Fri, 06 Jul 2018 19:26:36 +0100
REM compiler GCC version 9.2.1 20190827 (Red Hat 9.2.1-1)
REM options -cpp -mtune=generic -march=x86-64 -g -O0 -fpre-include=/usr/include/finclude/math-vector-fortran.h
REM seed -981311106 260738059 239778968 -428323011 -389797660 -1161763263 2115270381 -344913382 1694368374 -1820094811 368293100 471274999 950633915 -2264343 929725724 2015625830 -2011351912 715677832 -1014519409 -962022361 611376 2134486924 -1040637267 22675314 1672970983 1650112421 1292716206 1889506690 -2022052901 -1626893380 -1213924306 612462167 1322751777
REM
CELL 1.54180   50.00000   50.00000   50.00000   90.00000   90.00000   90.00000
LATT -1
SFAC C  
C      1  0.4629540000000  0.3933530000000  0.5305760000000 1.0
C      1  0.4575930000000  0.4169520000000  0.4178760000000 1.0
C      1  0.4571110000000  0.5295510000000  0.3872510000000 1.0
C      1  0.4629540000000  0.6066470000000  0.4694240000000 1.0
C      1  0.4575930000000  0.5830480000000  0.5821240000000 1.0
C      1  0.4571110000000  0.4704490000000  0.6127490000000 1.0
C      1  0.5364190000000  0.6067520000000  0.5309250000000 1.0
C      1  0.5423490000000  0.5832590000000  0.4180820000000 1.0
C      1  0.5368310000000  0.4735020000000  0.3922510000000 1.0
C      1  0.5364190000000  0.3932480000000  0.4690750000000 1.0
C      1  0.5423490000000  0.4167410000000  0.5819180000000 1.0
C      1  0.5368310000000  0.5264980000000  0.6077490000000 1.0
C      1  0.3691120000000  0.5196700000000  0.4781890000000 1.0
C      1  0.3690580000000  0.5287470000000  0.5061220000000 1.0
C      1  0.3691260000000  0.5090800000000  0.5279340000000 1.0
C      1  0.3691120000000  0.4803300000000  0.5218110000000 1.0
C      1  0.3690580000000  0.4712530000000  0.4938780000000 1.0
C      1  0.3691260000000  0.4909200000000  0.4720660000000 1.0
C      1  0.6304410000000  0.4804510000000  0.4780680000000 1.0
C      1  0.6304080000000  0.4712270000000  0.5059380000000 1.0
C      1  0.6303570000000  0.4907760000000  0.5278720000000 1.0
C      1  0.6304410000000  0.5195490000000  0.5219320000000 1.0
C      1  0.6304080000000  0.5287730000000  0.4940620000000 1.0
C      1  0.6303570000000  0.5092250000000  0.4721280000000 1.0
C      1  0.5606410000000  0.5125620000000  0.5257350000000 1.0
C      1  0.5605540000000  0.4839220000000  0.5237260000000 1.0
C      1  0.5606600000000  0.4714460000000  0.4980230000000 1.0
C      1  0.5606410000000  0.4874380000000  0.4742650000000 1.0
C      1  0.5605540000000  0.5160780000000  0.4762740000000 1.0
C      1  0.5606600000000  0.5285540000000  0.5019770000000 1.0
C      1  0.4393580000000  0.4875160000000  0.5258120000000 1.0
C      1  0.4393330000000  0.5160910000000  0.5237170000000 1.0
C      1  0.4392510000000  0.5285620000000  0.4979940000000 1.0
C      1  0.4393580000000  0.5124840000000  0.4741880000000 1.0
C      1  0.4393330000000  0.4839090000000  0.4762830000000 1.0
C      1  0.4392510000000  0.4714380000000  0.5020060000000 1.0
C      1  0.6002000000000  0.5464080000000  0.4583860000000 1.0
C      1  0.6000960000000  0.5594580000000  0.5193360000000 1.0
C      1  0.6002130000000  0.5132500000000  0.5609560000000 1.0
C      1  0.6002000000000  0.4535920000000  0.5416140000000 1.0
C      1  0.6000960000000  0.4405420000000  0.4806640000000 1.0
C      1  0.6002130000000  0.4867500000000  0.4390440000000 1.0
C      1  0.3994700000000  0.4538080000000  0.4581420000000 1.0
C      1  0.3994570000000  0.4405230000000  0.5187230000000 1.0
C      1  0.3993660000000  0.4866730000000  0.5607220000000 1.0
C      1  0.3994700000000  0.5461920000000  0.5418580000000 1.0
C      1  0.3994570000000  0.5594770000000  0.4812770000000 1.0
C      1  0.3993660000000  0.5133270000000  0.4392780000000 1.0
C      1  0.4454920000000  0.5565700000000  0.4956050000000 1.0
C      1  0.4456060000000  0.5327140000000  0.5465580000000 1.0
C      1  0.4454410000000  0.4759150000000  0.5515900000000 1.0
C      1  0.4454920000000  0.4434300000000  0.5043950000000 1.0
C      1  0.4456060000000  0.4672860000000  0.4534420000000 1.0
C      1  0.4454410000000  0.5240850000000  0.4484100000000 1.0
C      1  0.5541790000000  0.4434660000000  0.4954210000000 1.0
C      1  0.5542330000000  0.4672240000000  0.5465430000000 1.0
C      1  0.5543420000000  0.5244560000000  0.5512230000000 1.0
C      1  0.5541790000000  0.5565340000000  0.5045790000000 1.0
C      1  0.5542330000000  0.5327760000000  0.4534570000000 1.0
C      1  0.5543420000000  0.4755440000000  0.4487770000000 1.0
C      1  0.5611720000000  0.5925400000000  0.5403360000000 1.0
C      1  0.5617200000000  0.5117150000000  0.5998990000000 1.0
C      1  0.5624870000000  0.4184170000000  0.5599200000000 1.0
C      1  0.5611720000000  0.4074600000000  0.4596640000000 1.0
C      1  0.5617200000000  0.4882850000000  0.4001010000000 1.0
C      1  0.5624870000000  0.5815830000000  0.4400800000000 1.0
C      1  0.4380240000000  0.4074860000000  0.5395090000000 1.0
C      1  0.4367950000000  0.4883360000000  0.6001880000000 1.0
C      1  0.4372910000000  0.5813810000000  0.5602080000000 1.0
C      1  0.4380240000000  0.5925140000000  0.4604910000000 1.0
C      1  0.4367950000000  0.5116640000000  0.3998120000000 1.0
C      1  0.4372910000000  0.4186190000000  0.4397920000000 1.0
C      1  0.5359310000000  0.3841050000000  0.4966050000000 1.0
C      1  0.5360770000000  0.4450450000000  0.3978280000000 1.0
C      1  0.5393920000000  0.5613480000000  0.3991710000000 1.0
C      1  0.5359310000000  0.6158950000000  0.5033950000000 1.0
C      1  0.5360770000000  0.5549550000000  0.6021720000000 1.0
C      1  0.5393920000000  0.4386520000000  0.6008290000000 1.0
C      1  0.4638400000000  0.6158560000000  0.4969210000000 1.0
C      1  0.4603480000000  0.5568550000000  0.3966920000000 1.0
C      1  0.4609910000000  0.4389910000000  0.3991560000000 1.0
C      1  0.4638400000000  0.3841440000000  0.5030790000000 1.0
C      1  0.4603480000000  0.4431450000000  0.6033080000000 1.0
C      1  0.4609910000000  0.5610090000000  0.6008440000000 1.0
C      1  0.3874930000000  0.4833850000000  0.4489990000000 1.0
C      1  0.3874620000000  0.5359340000000  0.4601880000000 1.0
C      1  0.3873460000000  0.5524880000000  0.5111610000000 1.0
C      1  0.3874930000000  0.5166150000000  0.5510010000000 1.0
C      1  0.3874620000000  0.4640660000000  0.5398120000000 1.0
C      1  0.3873460000000  0.4475120000000  0.4888390000000 1.0
C      1  0.6120530000000  0.5168600000000  0.4490390000000 1.0
C      1  0.6122320000000  0.4642570000000  0.4599230000000 1.0
C      1  0.6121610000000  0.4473940000000  0.5108040000000 1.0
C      1  0.6120530000000  0.4831400000000  0.5509610000000 1.0
C      1  0.6122320000000  0.5357430000000  0.5400770000000 1.0
C      1  0.6121610000000  0.5526060000000  0.4891960000000 1.0
C      1  0.5226220000000  0.6054030000000  0.4179530000000 1.0
C      1  0.5107150000000  0.5980120000000  0.5434670000000 1.0
C      1  0.5113250000000  0.5109010000000  0.6060970000000 1.0
C      1  0.5226220000000  0.3945970000000  0.5820470000000 1.0
C      1  0.5107150000000  0.4019880000000  0.4565330000000 1.0
C      1  0.5113250000000  0.4890990000000  0.3939030000000 1.0
C      1  0.4769260000000  0.3944780000000  0.4175360000000 1.0
C      1  0.4884240000000  0.4023700000000  0.5434360000000 1.0
C      1  0.4766990000000  0.4816870000000  0.6319910000000 1.0
C      1  0.4769260000000  0.6055220000000  0.5824640000000 1.0
C      1  0.4884240000000  0.5976300000000  0.4565640000000 1.0
C      1  0.4766990000000  0.5183130000000  0.3680090000000 1.0
C      1  0.4790290000000  0.4991860000000  0.4709970000000 1.0
C      1  0.4788670000000  0.5246750000000  0.4847140000000 1.0
C      1  0.4790210000000  0.5254110000000  0.5137730000000 1.0
C      1  0.4790290000000  0.5008140000000  0.5290030000000 1.0
C      1  0.4788670000000  0.4753250000000  0.5152860000000 1.0
C      1  0.4790210000000  0.4745890000000  0.4862270000000 1.0
C      1  0.5209750000000  0.5007270000000  0.4709730000000 1.0
C      1  0.5209710000000  0.4753000000000  0.4849500000000 1.0
C      1  0.5208150000000  0.4746580000000  0.5139350000000 1.0
C      1  0.5209750000000  0.4992730000000  0.5290270000000 1.0
C      1  0.5209710000000  0.5247000000000  0.5150500000000 1.0
C      1  0.5208150000000  0.5253420000000  0.4860650000000 1.0
C      1  0.5723260000000  0.5715500000000  0.5211320000000 1.0
C      1  0.5726340000000  0.5179930000000  0.5723180000000 1.0
C      1  0.5726490000000  0.4457270000000  0.5511770000000 1.0
C      1  0.5723260000000  0.4284500000000  0.4788680000000 1.0
C      1  0.5726340000000  0.4820070000000  0.4276820000000 1.0
C      1  0.5726490000000  0.5542730000000  0.4488230000000 1.0
C      1  0.4270990000000  0.4283270000000  0.5203530000000 1.0
C      1  0.4268130000000  0.4821730000000  0.5723250000000 1.0
C      1  0.4270960000000  0.5540750000000  0.5513990000000 1.0
C      1  0.4270990000000  0.5716730000000  0.4796470000000 1.0
C      1  0.4268130000000  0.5178270000000  0.4276750000000 1.0
C      1  0.4270960000000  0.4459250000000  0.4486010000000 1.0
C      1  0.5409510000000  0.5333110000000  0.4061460000000 1.0
C      1  0.5385780000000  0.5974560000000  0.4813610000000 1.0
C      1  0.5387110000000  0.5649110000000  0.5752420000000 1.0
C      1  0.5409510000000  0.4666890000000  0.5938540000000 1.0
C      1  0.5385780000000  0.4025440000000  0.5186390000000 1.0
C      1  0.5387110000000  0.4350890000000  0.4247580000000 1.0
C      1  0.4591970000000  0.4670040000000  0.4062240000000 1.0
C      1  0.4611850000000  0.4026000000000  0.4810690000000 1.0
C      1  0.4588450000000  0.4351440000000  0.5755720000000 1.0
C      1  0.4591970000000  0.5329960000000  0.5937760000000 1.0
C      1  0.4611850000000  0.5974000000000  0.5189310000000 1.0
C      1  0.4588450000000  0.5648560000000  0.4244280000000 1.0
C      1  0.4416930000000  0.6015340000000  0.5397710000000 1.0
C      1  0.4403010000000  0.5160400000000  0.6073540000000 1.0
C      1  0.4400700000000  0.4148610000000  0.5673480000000 1.0
C      1  0.4416930000000  0.3984660000000  0.4602290000000 1.0
C      1  0.4403010000000  0.4839600000000  0.3926460000000 1.0
C      1  0.4400700000000  0.5851390000000  0.4326520000000 1.0
C      1  0.5580490000000  0.3983290000000  0.5394630000000 1.0
C      1  0.5597270000000  0.4839110000000  0.6073370000000 1.0
C      1  0.5581560000000  0.5851170000000  0.5682910000000 1.0
C      1  0.5580490000000  0.6016710000000  0.4605370000000 1.0
C      1  0.5597270000000  0.5160890000000  0.3926630000000 1.0
C      1  0.5581560000000  0.4148830000000  0.4317090000000 1.0
C      1  0.5341590000000  0.5454460000000  0.5540660000000 1.0
C      1  0.5343560000000  0.4747930000000  0.5664500000000 1.0
C      1  0.5340040000000  0.4305230000000  0.5122890000000 1.0
C      1  0.5341590000000  0.4545540000000  0.4459340000000 1.0
C      1  0.5343560000000  0.5252070000000  0.4335500000000 1.0
C      1  0.5340040000000  0.5694770000000  0.4877110000000 1.0
C      1  0.4653320000000  0.4549360000000  0.5549660000000 1.0
C      1  0.4655560000000  0.5250790000000  0.5663850000000 1.0
C      1  0.4656890000000  0.5694660000000  0.5124230000000 1.0
C      1  0.4653320000000  0.5450640000000  0.4450340000000 1.0
C      1  0.4655560000000  0.4749210000000  0.4336150000000 1.0
C      1  0.4656890000000  0.4305340000000  0.4875770000000 1.0
C      1  0.5155910000000  0.5020790000000  0.4412650000000 1.0
C      1  0.5151680000000  0.5512900000000  0.4723780000000 1.0
C      1  0.5154350000000  0.5496570000000  0.5306480000000 1.0
C      1  0.5155910000000  0.4979210000000  0.5587350000000 1.0
C      1  0.5151680000000  0.4487100000000  0.5276220000000 1.0
C      1  0.5154350000000  0.4503430000000  0.4693520000000 1.0
C      1  0.4844770000000  0.4977380000000  0.4414320000000 1.0
C      1  0.4845900000000  0.4486600000000  0.4725550000000 1.0
C      1  0.4841810000000  0.4502950000000  0.5313040000000 1.0
C      1  0.4844770000000  0.5022620000000  0.5585680000000 1.0
C      1  0.4845900000000  0.5513400000000  0.5274450000000 1.0
C      1  0.4841810000000  0.5497050000000  0.4686960000000 1.0
C      1  0.4927190000000  0.6148170000000  0.5592830000000 1.0
C      1  0.4923530000000  0.5064520000000  0.6279600000000 1.0
C      1  0.4927190000000  0.3851830000000  0.4407170000000 1.0
C      1  0.5069280000000  0.3855670000000  0.5586810000000 1.0
C      1  0.5069280000000  0.6144330000000  0.4413190000000 1.0
C      1  0.4923530000000  0.4935480000000  0.3720400000000 1.0
END
