TITL C-862505-1648-313 183.837193993747 125000 -605.712423767068 0 0 113 (C1) n - 1
REM
REM in /home/nfs/bkarasulu/CARBON/AIRSS/Generating-Clusters/TERSOFF/Higher-Symm/FIRE-HFTN
REM
REM
REM
REM
REM
REM ./C.cell (b20cbc046b6831c77cfcea5457e17084)
REM AIRSS Version 0.9.1 bugfix July 2018 build 013d7b7c2542+ Fri, 06 Jul 2018 19:26:36 +0100
REM compiler GCC version 9.2.1 20190827 (Red Hat 9.2.1-1)
REM options -cpp -mtune=generic -march=x86-64 -g -O0 -fpre-include=/usr/include/finclude/math-vector-fortran.h
REM seed -901374094 2134796211 270387067 860450729 -2127393086 1149924649 -1443309859 -1958607709 -909055882 -445822400 -182990014 703138004 -17037268 1575025658 -775371910 -222867700 -1373925445 1695800750 -1779319413 1942010866 1225283370 -1671972710 128409153 1057636466 2091343307 -357321981 -369715991 864174540 1004946996 -1018586571 690225219 29037374 1855081603
REM
CELL 1.54180   50.00000   50.00000   50.00000   90.00000   90.00000   90.00000
LATT -1
SFAC C  
C      1  0.4554100000000  0.5034790000000  0.4990180000000 1.0
C      1  0.4894360000000  0.5431230000000  0.4990250000000 1.0
C      1  0.5376580000000  0.5230100000000  0.4990270000000 1.0
C      1  0.5334300000000  0.4709400000000  0.4990340000000 1.0
C      1  0.4826020000000  0.4588670000000  0.4990280000000 1.0
C      1  0.5822270000000  0.4667650000000  0.4699260000000 1.0
C      1  0.4937160000000  0.4111700000000  0.4699260000000 1.0
C      1  0.4134870000000  0.4781690000000  0.4699190000000 1.0
C      1  0.4524150000000  0.5751770000000  0.4699160000000 1.0
C      1  0.5567030000000  0.5681270000000  0.4699210000000 1.0
C      1  0.5245160000000  0.4919250000000  0.6105070000000 1.0
C      1  0.4998000000000  0.4738330000000  0.6105060000000 1.0
C      1  0.4749560000000  0.4917480000000  0.6105050000000 1.0
C      1  0.4843170000000  0.5209120000000  0.6105040000000 1.0
C      1  0.5149460000000  0.5210210000000  0.6105050000000 1.0
C      1  0.4892300000000  0.4285410000000  0.5542010000000 1.0
C      1  0.4286230000000  0.4878040000000  0.5541900000000 1.0
C      1  0.4662500000000  0.5637640000000  0.5541960000000 1.0
C      1  0.5501200000000  0.5514440000000  0.5541940000000 1.0
C      1  0.5643260000000  0.4678700000000  0.5542040000000 1.0
C      1  0.5400690000000  0.4869260000000  0.5843710000000 1.0
C      1  0.4998540000000  0.4574980000000  0.5843700000000 1.0
C      1  0.4594380000000  0.4866490000000  0.5843670000000 1.0
C      1  0.4746730000000  0.5340950000000  0.5843670000000 1.0
C      1  0.5245060000000  0.5342660000000  0.5843680000000 1.0
C      1  0.5417640000000  0.4462480000000  0.5474400000000 1.0
C      1  0.4616960000000  0.4433180000000  0.5474350000000 1.0
C      1  0.4341600000000  0.5185590000000  0.5474310000000 1.0
C      1  0.4972110000000  0.5679950000000  0.5474320000000 1.0
C      1  0.5637150000000  0.5233060000000  0.5474370000000 1.0
C      1  0.5380880000000  0.5738430000000  0.5170830000000 1.0
C      1  0.5819110000000  0.4862360000000  0.5170900000000 1.0
C      1  0.5121330000000  0.4174870000000  0.5170910000000 1.0
C      1  0.4251890000000  0.4626080000000  0.5170830000000 1.0
C      1  0.4412270000000  0.5592420000000  0.5170820000000 1.0
C      1  0.4451050000000  0.4652890000000  0.4293370000000 1.0
C      1  0.4499400000000  0.5411240000000  0.4293340000000 1.0
C      1  0.5235560000000  0.5599600000000  0.4293370000000 1.0
C      1  0.5642190000000  0.4957670000000  0.4293410000000 1.0
C      1  0.5157340000000  0.4372570000000  0.4293420000000 1.0
C      1  0.5521900000000  0.5293390000000  0.4545530000000 1.0
C      1  0.5439440000000  0.4590730000000  0.4545550000000 1.0
C      1  0.4745680000000  0.4452010000000  0.4545530000000 1.0
C      1  0.4399370000000  0.5068960000000  0.4545490000000 1.0
C      1  0.4879100000000  0.5588960000000  0.4545490000000 1.0
C      1  0.4600720000000  0.5774660000000  0.5017830000000 1.0
C      1  0.5612450000000  0.5615520000000  0.5017870000000 1.0
C      1  0.5773770000000  0.4604140000000  0.5017930000000 1.0
C      1  0.4861750000000  0.4138200000000  0.5017920000000 1.0
C      1  0.4136770000000  0.4861600000000  0.5017850000000 1.0
C      1  0.5109620000000  0.5758340000000  0.4508340000000 1.0
C      1  0.5754220000000  0.5126500000000  0.4508400000000 1.0
C      1  0.5352520000000  0.4318200000000  0.4508420000000 1.0
C      1  0.4459630000000  0.4450460000000  0.4508360000000 1.0
C      1  0.4309510000000  0.5340530000000  0.4508320000000 1.0
C      1  0.5528420000000  0.5545050000000  0.4366050000000 1.0
C      1  0.5680810000000  0.4662290000000  0.4366090000000 1.0
C      1  0.4888350000000  0.4244570000000  0.4366080000000 1.0
C      1  0.4246190000000  0.4869170000000  0.4366020000000 1.0
C      1  0.4641770000000  0.5672920000000  0.4366000000000 1.0
C      1  0.5227560000000  0.5270080000000  0.5253860000000 1.0
C      1  0.5326320000000  0.4863440000000  0.5254000000000 1.0
C      1  0.4970080000000  0.4643890000000  0.5253920000000 1.0
C      1  0.4651220000000  0.4914880000000  0.5253750000000 1.0
C      1  0.4810320000000  0.5301910000000  0.5253910000000 1.0
C      1  0.4623080000000  0.4766990000000  0.4830900000000 1.0
C      1  0.4661030000000  0.5282920000000  0.4830880000000 1.0
C      1  0.5163400000000  0.5406210000000  0.4830930000000 1.0
C      1  0.5435920000000  0.4966520000000  0.4830960000000 1.0
C      1  0.5102000000000  0.4571490000000  0.4830970000000 1.0
C      1  0.4237650000000  0.5420220000000  0.5001390000000 1.0
C      1  0.5163160000000  0.5851320000000  0.5001410000000 1.0
C      1  0.5859160000000  0.5104300000000  0.5001460000000 1.0
C      1  0.5363820000000  0.4211550000000  0.5001490000000 1.0
C      1  0.4361670000000  0.4406760000000  0.5001430000000 1.0
C      1  0.5608700000000  0.4923840000000  0.5379090000000 1.0
C      1  0.5114770000000  0.4394010000000  0.5379070000000 1.0
C      1  0.4458310000000  0.4700060000000  0.5378970000000 1.0
C      1  0.4546370000000  0.5419000000000  0.5379010000000 1.0
C      1  0.5257370000000  0.5557280000000  0.5379000000000 1.0
C      1  0.4645300000000  0.4348320000000  0.5122880000000 1.0
C      1  0.4269680000000  0.5132410000000  0.5122830000000 1.0
C      1  0.4899330000000  0.5731920000000  0.5122840000000 1.0
C      1  0.5664070000000  0.5318320000000  0.5122880000000 1.0
C      1  0.5507050000000  0.4463230000000  0.5122920000000 1.0
C      1  0.5261520000000  0.4638210000000  0.5711330000000 1.0
C      1  0.4735800000000  0.4635940000000  0.5711300000000 1.0
C      1  0.4571160000000  0.5135220000000  0.5711300000000 1.0
C      1  0.4995140000000  0.5446060000000  0.5711290000000 1.0
C      1  0.5421800000000  0.5138890000000  0.5711320000000 1.0
C      1  0.5175630000000  0.4782260000000  0.4556780000000 1.0
C      1  0.4846320000000  0.4762090000000  0.4556750000000 1.0
C      1  0.4725380000000  0.5069070000000  0.4556740000000 1.0
C      1  0.4979950000000  0.5278940000000  0.4556750000000 1.0
C      1  0.5258210000000  0.5101680000000  0.4556770000000 1.0
C      1  0.5137350000000  0.4720960000000  0.4203230000000 1.0
C      1  0.4776220000000  0.4779560000000  0.4203200000000 1.0
C      1  0.4720350000000  0.5141130000000  0.4203180000000 1.0
C      1  0.5046960000000  0.5305990000000  0.4203200000000 1.0
C      1  0.5304680000000  0.5046310000000  0.4203220000000 1.0
C      1  0.5494170000000  0.5313630000000  0.4127260000000 1.0
C      1  0.5450140000000  0.4623350000000  0.4127280000000 1.0
C      1  0.4780060000000  0.4451910000000  0.4127260000000 1.0
C      1  0.4409930000000  0.5036240000000  0.4127220000000 1.0
C      1  0.4851280000000  0.5568800000000  0.4127220000000 1.0
C      1  0.5258090000000  0.5700920000000  0.4753740000000 1.0
C      1  0.5745470000000  0.4967540000000  0.4753790000000 1.0
C      1  0.5198640000000  0.4277410000000  0.4753800000000 1.0
C      1  0.4373260000000  0.4584200000000  0.4753740000000 1.0
C      1  0.4410000000000  0.5464020000000  0.4753700000000 1.0
C      1  0.4999130000000  0.4995410000000  0.5653830000000 1.0
C      1  0.5007070000000  0.4982750000000  0.5008550000000 1.0
C      1  0.4996920000000  0.4999110000000  0.5342370000000 1.0
END
