TITL C-862500-986-57 0.000369066933917553 125000 -1105.04503530584 0 0 196 (D3) n - 1
REM
REM in /home/nfs/bkarasulu/CARBON/AIRSS/Generating-Clusters/TERSOFF/Higher-Symm/FIRE-HFTN
REM
REM
REM
REM
REM
REM ./C.cell (b20cbc046b6831c77cfcea5457e17084)
REM AIRSS Version 0.9.1 bugfix July 2018 build 013d7b7c2542+ Fri, 06 Jul 2018 19:26:36 +0100
REM compiler GCC version 9.2.1 20190827 (Red Hat 9.2.1-1)
REM options -cpp -mtune=generic -march=x86-64 -g -O0 -fpre-include=/usr/include/finclude/math-vector-fortran.h
REM seed -457042263 -184283964 -310379845 951084086 -1173238524 1065150258 -649625946 2033788156 1217308648 -574486699 1214599898 1573931275 1454584728 1517991288 -187501336 -1474246155 -17112342 1421364127 -1974829957 1350659375 493868429 -604069524 1591760554 -268376283 -1602559146 993645610 1897606531 1416148985 1494866609 -881253042 1761531320 -666738568 1810797535
REM
CELL 1.54180   50.00000   50.00000   50.00000   90.00000   90.00000   90.00000
LATT -1
SFAC C  
C      1  0.5277550000000  0.6245250000000  0.5095380000000 1.0
C      1  0.4781670000000  0.6245250000000  0.5191900000000 1.0
C      1  0.4946020000000  0.6245250000000  0.4714200000000 1.0
C      1  0.4725940000000  0.3762180000000  0.5095380000000 1.0
C      1  0.5221820000000  0.3762180000000  0.5191900000000 1.0
C      1  0.5057470000000  0.3762180000000  0.4714200000000 1.0
C      1  0.5257590000000  0.5435360000000  0.6000900000000 1.0
C      1  0.4007440000000  0.5435360000000  0.4721860000000 1.0
C      1  0.5740200000000  0.5435360000000  0.4278710000000 1.0
C      1  0.4745900000000  0.4572060000000  0.6000900000000 1.0
C      1  0.5996050000000  0.4572060000000  0.4721860000000 1.0
C      1  0.4263290000000  0.4572060000000  0.4278710000000 1.0
C      1  0.5627790000000  0.4132770000000  0.5806070000000 1.0
C      1  0.3991070000000  0.4132770000000  0.5139880000000 1.0
C      1  0.5386370000000  0.4132770000000  0.4055530000000 1.0
C      1  0.4375700000000  0.5874660000000  0.5806070000000 1.0
C      1  0.6012420000000  0.5874660000000  0.5139870000000 1.0
C      1  0.4617120000000  0.5874660000000  0.4055530000000 1.0
C      1  0.4594510000000  0.4337010000000  0.4699960000000 1.0
C      1  0.5465630000000  0.4337010000000  0.4798080000000 1.0
C      1  0.4945100000000  0.4337010000000  0.5503430000000 1.0
C      1  0.5408980000000  0.5670410000000  0.4699960000000 1.0
C      1  0.4537860000000  0.5670410000000  0.4798080000000 1.0
C      1  0.5058390000000  0.5670410000000  0.5503430000000 1.0
C      1  0.5023450000000  0.4731870000000  0.4759530000000 1.0
C      1  0.5199580000000  0.4731870000000  0.5139770000000 1.0
C      1  0.4782210000000  0.4731870000000  0.5102180000000 1.0
C      1  0.4980040000000  0.5275560000000  0.4759530000000 1.0
C      1  0.4803910000000  0.5275560000000  0.5139770000000 1.0
C      1  0.5221280000000  0.5275560000000  0.5102180000000 1.0
C      1  0.4231970000000  0.5995990000000  0.5048890000000 1.0
C      1  0.5344720000000  0.5995990000000  0.4309650000000 1.0
C      1  0.5428540000000  0.5995990000000  0.5642940000000 1.0
C      1  0.5771520000000  0.4011430000000  0.5048890000000 1.0
C      1  0.4658770000000  0.4011430000000  0.4309650000000 1.0
C      1  0.4574950000000  0.4011430000000  0.5642940000000 1.0
C      1  0.5961090000000  0.5981550000000  0.4855040000000 1.0
C      1  0.4648030000000  0.5981550000000  0.5904040000000 1.0
C      1  0.4396110000000  0.5981550000000  0.4242390000000 1.0
C      1  0.4042390000000  0.4025880000000  0.4855040000000 1.0
C      1  0.5355460000000  0.4025880000000  0.5904040000000 1.0
C      1  0.5607380000000  0.4025870000000  0.4242390000000 1.0
C      1  0.4096370000000  0.5030380000000  0.5036270000000 1.0
C      1  0.5423440000000  0.5030380000000  0.4198520000000 1.0
C      1  0.5485420000000  0.5030380000000  0.5766680000000 1.0
C      1  0.5907120000000  0.4977040000000  0.5036270000000 1.0
C      1  0.4580050000000  0.4977040000000  0.4198520000000 1.0
C      1  0.4518070000000  0.4977040000000  0.5766680000000 1.0
C      1  0.4795900000000  0.5889370000000  0.4549740000000 1.0
C      1  0.5495030000000  0.5889370000000  0.5047600000000 1.0
C      1  0.4714310000000  0.5889370000000  0.5404140000000 1.0
C      1  0.5207590000000  0.4118050000000  0.4549740000000 1.0
C      1  0.4508460000000  0.4118050000000  0.5047600000000 1.0
C      1  0.5289180000000  0.4118050000000  0.5404140000000 1.0
C      1  0.5874780000000  0.4420050000000  0.4485600000000 1.0
C      1  0.5011140000000  0.4420050000000  0.6014000000000 1.0
C      1  0.4119320000000  0.4420050000000  0.4501870000000 1.0
C      1  0.4128710000000  0.5587380000000  0.4485600000000 1.0
C      1  0.4992350000000  0.5587380000000  0.6014000000000 1.0
C      1  0.5884170000000  0.5587380000000  0.4501870000000 1.0
C      1  0.5237900000000  0.5295110000000  0.4627930000000 1.0
C      1  0.5206310000000  0.5295110000000  0.5391280000000 1.0
C      1  0.4561020000000  0.5295110000000  0.4982260000000 1.0
C      1  0.4765590000000  0.4712320000000  0.4627930000000 1.0
C      1  0.4797180000000  0.4712320000000  0.5391280000000 1.0
C      1  0.5442460000000  0.4712320000000  0.4982260000000 1.0
C      1  0.5078430000000  0.5166280000000  0.3803160000000 1.0
C      1  0.6000330000000  0.5166280000000  0.5665570000000 1.0
C      1  0.3926480000000  0.5166280000000  0.5532750000000 1.0
C      1  0.4925060000000  0.4841140000000  0.3803160000000 1.0
C      1  0.4003160000000  0.4841140000000  0.5665570000000 1.0
C      1  0.6077010000000  0.4841140000000  0.5532750000000 1.0
C      1  0.4339170000000  0.4359500000000  0.5081860000000 1.0
C      1  0.5262560000000  0.4359500000000  0.4386000000000 1.0
C      1  0.5403500000000  0.4359500000000  0.5533610000000 1.0
C      1  0.5664320000000  0.5647930000000  0.5081860000000 1.0
C      1  0.4740930000000  0.5647930000000  0.4386000000000 1.0
C      1  0.4599990000000  0.5647930000000  0.5533610000000 1.0
C      1  0.5434200000000  0.5437580000000  0.5524480000000 1.0
C      1  0.4331730000000  0.5437580000000  0.5113010000000 1.0
C      1  0.5239310000000  0.5437580000000  0.4363980000000 1.0
C      1  0.4569290000000  0.4569850000000  0.5524480000000 1.0
C      1  0.5671760000000  0.4569850000000  0.5113010000000 1.0
C      1  0.4764180000000  0.4569850000000  0.4363980000000 1.0
C      1  0.4134650000000  0.5126800000000  0.4251600000000 1.0
C      1  0.6083850000000  0.5126800000000  0.4624010000000 1.0
C      1  0.4786730000000  0.5126800000000  0.6125860000000 1.0
C      1  0.5868830000000  0.4880630000000  0.4251600000000 1.0
C      1  0.3919640000000  0.4880630000000  0.4624010000000 1.0
C      1  0.5216760000000  0.4880630000000  0.6125860000000 1.0
C      1  0.5841280000000  0.4659110000000  0.5723350000000 1.0
C      1  0.3955960000000  0.4659110000000  0.5366120000000 1.0
C      1  0.5207990000000  0.4659110000000  0.3912000000000 1.0
C      1  0.4162210000000  0.5348320000000  0.5723350000000 1.0
C      1  0.6047520000000  0.5348320000000  0.5366120000000 1.0
C      1  0.4795500000000  0.5348320000000  0.3912000000000 1.0
C      1  0.5638070000000  0.5589510000000  0.5378510000000 1.0
C      1  0.4356210000000  0.5589510000000  0.5362550000000 1.0
C      1  0.5010960000000  0.5589510000000  0.4260410000000 1.0
C      1  0.4365420000000  0.4417910000000  0.5378510000000 1.0
C      1  0.5647280000000  0.4417910000000  0.5362550000000 1.0
C      1  0.4992530000000  0.4417910000000  0.4260410000000 1.0
C      1  0.4250390000000  0.6003300000000  0.5572720000000 1.0
C      1  0.4881860000000  0.6003300000000  0.4063680000000 1.0
C      1  0.5872990000000  0.6003300000000  0.5365070000000 1.0
C      1  0.5753100000000  0.4004130000000  0.5572720000000 1.0
C      1  0.5121630000000  0.4004130000000  0.4063680000000 1.0
C      1  0.4130500000000  0.4004130000000  0.5365070000000 1.0
C      1  0.5124980000000  0.5965720000000  0.5568410000000 1.0
C      1  0.4448300000000  0.5965720000000  0.4823260000000 1.0
C      1  0.5431960000000  0.5965720000000  0.4609810000000 1.0
C      1  0.4878510000000  0.4041710000000  0.5568410000000 1.0
C      1  0.5555190000000  0.4041710000000  0.4823260000000 1.0
C      1  0.4571530000000  0.4041710000000  0.4609810000000 1.0
C      1  0.4708750000000  0.6181910000000  0.4898930000000 1.0
C      1  0.5236190000000  0.6181910000000  0.4797530000000 1.0
C      1  0.5060290000000  0.6181910000000  0.5305010000000 1.0
C      1  0.5294740000000  0.3825520000000  0.4898930000000 1.0
C      1  0.4767300000000  0.3825520000000  0.4797530000000 1.0
C      1  0.4943200000000  0.3825520000000  0.5305010000000 1.0
C      1  0.4235480000000  0.5042420000000  0.5788610000000 1.0
C      1  0.4702340000000  0.5042420000000  0.3942820000000 1.0
C      1  0.6067410000000  0.5042420000000  0.5270040000000 1.0
C      1  0.5768010000000  0.4965010000000  0.5788610000000 1.0
C      1  0.5301140000000  0.4965010000000  0.3942820000000 1.0
C      1  0.3936080000000  0.4965010000000  0.5270040000000 1.0
C      1  0.5751030000000  0.4604010000000  0.4290180000000 1.0
C      1  0.5242250000000  0.4604010000000  0.6004550000000 1.0
C      1  0.4011950000000  0.4604010000000  0.4706750000000 1.0
C      1  0.4252460000000  0.5403410000000  0.4290180000000 1.0
C      1  0.4761240000000  0.5403410000000  0.6004550000000 1.0
C      1  0.5991540000000  0.5403410000000  0.4706750000000 1.0
C      1  0.4837700000000  0.5835680000000  0.5120680000000 1.0
C      1  0.4979680000000  0.5835680000000  0.4798330000000 1.0
C      1  0.5187850000000  0.5835680000000  0.5082460000000 1.0
C      1  0.5165780000000  0.4171740000000  0.5120680000000 1.0
C      1  0.5023810000000  0.4171740000000  0.4798330000000 1.0
C      1  0.4815640000000  0.4171740000000  0.5082460000000 1.0
C      1  0.5429610000000  0.4763880000000  0.4658640000000 1.0
C      1  0.5083860000000  0.4763880000000  0.5541960000000 1.0
C      1  0.4491760000000  0.4763880000000  0.4800880000000 1.0
C      1  0.4573880000000  0.5243550000000  0.4658640000000 1.0
C      1  0.4919630000000  0.5243550000000  0.5541960000000 1.0
C      1  0.5511730000000  0.5243550000000  0.4800880000000 1.0
C      1  0.4300720000000  0.5862030000000  0.4509410000000 1.0
C      1  0.5777550000000  0.5862030000000  0.4638930000000 1.0
C      1  0.4926960000000  0.5862030000000  0.5853140000000 1.0
C      1  0.5702770000000  0.4145390000000  0.4509410000000 1.0
C      1  0.4225940000000  0.4145390000000  0.4638930000000 1.0
C      1  0.5076520000000  0.4145390000000  0.5853140000000 1.0
C      1  0.4102500000000  0.5540480000000  0.4968070000000 1.0
C      1  0.5479450000000  0.5540480000000  0.4237930000000 1.0
C      1  0.5423290000000  0.5540480000000  0.5795470000000 1.0
C      1  0.5900990000000  0.4466950000000  0.4968070000000 1.0
C      1  0.4524040000000  0.4466950000000  0.4237930000000 1.0
C      1  0.4580200000000  0.4466950000000  0.5795470000000 1.0
C      1  0.4343940000000  0.4145980000000  0.5501620000000 1.0
C      1  0.4896660000000  0.4145980000000  0.4180250000000 1.0
C      1  0.5764640000000  0.4145980000000  0.5319600000000 1.0
C      1  0.5659550000000  0.5861440000000  0.5501620000000 1.0
C      1  0.5106830000000  0.5861440000000  0.4180250000000 1.0
C      1  0.4238850000000  0.5861440000000  0.5319600000000 1.0
C      1  0.4303470000000  0.4885480000000  0.4224380000000 1.0
C      1  0.6023010000000  0.4885480000000  0.4783820000000 1.0
C      1  0.4678750000000  0.4885480000000  0.5993270000000 1.0
C      1  0.5700020000000  0.5121950000000  0.4224380000000 1.0
C      1  0.3980480000000  0.5121950000000  0.4783820000000 1.0
C      1  0.5324740000000  0.5121950000000  0.5993270000000 1.0
C      1  0.5283240000000  0.4930450000000  0.4428050000000 1.0
C      1  0.5356740000000  0.4930450000000  0.5530490000000 1.0
C      1  0.4365250000000  0.4930450000000  0.5042930000000 1.0
C      1  0.4720250000000  0.5076980000000  0.4428050000000 1.0
C      1  0.4646740000000  0.5076980000000  0.5530490000000 1.0
C      1  0.5638240000000  0.5076980000000  0.5042930000000 1.0
C      1  0.5410380000000  0.4405680000000  0.3909430000000 1.0
C      1  0.5742320000000  0.4405680000000  0.5899910000000 1.0
C      1  0.3852540000000  0.4405680000000  0.5192130000000 1.0
C      1  0.4593110000000  0.5601750000000  0.3909430000000 1.0
C      1  0.4261170000000  0.5601750000000  0.5899910000000 1.0
C      1  0.6150950000000  0.5601750000000  0.5192130000000 1.0
C      1  0.4834870000000  0.5558780000000  0.4805350000000 1.0
C      1  0.5254180000000  0.5558780000000  0.4953550000000 1.0
C      1  0.4916180000000  0.5558780000000  0.5242580000000 1.0
C      1  0.5168620000000  0.4448650000000  0.4805350000000 1.0
C      1  0.4749310000000  0.4448650000000  0.4953550000000 1.0
C      1  0.5087310000000  0.4448650000000  0.5242580000000 1.0
C      1  0.5245320000000  0.4560160000000  0.5693630000000 1.0
C      1  0.4279680000000  0.4560160000000  0.4864860000000 1.0
C      1  0.5480230000000  0.4560160000000  0.4442980000000 1.0
C      1  0.4758170000000  0.5447270000000  0.5693630000000 1.0
C      1  0.5723810000000  0.5447270000000  0.4864860000000 1.0
C      1  0.4523260000000  0.5447270000000  0.4442980000000 1.0
C      1  0.4517570000000  0.5003710000000  0.5280030000000 1.0
C      1  0.5485920000000  0.5003710000000  0.5280030000000 1.0
C      1  0.5001740000000  0.5003710000000  0.4441410000000 1.0
C      1  0.5001740000000  0.5003710000000  0.5000490000000 1.0
END
