TITL C-862134-6730-1043 0.3666099199793 125000 -498.682652500894 0 0 87 (C1) n - 1
REM
REM in /home/nfs/bkarasulu/CARBON/AIRSS/Generating-Clusters/TERSOFF/Higher-Symm/FIRE-HFTN
REM
REM
REM
REM
REM
REM ./C.cell (b20cbc046b6831c77cfcea5457e17084)
REM AIRSS Version 0.9.1 bugfix July 2018 build 013d7b7c2542+ Fri, 06 Jul 2018 19:26:36 +0100
REM compiler GCC version 9.2.1 20190827 (Red Hat 9.2.1-1)
REM options -cpp -mtune=generic -march=x86-64 -g -O0 -fpre-include=/usr/include/finclude/math-vector-fortran.h
REM seed 1405709783 -1330146989 757393551 1645509646 -1289183950 1679965858 -2051681445 -1372352573 163166617 2077372773 2048564216 2107838195 1373818592 -868352662 736610773 -1905143299 -1140042640 -1304356520 -1293642647 855278537 586197959 1041646148 1499142740 1986297586 453286886 -1152887969 -561085225 -1275680697 -2098346930 -1117494150 -890303061 1054985778 625287395
REM
CELL 1.54180   50.00000   50.00000   50.00000   90.00000   90.00000   90.00000
LATT -1
SFAC C  
C      1  0.5211540000000  0.4230160000000  0.5095990000000 1.0
C      1  0.4960050000000  0.4668680000000  0.5278390000000 1.0
C      1  0.4366250000000  0.5292540000000  0.4609770000000 1.0
C      1  0.5752120000000  0.4910410000000  0.5012050000000 1.0
C      1  0.4182680000000  0.4890310000000  0.4720190000000 1.0
C      1  0.5074700000000  0.5307880000000  0.5293790000000 1.0
C      1  0.4285040000000  0.4618200000000  0.5271020000000 1.0
C      1  0.5221540000000  0.4767990000000  0.5665800000000 1.0
C      1  0.4333470000000  0.5160140000000  0.5461950000000 1.0
C      1  0.4213050000000  0.5372340000000  0.4858670000000 1.0
C      1  0.4751150000000  0.5515900000000  0.4399520000000 1.0
C      1  0.4435010000000  0.5492500000000  0.5014150000000 1.0
C      1  0.4991410000000  0.4933270000000  0.5601980000000 1.0
C      1  0.4638770000000  0.5138570000000  0.4716790000000 1.0
C      1  0.5652260000000  0.5163530000000  0.5615780000000 1.0
C      1  0.5517060000000  0.5599240000000  0.4856370000000 1.0
C      1  0.4463830000000  0.4551060000000  0.4463190000000 1.0
C      1  0.4547910000000  0.5060050000000  0.4311940000000 1.0
C      1  0.5212300000000  0.4780000000000  0.4643020000000 1.0
C      1  0.5233240000000  0.5641100000000  0.5917420000000 1.0
C      1  0.4173750000000  0.5021730000000  0.5242710000000 1.0
C      1  0.5057890000000  0.5616380000000  0.5301650000000 1.0
C      1  0.4997720000000  0.5215200000000  0.5571630000000 1.0
C      1  0.5330750000000  0.5145180000000  0.4093600000000 1.0
C      1  0.5372130000000  0.4903140000000  0.3937540000000 1.0
C      1  0.4661660000000  0.5897410000000  0.5208170000000 1.0
C      1  0.5333360000000  0.5234760000000  0.4567330000000 1.0
C      1  0.5433060000000  0.5819360000000  0.5019800000000 1.0
C      1  0.4962950000000  0.5542860000000  0.5950130000000 1.0
C      1  0.4807810000000  0.5731270000000  0.5388700000000 1.0
C      1  0.5453800000000  0.5002680000000  0.5015500000000 1.0
C      1  0.5149650000000  0.4574180000000  0.4265520000000 1.0
C      1  0.4993720000000  0.4689900000000  0.4793330000000 1.0
C      1  0.4812580000000  0.5163080000000  0.5171980000000 1.0
C      1  0.4489600000000  0.4730300000000  0.5717940000000 1.0
C      1  0.4659320000000  0.5295060000000  0.4969510000000 1.0
C      1  0.5561110000000  0.4298500000000  0.4662530000000 1.0
C      1  0.4793900000000  0.4320920000000  0.4788700000000 1.0
C      1  0.4301790000000  0.4581660000000  0.5555520000000 1.0
C      1  0.4751230000000  0.4864160000000  0.5217440000000 1.0
C      1  0.5069730000000  0.4220290000000  0.4812000000000 1.0
C      1  0.5430460000000  0.4585030000000  0.5049270000000 1.0
C      1  0.4624760000000  0.5189790000000  0.5867310000000 1.0
C      1  0.5268200000000  0.4255350000000  0.4590880000000 1.0
C      1  0.5540180000000  0.4685330000000  0.5296010000000 1.0
C      1  0.4404390000000  0.5443320000000  0.5449410000000 1.0
C      1  0.4801780000000  0.5061630000000  0.4118880000000 1.0
C      1  0.5268370000000  0.4641510000000  0.4008490000000 1.0
C      1  0.5362930000000  0.4578810000000  0.5495680000000 1.0
C      1  0.5357640000000  0.5204200000000  0.5214880000000 1.0
C      1  0.5512560000000  0.5194420000000  0.4338770000000 1.0
C      1  0.4722440000000  0.4431460000000  0.4519580000000 1.0
C      1  0.4172800000000  0.5093960000000  0.4947110000000 1.0
C      1  0.5683220000000  0.5387420000000  0.4992110000000 1.0
C      1  0.4450910000000  0.5494660000000  0.4405660000000 1.0
C      1  0.4456090000000  0.5020560000000  0.5704280000000 1.0
C      1  0.5825600000000  0.4646110000000  0.4920810000000 1.0
C      1  0.4740110000000  0.4293310000000  0.5319080000000 1.0
C      1  0.5222560000000  0.5672270000000  0.4411310000000 1.0
C      1  0.5344150000000  0.5512700000000  0.4633310000000 1.0
C      1  0.5065030000000  0.5140200000000  0.4484920000000 1.0
C      1  0.4474230000000  0.5778560000000  0.5031760000000 1.0
C      1  0.5727630000000  0.5041510000000  0.4499640000000 1.0
C      1  0.5745700000000  0.4545120000000  0.4659220000000 1.0
C      1  0.4649260000000  0.4394610000000  0.5046450000000 1.0
C      1  0.4521000000000  0.4669100000000  0.5102860000000 1.0
C      1  0.5453400000000  0.5117820000000  0.5856010000000 1.0
C      1  0.4884860000000  0.4487740000000  0.5510220000000 1.0
C      1  0.5301830000000  0.4837780000000  0.5941870000000 1.0
C      1  0.4655020000000  0.5554130000000  0.5557180000000 1.0
C      1  0.5045840000000  0.5275670000000  0.4088340000000 1.0
C      1  0.5002290000000  0.5551900000000  0.4232390000000 1.0
C      1  0.4815520000000  0.5384360000000  0.5748700000000 1.0
C      1  0.5251680000000  0.4311770000000  0.5408210000000 1.0
C      1  0.4828360000000  0.5269620000000  0.4543710000000 1.0
C      1  0.5748040000000  0.4747860000000  0.4447670000000 1.0
C      1  0.4717540000000  0.4827320000000  0.4768780000000 1.0
C      1  0.4915970000000  0.4405370000000  0.4301140000000 1.0
C      1  0.4961590000000  0.4728030000000  0.5993090000000 1.0
C      1  0.5514130000000  0.4299950000000  0.4963150000000 1.0
C      1  0.5290180000000  0.5787290000000  0.5266080000000 1.0
C      1  0.5600760000000  0.5328280000000  0.5339200000000 1.0
C      1  0.5102940000000  0.4568950000000  0.5049970000000 1.0
C      1  0.4768370000000  0.4615600000000  0.5762020000000 1.0
C      1  0.4399650000000  0.4835760000000  0.4495340000000 1.0
C      1  0.5363570000000  0.4997130000000  0.4743180000000 1.0
C      1  0.5795540000000  0.5144890000000  0.4817060000000 1.0
END
