TITL C-862500-986-419 -0.00236707370726018 125000 -323.144110081405 0 0 60 (C5) n - 1
REM
REM in /home/nfs/bkarasulu/CARBON/AIRSS/Generating-Clusters/TERSOFF/Higher-Symm/FIRE-HFTN
REM
REM
REM
REM
REM
REM ./C.cell (b20cbc046b6831c77cfcea5457e17084)
REM AIRSS Version 0.9.1 bugfix July 2018 build 013d7b7c2542+ Fri, 06 Jul 2018 19:26:36 +0100
REM compiler GCC version 9.2.1 20190827 (Red Hat 9.2.1-1)
REM options -cpp -mtune=generic -march=x86-64 -g -O0 -fpre-include=/usr/include/finclude/math-vector-fortran.h
REM seed -1540064323 -1772756417 170040167 -528092682 -859816684 -2000919177 1363552813 1103132958 -1748629117 1211717402 2000347615 120352582 2087209696 -1051737557 544558076 276552542 -947976144 -626353438 1638415291 -1779488298 372068560 1324058899 -477164207 -2103774604 -283972759 -1561235140 -419709635 -78963396 -573379314 -1982149011 1417531068 1646672741 -275170636
REM
CELL 1.54180   50.00000   50.00000   50.00000   90.00000   90.00000   90.00000
LATT -1
SFAC C  
C      1  0.5118850000000  0.4454540000000  0.5227630000000 1.0
C      1  0.5253220000000  0.4454540000000  0.4957310000000 1.0
C      1  0.5037650000000  0.4454540000000  0.4745980000000 1.0
C      1  0.4770050000000  0.4454540000000  0.4885700000000 1.0
C      1  0.4820240000000  0.4454540000000  0.5183370000000 1.0
C      1  0.5237070000000  0.4598610000000  0.5455640000000 1.0
C      1  0.5506600000000  0.4598610000000  0.4915330000000 1.0
C      1  0.5076020000000  0.4598620000000  0.4492030000000 1.0
C      1  0.4540390000000  0.4598620000000  0.4770730000000 1.0
C      1  0.4639920000000  0.4598610000000  0.5366270000000 1.0
C      1  0.5284440000000  0.5219600000000  0.4882300000000 1.0
C      1  0.4975960000000  0.5219600000000  0.4693110000000 1.0
C      1  0.4700700000000  0.5219600000000  0.4928030000000 1.0
C      1  0.4839070000000  0.5219600000000  0.5262410000000 1.0
C      1  0.5199840000000  0.5219600000000  0.5234150000000 1.0
C      1  0.4300340000000  0.5154670000000  0.5438110000000 1.0
C      1  0.5200460000000  0.5154670000000  0.5800800000000 1.0
C      1  0.5823550000000  0.5154670000000  0.5056820000000 1.0
C      1  0.5308530000000  0.5154670000000  0.4234310000000 1.0
C      1  0.4367130000000  0.5154680000000  0.4469960000000 1.0
C      1  0.5051140000000  0.4692940000000  0.5669470000000 1.0
C      1  0.5652510000000  0.4692940000000  0.5158240000000 1.0
C      1  0.5352130000000  0.4692940000000  0.4428330000000 1.0
C      1  0.4565130000000  0.4692940000000  0.4488440000000 1.0
C      1  0.4379100000000  0.4692940000000  0.5255510000000 1.0
C      1  0.5668470000000  0.5014340000000  0.4638760000000 1.0
C      1  0.4863010000000  0.5014340000000  0.4252620000000 1.0
C      1  0.4246860000000  0.5014340000000  0.4899330000000 1.0
C      1  0.4671530000000  0.5014330000000  0.5685170000000 1.0
C      1  0.5550130000000  0.5014330000000  0.5524120000000 1.0
C      1  0.5630210000000  0.5233110000000  0.4847850000000 1.0
C      1  0.5050040000000  0.5233110000000  0.4353610000000 1.0
C      1  0.4400710000000  0.5233110000000  0.4752660000000 1.0
C      1  0.4579580000000  0.5233110000000  0.5493520000000 1.0
C      1  0.5339450000000  0.5233110000000  0.5552350000000 1.0
C      1  0.4697350000000  0.5563240000000  0.5070230000000 1.0
C      1  0.4973270000000  0.5563240000000  0.5309540000000 1.0
C      1  0.5286130000000  0.5563240000000  0.5121080000000 1.0
C      1  0.5203570000000  0.5563240000000  0.4765290000000 1.0
C      1  0.4839690000000  0.5563240000000  0.4733860000000 1.0
C      1  0.5870940000000  0.4879780000000  0.5123380000000 1.0
C      1  0.5386480000000  0.4879780000000  0.4209810000000 1.0
C      1  0.4367910000000  0.4879780000000  0.4388250000000 1.0
C      1  0.4222870000000  0.4879780000000  0.5412110000000 1.0
C      1  0.5151790000000  0.4879780000000  0.5866440000000 1.0
C      1  0.4636860000000  0.5546390000000  0.5428560000000 1.0
C      1  0.5295370000000  0.5546390000000  0.5477800000000 1.0
C      1  0.5545690000000  0.5546390000000  0.4866740000000 1.0
C      1  0.5041890000000  0.5546390000000  0.4439840000000 1.0
C      1  0.4480200000000  0.5546390000000  0.4787060000000 1.0
C      1  0.5499760000000  0.4743140000000  0.5407920000000 1.0
C      1  0.5542390000000  0.4743140000000  0.4650760000000 1.0
C      1  0.4835460000000  0.4743140000000  0.4376230000000 1.0
C      1  0.4355920000000  0.4743140000000  0.4963730000000 1.0
C      1  0.4766470000000  0.4743140000000  0.5601350000000 1.0
C      1  0.4744900000000  0.4899630000000  0.4979820000000 1.0
C      1  0.4901980000000  0.4899630000000  0.5236380000000 1.0
C      1  0.5194530000000  0.4899630000000  0.5166270000000 1.0
C      1  0.5218240000000  0.4899630000000  0.4866380000000 1.0
C      1  0.4940360000000  0.4899630000000  0.4751150000000 1.0
END
