TITL C-862130-1496-1312 0.00471284914881592 125000 -821.507179149559 0 0 145 (C3h) n - 1
REM
REM in /home/nfs/bkarasulu/CARBON/AIRSS/Generating-Clusters/TERSOFF/Higher-Symm/FIRE-HFTN
REM
REM
REM
REM
REM
REM ./C.cell (b20cbc046b6831c77cfcea5457e17084)
REM AIRSS Version 0.9.1 bugfix July 2018 build 013d7b7c2542+ Fri, 06 Jul 2018 19:26:36 +0100
REM compiler GCC version 9.2.1 20190827 (Red Hat 9.2.1-1)
REM options -cpp -mtune=generic -march=x86-64 -g -O0 -fpre-include=/usr/include/finclude/math-vector-fortran.h
REM seed 2008066146 -145263660 1020915234 1675805773 -1497815389 -29458060 1675532573 1745222795 -1462898326 -2039976984 1229648604 555883906 -941503394 -841650686 -643911173 -360420205 207925783 -995296653 -1438719141 1194804073 2092027571 1886709952 1039614929 431871566 -1567060046 -1757828367 2141974015 -1649374197 1636022282 -1748270835 1778355342 -296521909 1375447820
REM
CELL 1.54180   50.00000   50.00000   50.00000   90.00000   90.00000   90.00000
LATT -1
SFAC C  
C      1  0.5014040000000  0.5466110000000  0.5293920000000 1.0
C      1  0.5393010000000  0.4753340000000  0.5293920000000 1.0
C      1  0.4586250000000  0.4781520000000  0.5293920000000 1.0
C      1  0.5014200000000  0.5466340000000  0.4708380000000 1.0
C      1  0.5393130000000  0.4753080000000  0.4708380000000 1.0
C      1  0.4585960000000  0.4781550000000  0.4708380000000 1.0
C      1  0.5517930000000  0.5491840000000  0.4707440000000 1.0
C      1  0.5163350000000  0.4304090000000  0.4707440000000 1.0
C      1  0.4312020000000  0.5205040000000  0.4707440000000 1.0
C      1  0.5516870000000  0.5493460000000  0.5293850000000 1.0
C      1  0.5165280000000  0.4304190000000  0.5293850000000 1.0
C      1  0.4311140000000  0.5203310000000  0.5293860000000 1.0
C      1  0.5268360000000  0.4417170000000  0.4433680000000 1.0
C      1  0.4357440000000  0.5057560000000  0.4433680000000 1.0
C      1  0.5367500000000  0.5526240000000  0.4433680000000 1.0
C      1  0.5269260000000  0.4417270000000  0.5568090000000 1.0
C      1  0.4357080000000  0.5056730000000  0.5568090000000 1.0
C      1  0.5366960000000  0.5526970000000  0.5568090000000 1.0
C      1  0.4096550000000  0.5377730000000  0.4234460000000 1.0
C      1  0.5775210000000  0.5592100000000  0.4234460000000 1.0
C      1  0.5121530000000  0.4031150000000  0.4234450000000 1.0
C      1  0.4096280000000  0.5377300000000  0.5767290000000 1.0
C      1  0.5774980000000  0.5592550000000  0.5767290000000 1.0
C      1  0.5122040000000  0.4031130000000  0.5767290000000 1.0
C      1  0.5296000000000  0.4969350000000  0.5985910000000 1.0
C      1  0.4821830000000  0.4757530000000  0.5985910000000 1.0
C      1  0.4875480000000  0.5274090000000  0.5985910000000 1.0
C      1  0.5295940000000  0.4969090000000  0.4015920000000 1.0
C      1  0.4821620000000  0.4757720000000  0.4015920000000 1.0
C      1  0.4875730000000  0.5274170000000  0.4015920000000 1.0
C      1  0.4565420000000  0.5923010000000  0.4717570000000 1.0
C      1  0.6013010000000  0.4913400000000  0.4717570000000 1.0
C      1  0.4414870000000  0.4164560000000  0.4717570000000 1.0
C      1  0.4564870000000  0.5923130000000  0.5284540000000 1.0
C      1  0.6013380000000  0.4913820000000  0.5284540000000 1.0
C      1  0.4415040000000  0.4164030000000  0.5284540000000 1.0
C      1  0.4167210000000  0.5614170000000  0.4691230000000 1.0
C      1  0.5944650000000  0.5412690000000  0.4691230000000 1.0
C      1  0.4881440000000  0.3974110000000  0.4691230000000 1.0
C      1  0.4166910000000  0.5614010000000  0.5310550000000 1.0
C      1  0.5944660000000  0.5413020000000  0.5310540000000 1.0
C      1  0.4881730000000  0.3973940000000  0.5310540000000 1.0
C      1  0.4702300000000  0.5038090000000  0.3983850000000 1.0
C      1  0.5178200000000  0.5237330000000  0.3983850000000 1.0
C      1  0.5112800000000  0.4725560000000  0.3983850000000 1.0
C      1  0.4702230000000  0.5037830000000  0.6017850000000 1.0
C      1  0.5178020000000  0.5237510000000  0.6017850000000 1.0
C      1  0.5113050000000  0.4725620000000  0.6017850000000 1.0
C      1  0.4082640000000  0.4879160000000  0.4839490000000 1.0
C      1  0.5350400000000  0.5853420000000  0.4839490000000 1.0
C      1  0.5560260000000  0.4268390000000  0.4839490000000 1.0
C      1  0.4087730000000  0.4878330000000  0.5149790000000 1.0
C      1  0.5347130000000  0.5849430000000  0.5149790000000 1.0
C      1  0.5558430000000  0.4273210000000  0.5149790000000 1.0
C      1  0.5903460000000  0.4677970000000  0.4847530000000 1.0
C      1  0.4265760000000  0.4377150000000  0.4847530000000 1.0
C      1  0.4824080000000  0.5945850000000  0.4847530000000 1.0
C      1  0.5903490000000  0.4678420000000  0.5154970000000 1.0
C      1  0.4266130000000  0.4376890000000  0.5154970000000 1.0
C      1  0.4823680000000  0.5945660000000  0.5154970000000 1.0
C      1  0.4556800000000  0.5498680000000  0.4373450000000 1.0
C      1  0.5649830000000  0.5133040000000  0.4373450000000 1.0
C      1  0.4786660000000  0.4369260000000  0.4373450000000 1.0
C      1  0.4556460000000  0.5498870000000  0.5628560000000 1.0
C      1  0.5650180000000  0.5133230000000  0.5628560000000 1.0
C      1  0.4786670000000  0.4368870000000  0.5628560000000 1.0
C      1  0.5140000000000  0.4026070000000  0.5158040000000 1.0
C      1  0.4082920000000  0.5364270000000  0.5158040000000 1.0
C      1  0.5770380000000  0.5610630000000  0.5158040000000 1.0
C      1  0.5139960000000  0.4025840000000  0.4843870000000 1.0
C      1  0.4082730000000  0.5364420000000  0.4843870000000 1.0
C      1  0.5770600000000  0.5610720000000  0.4843870000000 1.0
C      1  0.4261060000000  0.5551480000000  0.5596650000000 1.0
C      1  0.5843440000000  0.5362750000000  0.5596650000000 1.0
C      1  0.4888800000000  0.4086740000000  0.5596650000000 1.0
C      1  0.4261440000000  0.5551660000000  0.4405230000000 1.0
C      1  0.5843390000000  0.5362330000000  0.4405230000000 1.0
C      1  0.4888460000000  0.4086990000000  0.4405230000000 1.0
C      1  0.5072690000000  0.4769820000000  0.4756890000000 1.0
C      1  0.4760680000000  0.5050690000000  0.4756890000000 1.0
C      1  0.5159930000000  0.5180460000000  0.4756890000000 1.0
C      1  0.5072880000000  0.4769880000000  0.5245420000000 1.0
C      1  0.4760640000000  0.5050490000000  0.5245420000000 1.0
C      1  0.5159780000000  0.5180600000000  0.5245420000000 1.0
C      1  0.4342670000000  0.4690700000000  0.4838740000000 1.0
C      1  0.5057170000000  0.5722470000000  0.4838740000000 1.0
C      1  0.5593460000000  0.4587810000000  0.4838740000000 1.0
C      1  0.4344370000000  0.4690010000000  0.5162750000000 1.0
C      1  0.5055730000000  0.5721340000000  0.5162750000000 1.0
C      1  0.5593200000000  0.4589620000000  0.5162750000000 1.0
C      1  0.5362930000000  0.5462890000000  0.6059610000000 1.0
C      1  0.5215780000000  0.4452800000000  0.6059610000000 1.0
C      1  0.4414590000000  0.5085280000000  0.6059610000000 1.0
C      1  0.5363280000000  0.5462510000000  0.3942130000000 1.0
C      1  0.5215280000000  0.4452690000000  0.3942130000000 1.0
C      1  0.4414740000000  0.5085770000000  0.3942130000000 1.0
C      1  0.5304360000000  0.4262430000000  0.5834550000000 1.0
C      1  0.4205430000000  0.5103760000000  0.5834560000000 1.0
C      1  0.5483510000000  0.5634790000000  0.5834550000000 1.0
C      1  0.5303840000000  0.4262420000000  0.4167120000000 1.0
C      1  0.4205680000000  0.5104210000000  0.4167130000000 1.0
C      1  0.5483770000000  0.5634350000000  0.4167130000000 1.0
C      1  0.4555220000000  0.5225820000000  0.4858050000000 1.0
C      1  0.5414320000000  0.5270840000000  0.4858050000000 1.0
C      1  0.5023760000000  0.4504320000000  0.4858050000000 1.0
C      1  0.4554820000000  0.5225180000000  0.5144040000000 1.0
C      1  0.5413970000000  0.5271500000000  0.5144040000000 1.0
C      1  0.5024510000000  0.4504290000000  0.5144040000000 1.0
C      1  0.5576160000000  0.4947170000000  0.5862270000000 1.0
C      1  0.4662540000000  0.4525990000000  0.5862270000000 1.0
C      1  0.4754600000000  0.5527800000000  0.5862270000000 1.0
C      1  0.5575890000000  0.4946720000000  0.4139960000000 1.0
C      1  0.4662280000000  0.4526450000000  0.4139960000000 1.0
C      1  0.4755120000000  0.5527800000000  0.4139960000000 1.0
C      1  0.5381270000000  0.4699780000000  0.4417970000000 1.0
C      1  0.4545740000000  0.4818470000000  0.4417970000000 1.0
C      1  0.5066290000000  0.5482720000000  0.4417970000000 1.0
C      1  0.5381580000000  0.4700150000000  0.5584300000000 1.0
C      1  0.4545910000000  0.4818010000000  0.5584300000000 1.0
C      1  0.5065810000000  0.5482800000000  0.5584300000000 1.0
C      1  0.4631610000000  0.4014840000000  0.4847600000000 1.0
C      1  0.4327390000000  0.5810170000000  0.4847600000000 1.0
C      1  0.6034300000000  0.5175960000000  0.4847600000000 1.0
C      1  0.4631730000000  0.4014580000000  0.5154300000000 1.0
C      1  0.4327110000000  0.5810190000000  0.5154300000000 1.0
C      1  0.6034460000000  0.5176200000000  0.5154300000000 1.0
C      1  0.5237180000000  0.5829040000000  0.4142780000000 1.0
C      1  0.5595740000000  0.4378620000000  0.4142780000000 1.0
C      1  0.4160370000000  0.4793310000000  0.4142780000000 1.0
C      1  0.5236700000000  0.5829250000000  0.5859420000000 1.0
C      1  0.5596170000000  0.4378940000000  0.5859410000000 1.0
C      1  0.4160430000000  0.4792780000000  0.5859420000000 1.0
C      1  0.5201660000000  0.5011900000000  0.5562630000000 1.0
C      1  0.4905850000000  0.4817960000000  0.5562630000000 1.0
C      1  0.4885790000000  0.5171110000000  0.5562630000000 1.0
C      1  0.5201730000000  0.5011700000000  0.4439710000000 1.0
C      1  0.4905630000000  0.4818000000000  0.4439710000000 1.0
C      1  0.4885930000000  0.5171270000000  0.4439710000000 1.0
C      1  0.5635620000000  0.4663470000000  0.4241360000000 1.0
C      1  0.4387110000000  0.4616350000000  0.4241360000000 1.0
C      1  0.4970560000000  0.5721150000000  0.4241360000000 1.0
C      1  0.5636000000000  0.4663860000000  0.5760970000000 1.0
C      1  0.4387270000000  0.4615830000000  0.5760970000000 1.0
C      1  0.4970030000000  0.5721280000000  0.5760970000000 1.0
C      1  0.4997770000000  0.5000320000000  0.5001160000000 1.0
END
