TITL C-862127-1500-596 -0.00017606968157161 125000 -579.515089580925 0 0 110 (Ci) n - 1
REM
REM in /home/nfs/bkarasulu/CARBON/AIRSS/Generating-Clusters/TERSOFF/Higher-Symm/FIRE-HFTN
REM
REM
REM
REM
REM
REM ./C.cell (b20cbc046b6831c77cfcea5457e17084)
REM AIRSS Version 0.9.1 bugfix July 2018 build 013d7b7c2542+ Fri, 06 Jul 2018 19:26:36 +0100
REM compiler GCC version 9.2.1 20190827 (Red Hat 9.2.1-1)
REM options -cpp -mtune=generic -march=x86-64 -g -O0 -fpre-include=/usr/include/finclude/math-vector-fortran.h
REM seed 396198487 275796313 -1314660464 -377293755 1064201391 354912869 -1710853396 2038921483 621764789 1436886660 912026751 617422534 -1645168670 1345146091 -981264431 -1534192344 -1997459850 -1746645471 1726204123 1809171311 -1579862507 -2101814944 -665016764 -1272681967 -427502766 1220891871 -796655320 156849355 -1446050696 155920652 -1387473113 -1777069549 1267117173
REM
CELL 1.54180   50.00000   50.00000   50.00000   90.00000   90.00000   90.00000
LATT -1
SFAC C  
C      1  0.4793280000000  0.5652260000000  0.4335170000000 1.0
C      1  0.4309520000000  0.4349360000000  0.4843420000000 1.0
C      1  0.4524590000000  0.5637740000000  0.5512780000000 1.0
C      1  0.5199660000000  0.4347740000000  0.5671460000000 1.0
C      1  0.5683420000000  0.5650640000000  0.5163210000000 1.0
C      1  0.5468350000000  0.4362260000000  0.4493850000000 1.0
C      1  0.4737890000000  0.5289210000000  0.5771950000000 1.0
C      1  0.5494260000000  0.4755520000000  0.5551720000000 1.0
C      1  0.5733800000000  0.5271710000000  0.4848330000000 1.0
C      1  0.5255060000000  0.4710790000000  0.4234680000000 1.0
C      1  0.4498690000000  0.5244480000000  0.4454910000000 1.0
C      1  0.4259150000000  0.4728290000000  0.5158300000000 1.0
C      1  0.4958600000000  0.5211100000000  0.3972480000000 1.0
C      1  0.4080590000000  0.4786010000000  0.4515750000000 1.0
C      1  0.4119050000000  0.5207470000000  0.5541580000000 1.0
C      1  0.5034340000000  0.4788900000000  0.6034150000000 1.0
C      1  0.5912350000000  0.5213990000000  0.5490880000000 1.0
C      1  0.5873890000000  0.4792530000000  0.4465050000000 1.0
C      1  0.5443120000000  0.5116830000000  0.5165320000000 1.0
C      1  0.5343760000000  0.4900540000000  0.4673440000000 1.0
C      1  0.4894400000000  0.5090100000000  0.4502560000000 1.0
C      1  0.4549830000000  0.4883170000000  0.4841310000000 1.0
C      1  0.4649190000000  0.5099460000000  0.5333190000000 1.0
C      1  0.5098540000000  0.4909900000000  0.5504070000000 1.0
C      1  0.4676480000000  0.5402620000000  0.4727360000000 1.0
C      1  0.4583280000000  0.4566690000000  0.5146830000000 1.0
C      1  0.4909870000000  0.5474770000000  0.5512480000000 1.0
C      1  0.5316470000000  0.4597380000000  0.5279270000000 1.0
C      1  0.5409670000000  0.5433310000000  0.4859800000000 1.0
C      1  0.5083080000000  0.4525230000000  0.4494150000000 1.0
C      1  0.5681510000000  0.5338480000000  0.5163100000000 1.0
C      1  0.5469260000000  0.4682710000000  0.4486830000000 1.0
C      1  0.4769870000000  0.5345050000000  0.4322730000000 1.0
C      1  0.4311440000000  0.4661520000000  0.4843530000000 1.0
C      1  0.4523690000000  0.5317290000000  0.5519800000000 1.0
C      1  0.5223070000000  0.4654950000000  0.5683900000000 1.0
C      1  0.4920410000000  0.4638280000000  0.4733370000000 1.0
C      1  0.4853420000000  0.5300370000000  0.5006020000000 1.0
C      1  0.4862240000000  0.4670880000000  0.5225160000000 1.0
C      1  0.5072530000000  0.5361720000000  0.5273260000000 1.0
C      1  0.5139530000000  0.4699630000000  0.5000610000000 1.0
C      1  0.5130710000000  0.5329120000000  0.4781470000000 1.0
C      1  0.5308360000000  0.5756180000000  0.4871380000000 1.0
C      1  0.5019590000000  0.4218730000000  0.4660400000000 1.0
C      1  0.4738480000000  0.5736660000000  0.4811650000000 1.0
C      1  0.4684590000000  0.4243820000000  0.5135250000000 1.0
C      1  0.4973350000000  0.5781270000000  0.5346230000000 1.0
C      1  0.5254460000000  0.4263340000000  0.5194980000000 1.0
C      1  0.4543260000000  0.4996750000000  0.5789510000000 1.0
C      1  0.5436230000000  0.5007910000000  0.5762200000000 1.0
C      1  0.5869310000000  0.4999390000000  0.5003290000000 1.0
C      1  0.5449690000000  0.5003250000000  0.4217120000000 1.0
C      1  0.4556710000000  0.4992090000000  0.4244430000000 1.0
C      1  0.4123640000000  0.5000610000000  0.5003340000000 1.0
C      1  0.5512690000000  0.5445600000000  0.4427870000000 1.0
C      1  0.4747310000000  0.4529820000000  0.4243160000000 1.0
C      1  0.4259230000000  0.5441050000000  0.4840620000000 1.0
C      1  0.4480250000000  0.4554400000000  0.5578760000000 1.0
C      1  0.5245640000000  0.5470180000000  0.5763470000000 1.0
C      1  0.5733720000000  0.4558950000000  0.5166010000000 1.0
C      1  0.4813110000000  0.4974400000000  0.4060820000000 1.0
C      1  0.4085970000000  0.5022650000000  0.4687980000000 1.0
C      1  0.4260710000000  0.4971400000000  0.5637880000000 1.0
C      1  0.5179830000000  0.5025600000000  0.5945810000000 1.0
C      1  0.5906980000000  0.4977350000000  0.5318650000000 1.0
C      1  0.5732240000000  0.5028600000000  0.4368750000000 1.0
C      1  0.5584380000000  0.4301050000000  0.5108830000000 1.0
C      1  0.5407380000000  0.5712910000000  0.4526830000000 1.0
C      1  0.4768100000000  0.4263620000000  0.4403950000000 1.0
C      1  0.4408570000000  0.5698950000000  0.4897800000000 1.0
C      1  0.4585570000000  0.4287090000000  0.5479800000000 1.0
C      1  0.5224850000000  0.5736380000000  0.5602680000000 1.0
C      1  0.4816970000000  0.4875500000000  0.5435500000000 1.0
C      1  0.5253070000000  0.5145140000000  0.5390310000000 1.0
C      1  0.5421160000000  0.4887170000000  0.4966800000000 1.0
C      1  0.5175980000000  0.5124500000000  0.4571130000000 1.0
C      1  0.4739880000000  0.4854860000000  0.4616320000000 1.0
C      1  0.4571790000000  0.5112830000000  0.5039830000000 1.0
C      1  0.4958980000000  0.4708620000000  0.4112310000000 1.0
C      1  0.4227010000000  0.5280160000000  0.4591380000000 1.0
C      1  0.4254090000000  0.4711400000000  0.5469860000000 1.0
C      1  0.5033970000000  0.5291380000000  0.5894320000000 1.0
C      1  0.5765940000000  0.4719840000000  0.5415250000000 1.0
C      1  0.5738850000000  0.5288600000000  0.4536770000000 1.0
C      1  0.4732590000000  0.5610020000000  0.5149080000000 1.0
C      1  0.4964890000000  0.4372540000000  0.5324510000000 1.0
C      1  0.5265590000000  0.5635620000000  0.5198030000000 1.0
C      1  0.5260360000000  0.4389980000000  0.4857550000000 1.0
C      1  0.5028060000000  0.5627460000000  0.4682130000000 1.0
C      1  0.4727360000000  0.4364380000000  0.4808600000000 1.0
C      1  0.5668160000000  0.5406640000000  0.5504310000000 1.0
C      1  0.5746500000000  0.4613390000000  0.4681810000000 1.0
C      1  0.5091640000000  0.5402140000000  0.4178130000000 1.0
C      1  0.4324790000000  0.4593360000000  0.4502320000000 1.0
C      1  0.4246440000000  0.5386610000000  0.5324820000000 1.0
C      1  0.4901300000000  0.4597860000000  0.5828500000000 1.0
C      1  0.4479210000000  0.4276790000000  0.4584830000000 1.0
C      1  0.4400090000000  0.5699410000000  0.5230050000000 1.0
C      1  0.4890210000000  0.4285100000000  0.5645640000000 1.0
C      1  0.5513740000000  0.5723210000000  0.5421800000000 1.0
C      1  0.5592860000000  0.4300590000000  0.4776580000000 1.0
C      1  0.5102730000000  0.5714900000000  0.4361000000000 1.0
C      1  0.4568480000000  0.4724040000000  0.4387590000000 1.0
C      1  0.4287240000000  0.5248270000000  0.5063210000000 1.0
C      1  0.4685330000000  0.4745890000000  0.5680300000000 1.0
C      1  0.5424470000000  0.5275960000000  0.5619040000000 1.0
C      1  0.5705710000000  0.4751730000000  0.4943420000000 1.0
C      1  0.5307610000000  0.5254110000000  0.4326330000000 1.0
C      1  0.4991460000000  0.4104460000000  0.5003500000000 1.0
C      1  0.5001480000000  0.5895540000000  0.5003130000000 1.0
END
