TITL C-862134-6730-247 -5.0236799356067e-05 125000 -198.416453869239 0 0 40 (D2) n - 1
REM
REM in /home/nfs/bkarasulu/CARBON/AIRSS/Generating-Clusters/TERSOFF/Higher-Symm/FIRE-HFTN
REM
REM
REM
REM
REM
REM ./C.cell (b20cbc046b6831c77cfcea5457e17084)
REM AIRSS Version 0.9.1 bugfix July 2018 build 013d7b7c2542+ Fri, 06 Jul 2018 19:26:36 +0100
REM compiler GCC version 9.2.1 20190827 (Red Hat 9.2.1-1)
REM options -cpp -mtune=generic -march=x86-64 -g -O0 -fpre-include=/usr/include/finclude/math-vector-fortran.h
REM seed -1315112536 324433142 -1298730350 1273869326 -915260345 749066603 -1563750107 1903483255 1494300542 1999819729 -1403981919 -1218342178 -714061709 -1060124241 1947121495 -1027952236 152309712 -905416859 931824288 835853645 1765569549 722798076 -1083166356 259368380 -1600856472 -2127318512 1119753013 905147633 -676208315 1521668660 1280020751 1672265224 449744888
REM
CELL 1.54180   50.00000   50.00000   50.00000   90.00000   90.00000   90.00000
LATT -1
SFAC C  
C      1  0.5257710000000  0.4795660000000  0.4445190000000 1.0
C      1  0.4742290000000  0.5204340000000  0.4445190000000 1.0
C      1  0.4742290000000  0.4795660000000  0.5554810000000 1.0
C      1  0.5257710000000  0.5204340000000  0.5554810000000 1.0
C      1  0.5407650000000  0.4634850000000  0.5389390000000 1.0
C      1  0.4592350000000  0.5365150000000  0.5389390000000 1.0
C      1  0.4592350000000  0.4634850000000  0.4610610000000 1.0
C      1  0.5407650000000  0.5365150000000  0.4610610000000 1.0
C      1  0.4923670000000  0.4877200000000  0.5764830000000 1.0
C      1  0.5076330000000  0.5122800000000  0.5764830000000 1.0
C      1  0.5076330000000  0.4877200000000  0.4235170000000 1.0
C      1  0.4923670000000  0.5122800000000  0.4235170000000 1.0
C      1  0.4637320000000  0.4465060000000  0.5127910000000 1.0
C      1  0.5362680000000  0.5534940000000  0.5127910000000 1.0
C      1  0.5362680000000  0.4465060000000  0.4872090000000 1.0
C      1  0.4637320000000  0.5534940000000  0.4872090000000 1.0
C      1  0.4864270000000  0.4368260000000  0.4938490000000 1.0
C      1  0.5135730000000  0.5631740000000  0.4938490000000 1.0
C      1  0.5135730000000  0.4368260000000  0.5061510000000 1.0
C      1  0.4864270000000  0.5631740000000  0.5061510000000 1.0
C      1  0.5125020000000  0.5366900000000  0.4766810000000 1.0
C      1  0.4874980000000  0.4633100000000  0.4766810000000 1.0
C      1  0.4874980000000  0.5366900000000  0.5233190000000 1.0
C      1  0.5125020000000  0.4633100000000  0.5233190000000 1.0
C      1  0.4509150000000  0.4435960000000  0.4417480000000 1.0
C      1  0.5490850000000  0.5564040000000  0.4417480000000 1.0
C      1  0.5490850000000  0.4435960000000  0.5582520000000 1.0
C      1  0.4509150000000  0.5564040000000  0.5582520000000 1.0
C      1  0.4475110000000  0.5339550000000  0.5087260000000 1.0
C      1  0.5524890000000  0.4660450000000  0.5087260000000 1.0
C      1  0.5524890000000  0.5339550000000  0.4912740000000 1.0
C      1  0.4475110000000  0.4660450000000  0.4912740000000 1.0
C      1  0.5175810000000  0.4697630000000  0.4706300000000 1.0
C      1  0.4824190000000  0.5302370000000  0.4706300000000 1.0
C      1  0.4824190000000  0.4697630000000  0.5293700000000 1.0
C      1  0.5175810000000  0.5302370000000  0.5293700000000 1.0
C      1  0.5261090000000  0.5144600000000  0.5012610000000 1.0
C      1  0.4738910000000  0.4855400000000  0.5012610000000 1.0
C      1  0.4738910000000  0.5144600000000  0.4987390000000 1.0
C      1  0.5261090000000  0.4855400000000  0.4987390000000 1.0
END
