TITL C-862134-6730-1041 0.00127868362035535 125000 -239.488297476516 0 0 43 (C1) n - 1
REM
REM in /home/nfs/bkarasulu/CARBON/AIRSS/Generating-Clusters/TERSOFF/Higher-Symm/FIRE-HFTN
REM
REM
REM
REM
REM
REM ./C.cell (b20cbc046b6831c77cfcea5457e17084)
REM AIRSS Version 0.9.1 bugfix July 2018 build 013d7b7c2542+ Fri, 06 Jul 2018 19:26:36 +0100
REM compiler GCC version 9.2.1 20190827 (Red Hat 9.2.1-1)
REM options -cpp -mtune=generic -march=x86-64 -g -O0 -fpre-include=/usr/include/finclude/math-vector-fortran.h
REM seed 1301993229 -1168933372 1317661743 1860718474 1274243805 -2065610602 -1139969702 1714975906 -720639367 -466758165 -1285390365 244552747 -101463823 1355550921 -1860644457 -2084831662 1578667842 919463359 -82836956 -1923443460 -746456155 942437343 401703076 1185278423 1419376215 1024176776 1082612498 248999583 400541523 623610451 -209713991 -1282696567 477040504
REM
CELL 1.54180   50.00000   50.00000   50.00000   90.00000   90.00000   90.00000
LATT -1
SFAC C  
C      1  0.4375480000000  0.5229110000000  0.4486450000000 1.0
C      1  0.4932560000000  0.4654470000000  0.4430460000000 1.0
C      1  0.4819160000000  0.4935140000000  0.4494460000000 1.0
C      1  0.5057270000000  0.5507660000000  0.4757780000000 1.0
C      1  0.4816410000000  0.5491520000000  0.5294520000000 1.0
C      1  0.4620560000000  0.4991560000000  0.5501060000000 1.0
C      1  0.4895700000000  0.5753120000000  0.5173890000000 1.0
C      1  0.4752970000000  0.4841940000000  0.5042510000000 1.0
C      1  0.4893650000000  0.5282750000000  0.4851760000000 1.0
C      1  0.5399350000000  0.5078930000000  0.4582660000000 1.0
C      1  0.5118920000000  0.5412610000000  0.5724130000000 1.0
C      1  0.4701480000000  0.5330610000000  0.5060210000000 1.0
C      1  0.5270500000000  0.4861650000000  0.5557440000000 1.0
C      1  0.4930390000000  0.4997300000000  0.4774040000000 1.0
C      1  0.5345630000000  0.4960920000000  0.5818110000000 1.0
C      1  0.4806090000000  0.4374260000000  0.4853440000000 1.0
C      1  0.5550830000000  0.4607680000000  0.4990590000000 1.0
C      1  0.4307740000000  0.5329740000000  0.4749210000000 1.0
C      1  0.4679090000000  0.4550540000000  0.5039250000000 1.0
C      1  0.5143370000000  0.4452500000000  0.5249560000000 1.0
C      1  0.4912070000000  0.4596440000000  0.5385480000000 1.0
C      1  0.5418390000000  0.4817430000000  0.4413970000000 1.0
C      1  0.5032950000000  0.5753950000000  0.4916400000000 1.0
C      1  0.4472100000000  0.4910800000000  0.4950640000000 1.0
C      1  0.5332630000000  0.5023440000000  0.5175180000000 1.0
C      1  0.5510270000000  0.5285740000000  0.4787150000000 1.0
C      1  0.4710750000000  0.4533630000000  0.4611780000000 1.0
C      1  0.5334950000000  0.4801360000000  0.4998460000000 1.0
C      1  0.5285880000000  0.4428720000000  0.4718270000000 1.0
C      1  0.5449500000000  0.5272990000000  0.5080120000000 1.0
C      1  0.5302460000000  0.5470470000000  0.5246620000000 1.0
C      1  0.4514230000000  0.4975050000000  0.4450940000000 1.0
C      1  0.5351210000000  0.4601840000000  0.5427860000000 1.0
C      1  0.5212670000000  0.4920290000000  0.4765150000000 1.0
C      1  0.5071850000000  0.5363930000000  0.5431620000000 1.0
C      1  0.4842320000000  0.4890280000000  0.5332630000000 1.0
C      1  0.5095470000000  0.4375370000000  0.4937530000000 1.0
C      1  0.5230000000000  0.5488310000000  0.4525760000000 1.0
C      1  0.4431160000000  0.5211180000000  0.4987240000000 1.0
C      1  0.4479050000000  0.4758300000000  0.4666020000000 1.0
C      1  0.5264240000000  0.5228070000000  0.5899950000000 1.0
C      1  0.5104030000000  0.5047840000000  0.5376700000000 1.0
C      1  0.5224670000000  0.4600560000000  0.4482990000000 1.0
END
