TITL C-862131-2149-750 -3.41231685242922e-05 125000 -467.783676996259 0 0 82 (C2) n - 1
REM
REM in /home/nfs/bkarasulu/CARBON/AIRSS/Generating-Clusters/TERSOFF/Higher-Symm/FIRE-HFTN
REM
REM
REM
REM
REM
REM ./C.cell (b20cbc046b6831c77cfcea5457e17084)
REM AIRSS Version 0.9.1 bugfix July 2018 build 013d7b7c2542+ Fri, 06 Jul 2018 19:26:36 +0100
REM compiler GCC version 9.2.1 20190827 (Red Hat 9.2.1-1)
REM options -cpp -mtune=generic -march=x86-64 -g -O0 -fpre-include=/usr/include/finclude/math-vector-fortran.h
REM seed 2142815440 1886775301 125304965 -206770514 -1143718065 -1665178003 -2032994455 -381842505 -1602134679 -410337988 -233908395 623544540 -288460469 -2055786228 -1837313447 1480418827 1530002134 -415864596 -1607850247 783082975 434535926 -2116609378 756060077 471463255 829595106 -117364119 1285210811 1333909649 884296808 -282926490 -1560537756 381359638 1509369868
REM
CELL 1.54180   50.00000   50.00000   50.00000   90.00000   90.00000   90.00000
LATT -1
SFAC C  
C      1  0.4767310000000  0.4904920000000  0.5893730000000 1.0
C      1  0.5232690000000  0.5095080000000  0.5893730000000 1.0
C      1  0.4772910000000  0.4892860000000  0.4125060000000 1.0
C      1  0.5227090000000  0.5107140000000  0.4125060000000 1.0
C      1  0.5035680000000  0.5206010000000  0.4860210000000 1.0
C      1  0.4964320000000  0.4793990000000  0.4860210000000 1.0
C      1  0.5036780000000  0.5205830000000  0.5160150000000 1.0
C      1  0.4963220000000  0.4794170000000  0.5160150000000 1.0
C      1  0.5773350000000  0.5046680000000  0.5167870000000 1.0
C      1  0.4226650000000  0.4953320000000  0.5167870000000 1.0
C      1  0.5771970000000  0.5055760000000  0.4844380000000 1.0
C      1  0.4228030000000  0.4944240000000  0.4844380000000 1.0
C      1  0.4652950000000  0.5361130000000  0.5692790000000 1.0
C      1  0.5347050000000  0.4638870000000  0.5692790000000 1.0
C      1  0.4645760000000  0.5346180000000  0.4311980000000 1.0
C      1  0.5354240000000  0.4653820000000  0.4311980000000 1.0
C      1  0.5620670000000  0.4711290000000  0.4398370000000 1.0
C      1  0.4379330000000  0.5288710000000  0.4398370000000 1.0
C      1  0.5614180000000  0.4692770000000  0.5604730000000 1.0
C      1  0.4385820000000  0.5307230000000  0.5604730000000 1.0
C      1  0.5491540000000  0.5217700000000  0.4850740000000 1.0
C      1  0.4508460000000  0.4782300000000  0.4850740000000 1.0
C      1  0.5495990000000  0.5211460000000  0.5169620000000 1.0
C      1  0.4504010000000  0.4788540000000  0.5169620000000 1.0
C      1  0.5480130000000  0.5713000000000  0.4857070000000 1.0
C      1  0.4519870000000  0.4287000000000  0.4857070000000 1.0
C      1  0.5507150000000  0.5708020000000  0.5176480000000 1.0
C      1  0.4492850000000  0.4291980000000  0.5176480000000 1.0
C      1  0.5126780000000  0.4772840000000  0.4457900000000 1.0
C      1  0.4873220000000  0.5227160000000  0.4457900000000 1.0
C      1  0.5118370000000  0.4769800000000  0.5558070000000 1.0
C      1  0.4881630000000  0.5230200000000  0.5558070000000 1.0
C      1  0.4333390000000  0.5421820000000  0.5321280000000 1.0
C      1  0.5666610000000  0.4578180000000  0.5321280000000 1.0
C      1  0.4333150000000  0.5406210000000  0.4678670000000 1.0
C      1  0.5666850000000  0.4593790000000  0.4678670000000 1.0
C      1  0.5262250000000  0.4951790000000  0.5280350000000 1.0
C      1  0.4737750000000  0.5048210000000  0.5280350000000 1.0
C      1  0.5262990000000  0.4954390000000  0.4738680000000 1.0
C      1  0.4737010000000  0.5045610000000  0.4738680000000 1.0
C      1  0.4433090000000  0.5200910000000  0.5164140000000 1.0
C      1  0.5566910000000  0.4799090000000  0.5164140000000 1.0
C      1  0.4433040000000  0.5193850000000  0.4845750000000 1.0
C      1  0.5566960000000  0.4806150000000  0.4845750000000 1.0
C      1  0.5519650000000  0.5455520000000  0.5318520000000 1.0
C      1  0.4480350000000  0.4544480000000  0.5318520000000 1.0
C      1  0.5501670000000  0.5465450000000  0.4708380000000 1.0
C      1  0.4498330000000  0.4534550000000  0.4708380000000 1.0
C      1  0.5061410000000  0.5458510000000  0.4525610000000 1.0
C      1  0.4938590000000  0.4541490000000  0.4525610000000 1.0
C      1  0.5080500000000  0.5455770000000  0.5497090000000 1.0
C      1  0.4919500000000  0.4544230000000  0.5497090000000 1.0
C      1  0.4428800000000  0.5664140000000  0.5173520000000 1.0
C      1  0.5571200000000  0.4335860000000  0.5173520000000 1.0
C      1  0.4422280000000  0.5656850000000  0.4811210000000 1.0
C      1  0.5577720000000  0.4343150000000  0.4811210000000 1.0
C      1  0.5259400000000  0.4266450000000  0.5185590000000 1.0
C      1  0.4740600000000  0.5733550000000  0.5185590000000 1.0
C      1  0.5272550000000  0.4299890000000  0.4880420000000 1.0
C      1  0.4727450000000  0.5700110000000  0.4880420000000 1.0
C      1  0.5356000000000  0.5429540000000  0.4464090000000 1.0
C      1  0.4644000000000  0.4570460000000  0.4464090000000 1.0
C      1  0.5372680000000  0.5417600000000  0.5561620000000 1.0
C      1  0.4627320000000  0.4582400000000  0.5561620000000 1.0
C      1  0.4803550000000  0.4155310000000  0.4844670000000 1.0
C      1  0.5196450000000  0.5844690000000  0.4844670000000 1.0
C      1  0.4777860000000  0.4168760000000  0.5166640000000 1.0
C      1  0.5222140000000  0.5831240000000  0.5166640000000 1.0
C      1  0.5670880000000  0.4989850000000  0.5659290000000 1.0
C      1  0.4329120000000  0.5010150000000  0.5659290000000 1.0
C      1  0.5668240000000  0.5012340000000  0.4354170000000 1.0
C      1  0.4331760000000  0.4987660000000  0.4354170000000 1.0
C      1  0.4550530000000  0.4787930000000  0.4275710000000 1.0
C      1  0.5449470000000  0.5212070000000  0.4275710000000 1.0
C      1  0.4541570000000  0.4806180000000  0.5743780000000 1.0
C      1  0.5458430000000  0.5193820000000  0.5743780000000 1.0
C      1  0.5022780000000  0.4307640000000  0.4713150000000 1.0
C      1  0.4977220000000  0.5692360000000  0.4713150000000 1.0
C      1  0.4992660000000  0.4306270000000  0.5317130000000 1.0
C      1  0.5007340000000  0.5693730000000  0.5317130000000 1.0
C      1  0.5000000000000  0.5000000000000  0.5742360000000 1.0
C      1  0.5000000000000  0.5000000000000  0.4276510000000 1.0
END
