TITL C-862134-6730-307 -0.062220160540294 125000 -903.260170244632 0 0 157 (C5) n - 1
REM
REM in /home/nfs/bkarasulu/CARBON/AIRSS/Generating-Clusters/TERSOFF/Higher-Symm/FIRE-HFTN
REM
REM
REM
REM
REM
REM ./C.cell (b20cbc046b6831c77cfcea5457e17084)
REM AIRSS Version 0.9.1 bugfix July 2018 build 013d7b7c2542+ Fri, 06 Jul 2018 19:26:36 +0100
REM compiler GCC version 9.2.1 20190827 (Red Hat 9.2.1-1)
REM options -cpp -mtune=generic -march=x86-64 -g -O0 -fpre-include=/usr/include/finclude/math-vector-fortran.h
REM seed 2109876888 -1632626972 -1393145246 627178461 -1065973749 734067352 1389831925 1299441926 809093692 831984386 1134269440 1466024784 -830663408 1740083444 769211217 1779615920 435837915 1525242419 239755588 -343759083 -1536691502 -233359270 -1267784846 -417234937 -1593215172 -1495602500 -412404742 -2137889522 -297468624 -212696237 1591213852 1977160314 597987101
REM
CELL 1.54180   50.00000   50.00000   50.00000   90.00000   90.00000   90.00000
LATT -1
SFAC C  
C      1  0.4942230000000  0.5913170000000  0.4433300000000 1.0
C      1  0.4942220000000  0.4749070000000  0.3954480000000 1.0
C      1  0.4942220000000  0.3933960000000  0.4913630000000 1.0
C      1  0.4942230000000  0.4594290000000  0.5985240000000 1.0
C      1  0.4942240000000  0.5817500000000  0.5688380000000 1.0
C      1  0.5602330000000  0.5694410000000  0.5403530000000 1.0
C      1  0.5602320000000  0.5604220000000  0.4462340000000 1.0
C      1  0.5602310000000  0.4681230000000  0.4257270000000 1.0
C      1  0.5602320000000  0.4200970000000  0.5071720000000 1.0
C      1  0.5602330000000  0.4827150000000  0.5780150000000 1.0
C      1  0.5393360000000  0.4575630000000  0.5334560000000 1.0
C      1  0.5393360000000  0.5192910000000  0.5505050000000 1.0
C      1  0.5393360000000  0.5545800000000  0.4970670000000 1.0
C      1  0.5393350000000  0.5146620000000  0.4469920000000 1.0
C      1  0.5393350000000  0.4547020000000  0.4694820000000 1.0
C      1  0.5113510000000  0.5150480000000  0.5195030000000 1.0
C      1  0.5113510000000  0.5237840000000  0.4915220000000 1.0
C      1  0.5113510000000  0.4998720000000  0.4745670000000 1.0
C      1  0.5113510000000  0.4763580000000  0.4920690000000 1.0
C      1  0.5113510000000  0.4857370000000  0.5198410000000 1.0
C      1  0.5171830000000  0.4278200000000  0.5534070000000 1.0
C      1  0.5171840000000  0.5290740000000  0.5849580000000 1.0
C      1  0.5171840000000  0.5903690000000  0.4984090000000 1.0
C      1  0.5171830000000  0.5269980000000  0.4133690000000 1.0
C      1  0.5171820000000  0.4265370000000  0.4473600000000 1.0
C      1  0.4695310000000  0.4733710000000  0.4943020000000 1.0
C      1  0.4695310000000  0.4869370000000  0.5233730000000 1.0
C      1  0.4695310000000  0.5187770000000  0.5194530000000 1.0
C      1  0.4695310000000  0.5248890000000  0.4879610000000 1.0
C      1  0.4695300000000  0.4968260000000  0.4724170000000 1.0
C      1  0.5396160000000  0.5902890000000  0.5504610000000 1.0
C      1  0.5396150000000  0.5764780000000  0.4295300000000 1.0
C      1  0.5396140000000  0.4571970000000  0.4052950000000 1.0
C      1  0.5396150000000  0.3972890000000  0.5112490000000 1.0
C      1  0.5396160000000  0.4795440000000  0.6009670000000 1.0
C      1  0.5242300000000  0.3910530000000  0.4841950000000 1.0
C      1  0.5242310000000  0.4518880000000  0.5985370000000 1.0
C      1  0.5242320000000  0.5794320000000  0.5760140000000 1.0
C      1  0.5242310000000  0.5974250000000  0.4477520000000 1.0
C      1  0.5242300000000  0.4810000000000  0.3910050000000 1.0
C      1  0.5937580000000  0.4565030000000  0.5239090000000 1.0
C      1  0.5937590000000  0.5098830000000  0.5485620000000 1.0
C      1  0.5937580000000  0.5498250000000  0.5054130000000 1.0
C      1  0.5937580000000  0.5211300000000  0.4540920000000 1.0
C      1  0.5937570000000  0.4634540000000  0.4655240000000 1.0
C      1  0.4312480000000  0.4943160000000  0.4125900000000 1.0
C      1  0.4312480000000  0.4156970000000  0.4782020000000 1.0
C      1  0.4312490000000  0.4538030000000  0.5732490000000 1.0
C      1  0.4312500000000  0.5559730000000  0.5663790000000 1.0
C      1  0.4312490000000  0.5810120000000  0.4670870000000 1.0
C      1  0.5760080000000  0.4460650000000  0.4496530000000 1.0
C      1  0.5760090000000  0.4360360000000  0.5355430000000 1.0
C      1  0.5760090000000  0.5146230000000  0.5716230000000 1.0
C      1  0.5760090000000  0.5732220000000  0.5080320000000 1.0
C      1  0.5760080000000  0.5308510000000  0.4326500000000 1.0
C      1  0.4331770000000  0.4447450000000  0.4702770000000 1.0
C      1  0.4331780000000  0.4552410000000  0.5431740000000 1.0
C      1  0.4331780000000  0.5278140000000  0.5557170000000 1.0
C      1  0.4331780000000  0.5621700000000  0.4905730000000 1.0
C      1  0.4331770000000  0.5108300000000  0.4377670000000 1.0
C      1  0.4438900000000  0.4892390000000  0.4581880000000 1.0
C      1  0.4438910000000  0.4574940000000  0.4971220000000 1.0
C      1  0.4438910000000  0.4847120000000  0.5393440000000 1.0
C      1  0.4438910000000  0.5332790000000  0.5265050000000 1.0
C      1  0.4438910000000  0.5360770000000  0.4763480000000 1.0
C      1  0.4480370000000  0.4351210000000  0.5894300000000 1.0
C      1  0.4480380000000  0.5655900000000  0.5891470000000 1.0
C      1  0.4480370000000  0.6056370000000  0.4649760000000 1.0
C      1  0.4480350000000  0.4999190000000  0.3885180000000 1.0
C      1  0.4480360000000  0.3945340000000  0.4654350000000 1.0
C      1  0.4927540000000  0.5187800000000  0.4282490000000 1.0
C      1  0.4927540000000  0.4381490000000  0.4597740000000 1.0
C      1  0.4927550000000  0.4432140000000  0.5462000000000 1.0
C      1  0.4927550000000  0.5269770000000  0.5680900000000 1.0
C      1  0.4927550000000  0.5736790000000  0.4951920000000 1.0
C      1  0.4949020000000  0.4101870000000  0.5159450000000 1.0
C      1  0.4949030000000  0.4879960000000  0.5901520000000 1.0
C      1  0.4949030000000  0.5826150000000  0.5390820000000 1.0
C      1  0.4949020000000  0.5632840000000  0.4333120000000 1.0
C      1  0.4949010000000  0.4567170000000  0.4190130000000 1.0
C      1  0.4253810000000  0.5622180000000  0.4438410000000 1.0
C      1  0.4253800000000  0.4664010000000  0.4232810000000 1.0
C      1  0.4253810000000  0.4172380000000  0.5080550000000 1.0
C      1  0.4253820000000  0.4826710000000  0.5810090000000 1.0
C      1  0.4253820000000  0.5722730000000  0.5413220000000 1.0
C      1  0.5516770000000  0.4944910000000  0.4642330000000 1.0
C      1  0.5516770000000  0.4648670000000  0.4939940000000 1.0
C      1  0.5516780000000  0.4840160000000  0.5313640000000 1.0
C      1  0.5516780000000  0.5254750000000  0.5247000000000 1.0
C      1  0.5516770000000  0.5319490000000  0.4832110000000 1.0
C      1  0.5369970000000  0.4415160000000  0.5104460000000 1.0
C      1  0.5369970000000  0.4924480000000  0.5586570000000 1.0
C      1  0.5369970000000  0.5540370000000  0.5251150000000 1.0
C      1  0.5369970000000  0.5411700000000  0.4561750000000 1.0
C      1  0.5369960000000  0.4716280000000  0.4471090000000 1.0
C      1  0.4740360000000  0.5790980000000  0.5172980000000 1.0
C      1  0.4740350000000  0.5414790000000  0.4299260000000 1.0
C      1  0.4740350000000  0.4467590000000  0.4387040000000 1.0
C      1  0.4740350000000  0.4258370000000  0.5315010000000 1.0
C      1  0.4740360000000  0.5076270000000  0.5800750000000 1.0
C      1  0.4940000000000  0.4522180000000  0.4859170000000 1.0
C      1  0.4940000000000  0.4724260000000  0.5408980000000 1.0
C      1  0.4940010000000  0.5309610000000  0.5386700000000 1.0
C      1  0.4940000000000  0.5469300000000  0.4823110000000 1.0
C      1  0.4940000000000  0.4982640000000  0.4497080000000 1.0
C      1  0.5200400000000  0.4363820000000  0.4175750000000 1.0
C      1  0.5200400000000  0.4025350000000  0.5348410000000 1.0
C      1  0.5200420000000  0.5036030000000  0.6032680000000 1.0
C      1  0.5200420000000  0.5999120000000  0.5282920000000 1.0
C      1  0.5200400000000  0.5583670000000  0.4135280000000 1.0
C      1  0.4700450000000  0.3804980000000  0.4800560000000 1.0
C      1  0.4700460000000  0.4446890000000  0.6072970000000 1.0
C      1  0.4700470000000  0.5855390000000  0.5855680000000 1.0
C      1  0.4700450000000  0.6083980000000  0.4448970000000 1.0
C      1  0.4700440000000  0.4816760000000  0.3796870000000 1.0
C      1  0.5088300000000  0.4843940000000  0.5632630000000 1.0
C      1  0.5088310000000  0.5559290000000  0.5341980000000 1.0
C      1  0.5088300000000  0.5503930000000  0.4571830000000 1.0
C      1  0.5088290000000  0.4754360000000  0.4386500000000 1.0
C      1  0.5088300000000  0.4346470000000  0.5042110000000 1.0
C      1  0.4427810000000  0.5240470000000  0.3730640000000 1.0
C      1  0.4427800000000  0.3872920000000  0.4377130000000 1.0
C      1  0.4427820000000  0.4065180000000  0.5877510000000 1.0
C      1  0.4427830000000  0.5551540000000  0.6158310000000 1.0
C      1  0.4427820000000  0.6277910000000  0.4831470000000 1.0
C      1  0.5833150000000  0.4851100000000  0.5318200000000 1.0
C      1  0.5833150000000  0.5262470000000  0.5238000000000 1.0
C      1  0.5833150000000  0.5313310000000  0.4821980000000 1.0
C      1  0.5833140000000  0.4933370000000  0.4645070000000 1.0
C      1  0.5833150000000  0.4647710000000  0.4951750000000 1.0
C      1  0.4077410000000  0.4453310000000  0.5205320000000 1.0
C      1  0.4077420000000  0.5032180000000  0.5581460000000 1.0
C      1  0.4077420000000  0.5568790000000  0.5147160000000 1.0
C      1  0.4077410000000  0.5321570000000  0.4502600000000 1.0
C      1  0.4077410000000  0.4632160000000  0.4538550000000 1.0
C      1  0.4167240000000  0.5175050000000  0.4789300000000 1.0
C      1  0.4167240000000  0.4859560000000  0.4766490000000 1.0
C      1  0.4167240000000  0.4740370000000  0.5059490000000 1.0
C      1  0.4167240000000  0.4982200000000  0.5263390000000 1.0
C      1  0.4167240000000  0.5250840000000  0.5096400000000 1.0
C      1  0.5359720000000  0.5071690000000  0.4013460000000 1.0
C      1  0.5359720000000  0.4089750000000  0.4625020000000 1.0
C      1  0.5359730000000  0.4367950000000  0.5747890000000 1.0
C      1  0.5359740000000  0.5521830000000  0.5830300000000 1.0
C      1  0.5359730000000  0.5956760000000  0.4758360000000 1.0
C      1  0.4484500000000  0.5389580000000  0.4430250000000 1.0
C      1  0.4484500000000  0.4584370000000  0.4451500000000 1.0
C      1  0.4484500000000  0.4355760000000  0.5223870000000 1.0
C      1  0.4484510000000  0.5019680000000  0.5679970000000 1.0
C      1  0.4484510000000  0.5658620000000  0.5189490000000 1.0
C      1  0.5632760000000  0.5026100000000  0.4148710000000 1.0
C      1  0.5632760000000  0.4204300000000  0.4710180000000 1.0
C      1  0.5632770000000  0.4484340000000  0.5665260000000 1.0
C      1  0.5632780000000  0.5479210000000  0.5694070000000 1.0
C      1  0.5632770000000  0.5814040000000  0.4756790000000 1.0
C      1  0.5892980000000  0.5001590000000  0.4995000000000 1.0
C      1  0.5451080000000  0.5001600000000  0.4995000000000 1.0
END
