TITL C-862128-1543-972 -0.00397043705933595 125000 -568.726980674555 0 0 102 (C3) n - 1
REM
REM in /home/nfs/bkarasulu/CARBON/AIRSS/Generating-Clusters/TERSOFF/Higher-Symm/FIRE-HFTN
REM
REM
REM
REM
REM
REM ./C.cell (b20cbc046b6831c77cfcea5457e17084)
REM AIRSS Version 0.9.1 bugfix July 2018 build 013d7b7c2542+ Fri, 06 Jul 2018 19:26:36 +0100
REM compiler GCC version 9.2.1 20190827 (Red Hat 9.2.1-1)
REM options -cpp -mtune=generic -march=x86-64 -g -O0 -fpre-include=/usr/include/finclude/math-vector-fortran.h
REM seed -1568449584 -880545640 1702614465 -829826425 1559684106 -503622172 1877213994 1768754217 1870378483 -1215647893 -1122254421 -449890068 -415228520 1817162054 -350492692 1536795719 754827536 1615570130 -685065898 -872103511 1252401082 -1139551568 1069451020 436561944 -1668100746 -777868751 1364307087 -1772149118 769721720 1732627105 1509049857 -321940314 -1474470826
REM
CELL 1.54180   50.00000   50.00000   50.00000   90.00000   90.00000   90.00000
LATT -1
SFAC C  
C      1  0.4121600000000  0.4761720000000  0.5254920000000 1.0
C      1  0.5659970000000  0.4761720000000  0.5633250000000 1.0
C      1  0.5218430000000  0.4761720000000  0.4111830000000 1.0
C      1  0.5985830000000  0.4809890000000  0.5186710000000 1.0
C      1  0.4668780000000  0.4809900000000  0.4052890000000 1.0
C      1  0.4345390000000  0.4809900000000  0.5760400000000 1.0
C      1  0.5312590000000  0.4299210000000  0.4518680000000 1.0
C      1  0.4426870000000  0.4299210000000  0.4969950000000 1.0
C      1  0.5260540000000  0.4299210000000  0.5511370000000 1.0
C      1  0.4290060000000  0.4559150000000  0.5056130000000 1.0
C      1  0.5403580000000  0.4559150000000  0.5586760000000 1.0
C      1  0.5306360000000  0.4559150000000  0.4357110000000 1.0
C      1  0.5235210000000  0.5765260000000  0.5606850000000 1.0
C      1  0.5407940000000  0.5765260000000  0.4492880000000 1.0
C      1  0.4356850000000  0.5765260000000  0.4900280000000 1.0
C      1  0.5360980000000  0.4788840000000  0.5339710000000 1.0
C      1  0.5113710000000  0.4788840000000  0.4517530000000 1.0
C      1  0.4525310000000  0.4788840000000  0.5142760000000 1.0
C      1  0.5871840000000  0.4662240000000  0.5412250000000 1.0
C      1  0.4921100000000  0.4662240000000  0.4038840000000 1.0
C      1  0.4207060000000  0.4662240000000  0.5548910000000 1.0
C      1  0.4470700000000  0.4777320000000  0.4269120000000 1.0
C      1  0.4631690000000  0.4777320000000  0.5823830000000 1.0
C      1  0.5897620000000  0.4777320000000  0.4907050000000 1.0
C      1  0.5091660000000  0.5265030000000  0.4131460000000 1.0
C      1  0.4202000000000  0.5265030000000  0.5354890000000 1.0
C      1  0.5706350000000  0.5265030000000  0.5513650000000 1.0
C      1  0.5207960000000  0.5324210000000  0.5886330000000 1.0
C      1  0.5663610000000  0.5324210000000  0.4376730000000 1.0
C      1  0.4128430000000  0.5324210000000  0.4736940000000 1.0
C      1  0.4662760000000  0.5083890000000  0.4826100000000 1.0
C      1  0.5018020000000  0.5083890000000  0.5379010000000 1.0
C      1  0.5319220000000  0.5083890000000  0.4794890000000 1.0
C      1  0.4375660000000  0.4455900000000  0.5389860000000 1.0
C      1  0.5649800000000  0.4455900000000  0.5345760000000 1.0
C      1  0.4974540000000  0.4455900000000  0.4264370000000 1.0
C      1  0.5122790000000  0.4325210000000  0.5259650000000 1.0
C      1  0.5163460000000  0.4325210000000  0.4763840000000 1.0
C      1  0.4713740000000  0.4325220000000  0.4976520000000 1.0
C      1  0.4764020000000  0.4385410000000  0.4464490000000 1.0
C      1  0.4654230000000  0.4385410000000  0.5472120000000 1.0
C      1  0.5581750000000  0.4385410000000  0.5063390000000 1.0
C      1  0.4015050000000  0.5109620000000  0.4901180000000 1.0
C      1  0.5406890000000  0.5109610000000  0.5902400000000 1.0
C      1  0.5578060000000  0.5109610000000  0.4196420000000 1.0
C      1  0.4615580000000  0.5604610000000  0.4988890000000 1.0
C      1  0.5182590000000  0.5604610000000  0.5338470000000 1.0
C      1  0.5201830000000  0.5604610000000  0.4672640000000 1.0
C      1  0.4783820000000  0.4999970000000  0.5959710000000 1.0
C      1  0.5939220000000  0.4999970000000  0.4707370000000 1.0
C      1  0.4276960000000  0.4999970000000  0.4332930000000 1.0
C      1  0.4446910000000  0.5858090000000  0.4616180000000 1.0
C      1  0.4944150000000  0.5858090000000  0.5670900000000 1.0
C      1  0.5608950000000  0.5858090000000  0.4712920000000 1.0
C      1  0.5483470000000  0.5612670000000  0.4876280000000 1.0
C      1  0.4651120000000  0.5612670000000  0.4643170000000 1.0
C      1  0.4865420000000  0.5612670000000  0.5480560000000 1.0
C      1  0.5484820000000  0.5569530000000  0.4292910000000 1.0
C      1  0.4145230000000  0.5569540000000  0.4933680000000 1.0
C      1  0.5369950000000  0.5569530000000  0.5773410000000 1.0
C      1  0.5232940000000  0.5087330000000  0.4511150000000 1.0
C      1  0.4460180000000  0.5087330000000  0.5042690000000 1.0
C      1  0.5306880000000  0.5087330000000  0.5446150000000 1.0
C      1  0.4811420000000  0.4655090000000  0.5085740000000 1.0
C      1  0.5168540000000  0.4655090000000  0.5120450000000 1.0
C      1  0.5020040000000  0.4655090000000  0.4793810000000 1.0
C      1  0.4614630000000  0.5344270000000  0.5164070000000 1.0
C      1  0.5334770000000  0.5344270000000  0.5251710000000 1.0
C      1  0.5050600000000  0.5344270000000  0.4584220000000 1.0
C      1  0.5581780000000  0.4916900000000  0.5145940000000 1.0
C      1  0.4835500000000  0.4916900000000  0.4423190000000 1.0
C      1  0.4582720000000  0.4916900000000  0.5430860000000 1.0
C      1  0.4876990000000  0.5285920000000  0.4841590000000 1.0
C      1  0.4924320000000  0.5285920000000  0.5185740000000 1.0
C      1  0.5198690000000  0.5285920000000  0.4972680000000 1.0
C      1  0.5304570000000  0.4271050000000  0.5018970000000 1.0
C      1  0.4864140000000  0.4271050000000  0.4726750000000 1.0
C      1  0.4831290000000  0.4271050000000  0.5254280000000 1.0
C      1  0.4099370000000  0.5509590000000  0.5222540000000 1.0
C      1  0.5643040000000  0.5509580000000  0.5668700000000 1.0
C      1  0.5257590000000  0.5509580000000  0.4108760000000 1.0
C      1  0.4748900000000  0.5375910000000  0.5604670000000 1.0
C      1  0.5649210000000  0.5375910000000  0.4915130000000 1.0
C      1  0.4601890000000  0.5375910000000  0.4480210000000 1.0
C      1  0.5555660000000  0.5036530000000  0.5655440000000 1.0
C      1  0.5289800000000  0.5036530000000  0.4191060000000 1.0
C      1  0.4154540000000  0.5036530000000  0.5153500000000 1.0
C      1  0.5056520000000  0.4655350000000  0.5600220000000 1.0
C      1  0.5491540000000  0.4655350000000  0.4650950000000 1.0
C      1  0.4451940000000  0.4655360000000  0.4748840000000 1.0
C      1  0.5636420000000  0.5228180000000  0.5191940000000 1.0
C      1  0.4848020000000  0.5228190000000  0.4352870000000 1.0
C      1  0.4515560000000  0.5228190000000  0.5455180000000 1.0
C      1  0.4905600000000  0.5239310000000  0.5821340000000 1.0
C      1  0.5758510000000  0.5239310000000  0.4671090000000 1.0
C      1  0.4335900000000  0.5239310000000  0.4507570000000 1.0
C      1  0.4786090000000  0.4550470000000  0.5691310000000 1.0
C      1  0.5705650000000  0.4550460000000  0.4839590000000 1.0
C      1  0.4508260000000  0.4550470000000  0.4469100000000 1.0
C      1  0.4714390000000  0.4826310000000  0.4709490000000 1.0
C      1  0.4891220000000  0.4826310000000  0.5392590000000 1.0
C      1  0.5394390000000  0.4826310000000  0.4897910000000 1.0
END
