TITL C-862507-1800-109 -0.0107689966078617 125000 -184.708028267169 0 0 35 (C2) n - 1
REM
REM in /home/nfs/bkarasulu/CARBON/AIRSS/Generating-Clusters/TERSOFF/Higher-Symm/FIRE-HFTN
REM
REM
REM
REM
REM
REM ./C.cell (b20cbc046b6831c77cfcea5457e17084)
REM AIRSS Version 0.9.1 bugfix July 2018 build 013d7b7c2542+ Fri, 06 Jul 2018 19:26:36 +0100
REM compiler GCC version 9.2.1 20190827 (Red Hat 9.2.1-1)
REM options -cpp -mtune=generic -march=x86-64 -g -O0 -fpre-include=/usr/include/finclude/math-vector-fortran.h
REM seed -859198541 443987427 -1359093589 -447432453 1848551772 906138968 -585343945 -2058066831 -839002940 -634542415 -1661242003 728408968 -526568349 -598100665 511709180 -727630908 1483162777 -1082164518 -1538848835 1455453900 -428013969 -1700876883 1853962069 -161870459 432531673 -82835767 -1970551030 -29135113 1545955551 -429450905 -140021548 -1446220619 1600804788
REM
CELL 1.54180   50.00000   50.00000   50.00000   90.00000   90.00000   90.00000
LATT -1
SFAC C  
C      1  0.4752520000000  0.4506000000000  0.4737590000000 1.0
C      1  0.4752520000000  0.5494830000000  0.5265210000000 1.0
C      1  0.5330820000000  0.4538920000000  0.4785860000000 1.0
C      1  0.5330820000000  0.5461910000000  0.5216940000000 1.0
C      1  0.5164120000000  0.5202750000000  0.4795010000000 1.0
C      1  0.5164120000000  0.4798070000000  0.5207790000000 1.0
C      1  0.4732650000000  0.5209880000000  0.4820000000000 1.0
C      1  0.4732650000000  0.4790940000000  0.5182810000000 1.0
C      1  0.5061110000000  0.4665180000000  0.5474000000000 1.0
C      1  0.5061110000000  0.5335640000000  0.4528800000000 1.0
C      1  0.4754470000000  0.4640490000000  0.5483310000000 1.0
C      1  0.4754470000000  0.5360330000000  0.4519490000000 1.0
C      1  0.4812100000000  0.4320860000000  0.5478920000000 1.0
C      1  0.4812100000000  0.5679960000000  0.4523880000000 1.0
C      1  0.5136380000000  0.4354050000000  0.5509860000000 1.0
C      1  0.5136370000000  0.5646770000000  0.4492950000000 1.0
C      1  0.4789520000000  0.4732580000000  0.4563530000000 1.0
C      1  0.4789520000000  0.5268240000000  0.5439270000000 1.0
C      1  0.5303060000000  0.4759300000000  0.4600280000000 1.0
C      1  0.5303060000000  0.5241520000000  0.5402520000000 1.0
C      1  0.5265360000000  0.4321980000000  0.5242480000000 1.0
C      1  0.5265360000000  0.5678840000000  0.4760320000000 1.0
C      1  0.4760450000000  0.4278620000000  0.5189390000000 1.0
C      1  0.4760450000000  0.5722200000000  0.4813420000000 1.0
C      1  0.4633180000000  0.4972850000000  0.4626880000000 1.0
C      1  0.4633180000000  0.5027970000000  0.5375920000000 1.0
C      1  0.5378680000000  0.5019570000000  0.4705470000000 1.0
C      1  0.5378680000000  0.4981260000000  0.5297330000000 1.0
C      1  0.4848310000000  0.4504330000000  0.5013730000000 1.0
C      1  0.4848310000000  0.5496500000000  0.4989080000000 1.0
C      1  0.5181380000000  0.4523600000000  0.5036220000000 1.0
C      1  0.5181380000000  0.5477220000000  0.4966580000000 1.0
C      1  0.5055120000000  0.4759020000000  0.4442090000000 1.0
C      1  0.5055120000000  0.5241810000000  0.5560710000000 1.0
C      1  0.4950230000000  0.5000410000000  0.5001400000000 1.0
END
