TITL C-862129-6180-1362 -0.00974270649616984 125000 -1028.23886682431 0 0 171 (C5) n - 1
REM
REM in /home/nfs/bkarasulu/CARBON/AIRSS/Generating-Clusters/TERSOFF/Higher-Symm/FIRE-HFTN
REM
REM
REM
REM
REM
REM ./C.cell (b20cbc046b6831c77cfcea5457e17084)
REM AIRSS Version 0.9.1 bugfix July 2018 build 013d7b7c2542+ Fri, 06 Jul 2018 19:26:36 +0100
REM compiler GCC version 9.2.1 20190827 (Red Hat 9.2.1-1)
REM options -cpp -mtune=generic -march=x86-64 -g -O0 -fpre-include=/usr/include/finclude/math-vector-fortran.h
REM seed 267786273 -305341379 -1744087638 -856134896 -569770983 344710952 1285452273 -970789953 -1242510662 -494561610 819508315 1694151548 899647465 1130725555 1679678294 -1307542875 1284069489 -2114576811 -775941844 1151788464 1742581149 1532911290 1559956847 1394450921 1169794443 366625851 1333617884 428081071 280904516 1921385452 1194604425 -1647584803 1451992965
REM
CELL 1.54180   50.00000   50.00000   50.00000   90.00000   90.00000   90.00000
LATT -1
SFAC C  
C      1  0.4783040000000  0.5652000000000  0.5498660000000 1.0
C      1  0.4311040000000  0.4994830000000  0.5498660000000 1.0
C      1  0.4790190000000  0.4342860000000  0.5498660000000 1.0
C      1  0.5558310000000  0.4597080000000  0.5498660000000 1.0
C      1  0.5553900000000  0.5406170000000  0.5498660000000 1.0
C      1  0.4614140000000  0.4615050000000  0.4496920000000 1.0
C      1  0.5245050000000  0.4513760000000  0.4496920000000 1.0
C      1  0.5536340000000  0.5082500000000  0.4496930000000 1.0
C      1  0.5085460000000  0.5535280000000  0.4496930000000 1.0
C      1  0.4515500000000  0.5246380000000  0.4496920000000 1.0
C      1  0.4649120000000  0.5709250000000  0.4855230000000 1.0
C      1  0.4215210000000  0.4885160000000  0.4855220000000 1.0
C      1  0.4864880000000  0.4217820000000  0.4855220000000 1.0
C      1  0.5700310000000  0.4629480000000  0.4855230000000 1.0
C      1  0.5566970000000  0.5551240000000  0.4855230000000 1.0
C      1  0.4954610000000  0.4747710000000  0.5217250000000 1.0
C      1  0.5224090000000  0.4878570000000  0.5217250000000 1.0
C      1  0.5182910000000  0.5175290000000  0.5217250000000 1.0
C      1  0.4887990000000  0.5227820000000  0.5217250000000 1.0
C      1  0.4746890000000  0.4963560000000  0.5217250000000 1.0
C      1  0.5820060000000  0.5649970000000  0.4968440000000 1.0
C      1  0.4633430000000  0.5980470000000  0.4968440000000 1.0
C      1  0.3952420000000  0.4954050000000  0.4968430000000 1.0
C      1  0.4718160000000  0.3989190000000  0.4968440000000 1.0
C      1  0.5872420000000  0.4419290000000  0.4968440000000 1.0
C      1  0.4684670000000  0.5167340000000  0.5579490000000 1.0
C      1  0.4741580000000  0.4751510000000  0.5579490000000 1.0
C      1  0.5154640000000  0.4677130000000  0.5579490000000 1.0
C      1  0.5353020000000  0.5047000000000  0.5579490000000 1.0
C      1  0.5062560000000  0.5349960000000  0.5579490000000 1.0
C      1  0.5333690000000  0.6100750000000  0.4906150000000 1.0
C      1  0.4054410000000  0.5657210000000  0.4906140000000 1.0
C      1  0.4080930000000  0.4303480000000  0.4906140000000 1.0
C      1  0.5376600000000  0.3910370000000  0.4906150000000 1.0
C      1  0.6150850000000  0.5021150000000  0.4906150000000 1.0
C      1  0.5096190000000  0.4743200000000  0.5990080000000 1.0
C      1  0.5272130000000  0.5011820000000  0.5990080000000 1.0
C      1  0.5071020000000  0.5262160000000  0.5990080000000 1.0
C      1  0.4770790000000  0.5148250000000  0.5990080000000 1.0
C      1  0.4786340000000  0.4827520000000  0.5990080000000 1.0
C      1  0.4751970000000  0.5483420000000  0.5260190000000 1.0
C      1  0.4461770000000  0.4913190000000  0.5260180000000 1.0
C      1  0.4914420000000  0.4460980000000  0.5260180000000 1.0
C      1  0.5484360000000  0.4751740000000  0.5260190000000 1.0
C      1  0.5383960000000  0.5383630000000  0.5260190000000 1.0
C      1  0.4485030000000  0.4342000000000  0.5786900000000 1.0
C      1  0.5464830000000  0.4306600000000  0.5786900000000 1.0
C      1  0.5801280000000  0.5227510000000  0.5786900000000 1.0
C      1  0.5029410000000  0.5832060000000  0.5786900000000 1.0
C      1  0.4215920000000  0.5284790000000  0.5786900000000 1.0
C      1  0.4382350000000  0.5248250000000  0.4098840000000 1.0
C      1  0.4571220000000  0.4488990000000  0.4098840000000 1.0
C      1  0.5351680000000  0.4433990000000  0.4098850000000 1.0
C      1  0.5645170000000  0.5159260000000  0.4098850000000 1.0
C      1  0.5046090000000  0.5662500000000  0.4098850000000 1.0
C      1  0.5010650000000  0.6120910000000  0.5253500000000 1.0
C      1  0.3935420000000  0.5356200000000  0.5253490000000 1.0
C      1  0.4330430000000  0.4097290000000  0.5253490000000 1.0
C      1  0.5649790000000  0.4083950000000  0.5253500000000 1.0
C      1  0.6070190000000  0.5334610000000  0.5253500000000 1.0
C      1  0.4244940000000  0.4630570000000  0.4686090000000 1.0
C      1  0.5116200000000  0.4167430000000  0.4686090000000 1.0
C      1  0.5825900000000  0.4852930000000  0.4686100000000 1.0
C      1  0.5393270000000  0.5739730000000  0.4686100000000 1.0
C      1  0.4416180000000  0.5602300000000  0.4686090000000 1.0
C      1  0.4818450000000  0.3834030000000  0.5190850000000 1.0
C      1  0.6050980000000  0.4466720000000  0.5190860000000 1.0
C      1  0.5830120000000  0.5834440000000  0.5190860000000 1.0
C      1  0.4461090000000  0.6047040000000  0.5190850000000 1.0
C      1  0.3835840000000  0.4810720000000  0.5190850000000 1.0
C      1  0.4481640000000  0.5491700000000  0.5173540000000 1.0
C      1  0.4370360000000  0.4658650000000  0.5173530000000 1.0
C      1  0.5128250000000  0.4295390000000  0.5173540000000 1.0
C      1  0.5707930000000  0.4903930000000  0.5173540000000 1.0
C      1  0.5308310000000  0.5643290000000  0.5173540000000 1.0
C      1  0.4294370000000  0.5632690000000  0.5333540000000 1.0
C      1  0.4178400000000  0.4524120000000  0.5333540000000 1.0
C      1  0.5196880000000  0.4071250000000  0.5333540000000 1.0
C      1  0.5942300000000  0.4899940000000  0.5333550000000 1.0
C      1  0.5384520000000  0.5864960000000  0.5333550000000 1.0
C      1  0.4778690000000  0.3920970000000  0.5468600000000 1.0
C      1  0.5956000000000  0.4455770000000  0.5468610000000 1.0
C      1  0.5811180000000  0.5740740000000  0.5468610000000 1.0
C      1  0.4544360000000  0.6000080000000  0.5468600000000 1.0
C      1  0.3906240000000  0.4875400000000  0.5468600000000 1.0
C      1  0.5394250000000  0.4603790000000  0.4877730000000 1.0
C      1  0.5496820000000  0.5252210000000  0.4877730000000 1.0
C      1  0.4911830000000  0.5550140000000  0.4877730000000 1.0
C      1  0.4447720000000  0.5085840000000  0.4877720000000 1.0
C      1  0.4745870000000  0.4500970000000  0.4877720000000 1.0
C      1  0.5211310000000  0.4856090000000  0.3874860000000 1.0
C      1  0.5200350000000  0.5156190000000  0.3874860000000 1.0
C      1  0.4911550000000  0.5238500000000  0.3874860000000 1.0
C      1  0.4744020000000  0.4989270000000  0.3874850000000 1.0
C      1  0.4929280000000  0.4752930000000  0.3874850000000 1.0
C      1  0.4403250000000  0.4729050000000  0.4152510000000 1.0
C      1  0.5071470000000  0.4348420000000  0.4152510000000 1.0
C      1  0.5639950000000  0.4866310000000  0.4152520000000 1.0
C      1  0.5323080000000  0.5567010000000  0.4152520000000 1.0
C      1  0.4558760000000  0.5482180000000  0.4152510000000 1.0
C      1  0.5751950000000  0.5536750000000  0.4400110000000 1.0
C      1  0.4720060000000  0.5880710000000  0.4400110000000 1.0
C      1  0.4074070000000  0.5005610000000  0.4400100000000 1.0
C      1  0.4706710000000  0.4120820000000  0.4400100000000 1.0
C      1  0.5743700000000  0.4449080000000  0.4400110000000 1.0
C      1  0.4307220000000  0.4795880000000  0.5731390000000 1.0
C      1  0.4978220000000  0.4277750000000  0.5731400000000 1.0
C      1  0.5678350000000  0.4755790000000  0.5731400000000 1.0
C      1  0.5440040000000  0.5569380000000  0.5731400000000 1.0
C      1  0.4592640000000  0.5594150000000  0.5731400000000 1.0
C      1  0.5947830000000  0.4732120000000  0.5582100000000 1.0
C      1  0.5545830000000  0.5818360000000  0.5582100000000 1.0
C      1  0.4388540000000  0.5771700000000  0.5582100000000 1.0
C      1  0.4075290000000  0.4656630000000  0.5582090000000 1.0
C      1  0.5038980000000  0.4014140000000  0.5582100000000 1.0
C      1  0.5421450000000  0.4709830000000  0.4017870000000 1.0
C      1  0.5404390000000  0.5310850000000  0.4017870000000 1.0
C      1  0.4827510000000  0.5480350000000  0.4017870000000 1.0
C      1  0.4488040000000  0.4984080000000  0.4017860000000 1.0
C      1  0.4855120000000  0.4507870000000  0.4017870000000 1.0
C      1  0.4454950000000  0.4546590000000  0.4920090000000 1.0
C      1  0.5260970000000  0.4341210000000  0.4920090000000 1.0
C      1  0.5705370000000  0.5044310000000  0.4920100000000 1.0
C      1  0.5174000000000  0.5684230000000  0.4920100000000 1.0
C      1  0.4401200000000  0.5376620000000  0.4920090000000 1.0
C      1  0.4885290000000  0.6107520000000  0.4979000000000 1.0
C      1  0.3909410000000  0.5232850000000  0.4978990000000 1.0
C      1  0.4439720000000  0.4034440000000  0.4978990000000 1.0
C      1  0.5743340000000  0.4168460000000  0.4979000000000 1.0
C      1  0.6018720000000  0.5449690000000  0.4979000000000 1.0
C      1  0.4195500000000  0.5237660000000  0.4526400000000 1.0
C      1  0.4523540000000  0.4308010000000  0.4526400000000 1.0
C      1  0.5509070000000  0.4332720000000  0.4526400000000 1.0
C      1  0.5790110000000  0.5277640000000  0.4526410000000 1.0
C      1  0.4978280000000  0.5836930000000  0.4526410000000 1.0
C      1  0.4533780000000  0.4138430000000  0.5493870000000 1.0
C      1  0.5673500000000  0.4290050000000  0.5493870000000 1.0
C      1  0.5881490000000  0.5420850000000  0.5493880000000 1.0
C      1  0.4870320000000  0.5968100000000  0.5493870000000 1.0
C      1  0.4037380000000  0.5175520000000  0.5493870000000 1.0
C      1  0.5193110000000  0.4471880000000  0.5804860000000 1.0
C      1  0.5560120000000  0.5020150000000  0.5804870000000 1.0
C      1  0.5152090000000  0.5538630000000  0.5804870000000 1.0
C      1  0.4532900000000  0.5310790000000  0.5804860000000 1.0
C      1  0.4558250000000  0.4651500000000  0.5804860000000 1.0
C      1  0.5073750000000  0.6053490000000  0.4748100000000 1.0
C      1  0.4019040000000  0.5395380000000  0.4748090000000 1.0
C      1  0.4319010000000  0.4188930000000  0.4748090000000 1.0
C      1  0.5559120000000  0.4101400000000  0.4748100000000 1.0
C      1  0.6025570000000  0.5253760000000  0.4748100000000 1.0
C      1  0.4950670000000  0.5257880000000  0.4803120000000 1.0
C      1  0.4737670000000  0.5032460000000  0.4803120000000 1.0
C      1  0.4886240000000  0.4760240000000  0.4803120000000 1.0
C      1  0.5191050000000  0.4817410000000  0.4803120000000 1.0
C      1  0.5230870000000  0.5124970000000  0.4803120000000 1.0
C      1  0.4090880000000  0.4275510000000  0.5216950000000 1.0
C      1  0.5406270000000  0.3911190000000  0.5216950000000 1.0
C      1  0.6159230000000  0.5049620000000  0.5216960000000 1.0
C      1  0.5309200000000  0.6117530000000  0.5216960000000 1.0
C      1  0.4030890000000  0.5639100000000  0.5216950000000 1.0
C      1  0.5256300000000  0.5041270000000  0.4392340000000 1.0
C      1  0.5038130000000  0.5256200000000  0.4392340000000 1.0
C      1  0.4766300000000  0.5115130000000  0.4392340000000 1.0
C      1  0.4816470000000  0.4813010000000  0.4392340000000 1.0
C      1  0.5119310000000  0.4767360000000  0.4392340000000 1.0
C      1  0.5489950000000  0.5665960000000  0.4387310000000 1.0
C      1  0.4516220000000  0.5671460000000  0.4387300000000 1.0
C      1  0.4210090000000  0.4747080000000  0.4387300000000 1.0
C      1  0.4994620000000  0.4170280000000  0.4387300000000 1.0
C      1  0.5785630000000  0.4738180000000  0.4387310000000 1.0
C      1  0.4999290000000  0.4998590000000  0.5615150000000 1.0
END
