TITL C-862502-1143-1289 6.74899205093702e-06 125000 -588.070088211073 0 0 101 (C3h) n - 1
REM
REM in /home/nfs/bkarasulu/CARBON/AIRSS/Generating-Clusters/TERSOFF/Higher-Symm/FIRE-HFTN
REM
REM
REM
REM
REM
REM ./C.cell (b20cbc046b6831c77cfcea5457e17084)
REM AIRSS Version 0.9.1 bugfix July 2018 build 013d7b7c2542+ Fri, 06 Jul 2018 19:26:36 +0100
REM compiler GCC version 9.2.1 20190827 (Red Hat 9.2.1-1)
REM options -cpp -mtune=generic -march=x86-64 -g -O0 -fpre-include=/usr/include/finclude/math-vector-fortran.h
REM seed -1113226143 1199990969 -42169953 -3256179 604242477 1100964975 -1474139424 -825632048 1194971717 -1379516683 1095684269 1744121393 1231546469 524088151 -1468394204 -843110405 191848568 -1828807692 1114196545 -1871887686 1092634662 1735984580 -1267603500 -1876177849 -970168394 -1425386969 -558615355 -1111075018 -801326290 -639525103 -429698412 -2074086761 1034900062
REM
CELL 1.54180   50.00000   50.00000   50.00000   90.00000   90.00000   90.00000
LATT -1
SFAC C  
C      1  0.4716530000000  0.4521700000000  0.4486950000000 1.0
C      1  0.5552840000000  0.4998390000000  0.4486960000000 1.0
C      1  0.4721860000000  0.5484310000000  0.4486960000000 1.0
C      1  0.4716530000000  0.4521700000000  0.5520490000000 1.0
C      1  0.5552830000000  0.4998390000000  0.5520490000000 1.0
C      1  0.4721860000000  0.5484300000000  0.5520490000000 1.0
C      1  0.5402800000000  0.5087110000000  0.4868610000000 1.0
C      1  0.4720040000000  0.5310010000000  0.4868610000000 1.0
C      1  0.4868390000000  0.4607280000000  0.4868610000000 1.0
C      1  0.5402800000000  0.5087110000000  0.5138840000000 1.0
C      1  0.4720040000000  0.5310010000000  0.5138840000000 1.0
C      1  0.4868390000000  0.4607280000000  0.5138840000000 1.0
C      1  0.5314700000000  0.4588520000000  0.5169820000000 1.0
C      1  0.5195880000000  0.5483000000000  0.5169830000000 1.0
C      1  0.4480650000000  0.4932870000000  0.5169820000000 1.0
C      1  0.5314700000000  0.4588520000000  0.4837620000000 1.0
C      1  0.5195880000000  0.5483010000000  0.4837620000000 1.0
C      1  0.4480650000000  0.4932870000000  0.4837620000000 1.0
C      1  0.4240130000000  0.4770160000000  0.5286450000000 1.0
C      1  0.5575870000000  0.4461590000000  0.5286450000000 1.0
C      1  0.5175230000000  0.5772650000000  0.5286460000000 1.0
C      1  0.4240130000000  0.4770160000000  0.4720990000000 1.0
C      1  0.5575870000000  0.4461590000000  0.4720990000000 1.0
C      1  0.5175230000000  0.5772650000000  0.4720990000000 1.0
C      1  0.5773810000000  0.5674120000000  0.5217700000000 1.0
C      1  0.4026170000000  0.5337810000000  0.5217700000000 1.0
C      1  0.5191240000000  0.3992460000000  0.5217690000000 1.0
C      1  0.5773810000000  0.5674120000000  0.4789750000000 1.0
C      1  0.4026170000000  0.5337810000000  0.4789750000000 1.0
C      1  0.5191240000000  0.3992460000000  0.4789740000000 1.0
C      1  0.4830980000000  0.4768360000000  0.5902490000000 1.0
C      1  0.5281990000000  0.4974160000000  0.5902490000000 1.0
C      1  0.4878260000000  0.5261860000000  0.5902490000000 1.0
C      1  0.4830980000000  0.4768370000000  0.4104960000000 1.0
C      1  0.5281990000000  0.4974170000000  0.4104960000000 1.0
C      1  0.4878260000000  0.5261860000000  0.4104960000000 1.0
C      1  0.4897190000000  0.5823020000000  0.5163260000000 1.0
C      1  0.4335530000000  0.4504180000000  0.5163250000000 1.0
C      1  0.5758510000000  0.4677190000000  0.5163250000000 1.0
C      1  0.4897190000000  0.5823020000000  0.4844190000000 1.0
C      1  0.4335530000000  0.4504190000000  0.4844190000000 1.0
C      1  0.5758510000000  0.4677190000000  0.4844190000000 1.0
C      1  0.5677480000000  0.5948730000000  0.4840390000000 1.0
C      1  0.3836520000000  0.5117080000000  0.4840380000000 1.0
C      1  0.5477230000000  0.3938580000000  0.4840380000000 1.0
C      1  0.5677480000000  0.5948730000000  0.5167070000000 1.0
C      1  0.3836520000000  0.5117080000000  0.5167060000000 1.0
C      1  0.5477230000000  0.3938580000000  0.5167060000000 1.0
C      1  0.5783500000000  0.4908340000000  0.4665230000000 1.0
C      1  0.4684520000000  0.5729090000000  0.4665230000000 1.0
C      1  0.4523210000000  0.4366970000000  0.4665220000000 1.0
C      1  0.5783500000000  0.4908330000000  0.5342220000000 1.0
C      1  0.4684520000000  0.5729090000000  0.5342220000000 1.0
C      1  0.4523210000000  0.4366970000000  0.5342220000000 1.0
C      1  0.5212250000000  0.4508070000000  0.4316390000000 1.0
C      1  0.5316780000000  0.5434520000000  0.4316400000000 1.0
C      1  0.4462190000000  0.5061820000000  0.4316400000000 1.0
C      1  0.5212250000000  0.4508060000000  0.5691050000000 1.0
C      1  0.5316780000000  0.5434510000000  0.5691050000000 1.0
C      1  0.4462190000000  0.5061810000000  0.5691050000000 1.0
C      1  0.5281950000000  0.4876820000000  0.5315910000000 1.0
C      1  0.4962580000000  0.5310490000000  0.5315910000000 1.0
C      1  0.4746700000000  0.4817080000000  0.5315910000000 1.0
C      1  0.5281950000000  0.4876830000000  0.4691540000000 1.0
C      1  0.4962580000000  0.5310490000000  0.4691540000000 1.0
C      1  0.4746700000000  0.4817080000000  0.4691540000000 1.0
C      1  0.5655850000000  0.4199480000000  0.5161730000000 1.0
C      1  0.5362220000000  0.5972970000000  0.5161740000000 1.0
C      1  0.3973150000000  0.4831940000000  0.5161740000000 1.0
C      1  0.5655850000000  0.4199490000000  0.4845700000000 1.0
C      1  0.5362220000000  0.5972970000000  0.4845710000000 1.0
C      1  0.3973150000000  0.4831940000000  0.4845710000000 1.0
C      1  0.5472120000000  0.5356410000000  0.5233830000000 1.0
C      1  0.4452160000000  0.5235400000000  0.5233830000000 1.0
C      1  0.5066940000000  0.4412590000000  0.5233820000000 1.0
C      1  0.5472120000000  0.5356410000000  0.4773620000000 1.0
C      1  0.4452160000000  0.5235400000000  0.4773620000000 1.0
C      1  0.5066940000000  0.4412590000000  0.4773620000000 1.0
C      1  0.5122610000000  0.4730030000000  0.5867410000000 1.0
C      1  0.5169370000000  0.5245890000000  0.5867410000000 1.0
C      1  0.4699240000000  0.5028460000000  0.5867410000000 1.0
C      1  0.5122610000000  0.4730040000000  0.4140030000000 1.0
C      1  0.5169370000000  0.5245900000000  0.4140030000000 1.0
C      1  0.4699240000000  0.5028470000000  0.4140030000000 1.0
C      1  0.4471330000000  0.5301830000000  0.5522520000000 1.0
C      1  0.4999820000000  0.4395970000000  0.5522520000000 1.0
C      1  0.5520070000000  0.5306590000000  0.5522520000000 1.0
C      1  0.4471330000000  0.5301830000000  0.4484930000000 1.0
C      1  0.4999820000000  0.4395980000000  0.4484920000000 1.0
C      1  0.5520070000000  0.5306590000000  0.4484930000000 1.0
C      1  0.5496780000000  0.4478610000000  0.5589540000000 1.0
C      1  0.5200030000000  0.5695650000000  0.5589540000000 1.0
C      1  0.4294420000000  0.4830130000000  0.5589540000000 1.0
C      1  0.5496780000000  0.4478610000000  0.4417900000000 1.0
C      1  0.5200030000000  0.5695650000000  0.4417910000000 1.0
C      1  0.4294420000000  0.4830140000000  0.4417900000000 1.0
C      1  0.5029770000000  0.4159830000000  0.5003720000000 1.0
C      1  0.5709600000000  0.5450600000000  0.5003720000000 1.0
C      1  0.4251850000000  0.5393960000000  0.5003720000000 1.0
C      1  0.4997080000000  0.5001460000000  0.5362150000000 1.0
C      1  0.4997080000000  0.5001470000000  0.4645300000000 1.0
END
