TITL C-862502-1143-169 17.3524592147977 125000 -843.614718260853 0 0 146 (C1) n - 1
REM
REM in /home/nfs/bkarasulu/CARBON/AIRSS/Generating-Clusters/TERSOFF/Higher-Symm/FIRE-HFTN
REM
REM
REM
REM
REM
REM ./C.cell (b20cbc046b6831c77cfcea5457e17084)
REM AIRSS Version 0.9.1 bugfix July 2018 build 013d7b7c2542+ Fri, 06 Jul 2018 19:26:36 +0100
REM compiler GCC version 9.2.1 20190827 (Red Hat 9.2.1-1)
REM options -cpp -mtune=generic -march=x86-64 -g -O0 -fpre-include=/usr/include/finclude/math-vector-fortran.h
REM seed 656568333 1536872995 -258452234 51762864 1424497458 1077225807 -774847209 2097867877 890421046 774861932 -149357365 -1005613960 58497301 -307845888 505902897 -205875860 -1911579938 1664077287 293645546 -2025013347 -828232572 -2047874248 1457600664 714926021 11645235 -595436521 -1133913033 1156800865 -448892095 -1514822955 1605517770 2098594693 -691891626
REM
CELL 1.54180   50.00000   50.00000   50.00000   90.00000   90.00000   90.00000
LATT -1
SFAC C  
C      1  0.4559270000000  0.6120490000000  0.4997050000000 1.0
C      1  0.5433910000000  0.6129610000000  0.5027300000000 1.0
C      1  0.4603890000000  0.3897920000000  0.5038910000000 1.0
C      1  0.5473600000000  0.3885540000000  0.5010400000000 1.0
C      1  0.4993120000000  0.6093790000000  0.4643210000000 1.0
C      1  0.5002240000000  0.6105100000000  0.5385350000000 1.0
C      1  0.5036580000000  0.3931940000000  0.4653920000000 1.0
C      1  0.5027880000000  0.3899110000000  0.5401970000000 1.0
C      1  0.4740890000000  0.5986250000000  0.4531010000000 1.0
C      1  0.5259310000000  0.6007340000000  0.5501490000000 1.0
C      1  0.4773510000000  0.4011890000000  0.5509350000000 1.0
C      1  0.5289990000000  0.4042080000000  0.4545370000000 1.0
C      1  0.4494400000000  0.5981980000000  0.4743220000000 1.0
C      1  0.5509160000000  0.6007260000000  0.5286290000000 1.0
C      1  0.5541330000000  0.4026880000000  0.4755770000000 1.0
C      1  0.4531910000000  0.4025030000000  0.5292930000000 1.0
C      1  0.5887850000000  0.4883200000000  0.5308710000000 1.0
C      1  0.3994810000000  0.4840440000000  0.4674050000000 1.0
C      1  0.6012880000000  0.5174820000000  0.4707830000000 1.0
C      1  0.4074080000000  0.5136040000000  0.5315720000000 1.0
C      1  0.5292280000000  0.4861520000000  0.5869170000000 1.0
C      1  0.4689140000000  0.4871640000000  0.4103800000000 1.0
C      1  0.4738980000000  0.5146160000000  0.5891830000000 1.0
C      1  0.5323550000000  0.5169960000000  0.4059090000000 1.0
C      1  0.4648760000000  0.5131840000000  0.5606000000000 1.0
C      1  0.5487060000000  0.5163230000000  0.4314160000000 1.0
C      1  0.4508440000000  0.4877300000000  0.4352000000000 1.0
C      1  0.5327490000000  0.4863790000000  0.5569040000000 1.0
C      1  0.5816710000000  0.5188030000000  0.4444380000000 1.0
C      1  0.4342280000000  0.5127120000000  0.5483450000000 1.0
C      1  0.4175760000000  0.4821910000000  0.4408690000000 1.0
C      1  0.5583960000000  0.4912520000000  0.5377980000000 1.0
C      1  0.4997740000000  0.5084840000000  0.4678340000000 1.0
C      1  0.5049440000000  0.5081010000000  0.5251160000000 1.0
C      1  0.4901520000000  0.4840470000000  0.5291010000000 1.0
C      1  0.4828120000000  0.4955730000000  0.4868690000000 1.0
C      1  0.4519400000000  0.5239660000000  0.4844500000000 1.0
C      1  0.5505300000000  0.4882140000000  0.4741560000000 1.0
C      1  0.5307940000000  0.4685320000000  0.4797240000000 1.0
C      1  0.4325210000000  0.5031060000000  0.4849670000000 1.0
C      1  0.4836900000000  0.5570350000000  0.5692630000000 1.0
C      1  0.5234500000000  0.5577130000000  0.4297640000000 1.0
C      1  0.4790690000000  0.4469270000000  0.4344420000000 1.0
C      1  0.5200940000000  0.4423320000000  0.5712760000000 1.0
C      1  0.5771780000000  0.5581000000000  0.4785960000000 1.0
C      1  0.4247150000000  0.5570490000000  0.5264390000000 1.0
C      1  0.4157260000000  0.4356600000000  0.4703760000000 1.0
C      1  0.5724550000000  0.4454330000000  0.5235470000000 1.0
C      1  0.5856370000000  0.5434230000000  0.5665320000000 1.0
C      1  0.4197130000000  0.5363740000000  0.4386740000000 1.0
C      1  0.5831980000000  0.4661300000000  0.4396710000000 1.0
C      1  0.4204990000000  0.4625940000000  0.5621930000000 1.0
C      1  0.5677270000000  0.5499670000000  0.5883190000000 1.0
C      1  0.4358760000000  0.5449950000000  0.4161960000000 1.0
C      1  0.4362680000000  0.4551480000000  0.5855040000000 1.0
C      1  0.5658410000000  0.4594410000000  0.4172590000000 1.0
C      1  0.4047210000000  0.5784520000000  0.4604930000000 1.0
C      1  0.5972070000000  0.5843840000000  0.5411940000000 1.0
C      1  0.4072560000000  0.4194920000000  0.5407940000000 1.0
C      1  0.5984060000000  0.4230370000000  0.4606770000000 1.0
C      1  0.4646580000000  0.5835910000000  0.4063580000000 1.0
C      1  0.5351490000000  0.5853050000000  0.5971680000000 1.0
C      1  0.5373190000000  0.4206440000000  0.4077200000000 1.0
C      1  0.4656410000000  0.4173730000000  0.5969820000000 1.0
C      1  0.5391480000000  0.5577510000000  0.5851250000000 1.0
C      1  0.4637400000000  0.5557450000000  0.4182920000000 1.0
C      1  0.5380160000000  0.4485520000000  0.4197100000000 1.0
C      1  0.4644310000000  0.4450470000000  0.5846210000000 1.0
C      1  0.5854510000000  0.5565740000000  0.5395670000000 1.0
C      1  0.4172430000000  0.5511230000000  0.4646110000000 1.0
C      1  0.4192060000000  0.4469140000000  0.5363620000000 1.0
C      1  0.5855530000000  0.4502240000000  0.4650360000000 1.0
C      1  0.5333920000000  0.4378650000000  0.4498680000000 1.0
C      1  0.4708520000000  0.4345680000000  0.5546490000000 1.0
C      1  0.5335500000000  0.5677700000000  0.5550890000000 1.0
C      1  0.4689140000000  0.5656290000000  0.4485730000000 1.0
C      1  0.4486520000000  0.4363670000000  0.5309280000000 1.0
C      1  0.5572290000000  0.4369730000000  0.4715010000000 1.0
C      1  0.5562400000000  0.5666810000000  0.5328140000000 1.0
C      1  0.4459610000000  0.5634100000000  0.4713270000000 1.0
C      1  0.5000070000000  0.4567380000000  0.5213540000000 1.0
C      1  0.4698610000000  0.4694920000000  0.4828900000000 1.0
C      1  0.5194440000000  0.5289390000000  0.4747780000000 1.0
C      1  0.4930780000000  0.5341770000000  0.5176580000000 1.0
C      1  0.5273390000000  0.4574580000000  0.5055160000000 1.0
C      1  0.4392970000000  0.4753160000000  0.4842430000000 1.0
C      1  0.4629520000000  0.5356190000000  0.5078200000000 1.0
C      1  0.5478240000000  0.5158980000000  0.4810450000000 1.0
C      1  0.5481810000000  0.6010030000000  0.4767050000000 1.0
C      1  0.4512480000000  0.6011570000000  0.5261950000000 1.0
C      1  0.5515940000000  0.3994280000000  0.5277820000000 1.0
C      1  0.4546710000000  0.4007300000000  0.4777450000000 1.0
C      1  0.4737370000000  0.6009720000000  0.5463030000000 1.0
C      1  0.5259670000000  0.6008860000000  0.4563560000000 1.0
C      1  0.5295060000000  0.3985950000000  0.5481150000000 1.0
C      1  0.4770330000000  0.4022110000000  0.4578060000000 1.0
C      1  0.4751270000000  0.4910610000000  0.6063010000000 1.0
C      1  0.5257110000000  0.4917400000000  0.3929610000000 1.0
C      1  0.4741170000000  0.5110940000000  0.3945880000000 1.0
C      1  0.5306970000000  0.5101170000000  0.6036390000000 1.0
C      1  0.6142000000000  0.4919200000000  0.4782260000000 1.0
C      1  0.3921900000000  0.4893790000000  0.5265220000000 1.0
C      1  0.3872180000000  0.5097880000000  0.4755450000000 1.0
C      1  0.6065150000000  0.5112510000000  0.5301210000000 1.0
C      1  0.5733440000000  0.5863850000000  0.4726240000000 1.0
C      1  0.4266530000000  0.5857300000000  0.5303160000000 1.0
C      1  0.5738300000000  0.4177890000000  0.5311040000000 1.0
C      1  0.4266590000000  0.4078640000000  0.4712000000000 1.0
C      1  0.4730290000000  0.5837650000000  0.5697300000000 1.0
C      1  0.5280380000000  0.5860300000000  0.4313900000000 1.0
C      1  0.5306380000000  0.4155750000000  0.5717820000000 1.0
C      1  0.4751810000000  0.4186040000000  0.4341380000000 1.0
C      1  0.5991090000000  0.5375650000000  0.5201130000000 1.0
C      1  0.4022860000000  0.5337590000000  0.4850040000000 1.0
C      1  0.5996750000000  0.4672810000000  0.4863860000000 1.0
C      1  0.4035070000000  0.4644020000000  0.5161840000000 1.0
C      1  0.5203070000000  0.5365280000000  0.5960220000000 1.0
C      1  0.4837220000000  0.5365650000000  0.4054950000000 1.0
C      1  0.4842590000000  0.4645790000000  0.5975740000000 1.0
C      1  0.5171560000000  0.4674150000000  0.4071580000000 1.0
C      1  0.4006250000000  0.4591630000000  0.4866460000000 1.0
C      1  0.5947650000000  0.4630220000000  0.5152740000000 1.0
C      1  0.4038180000000  0.5387390000000  0.5143920000000 1.0
C      1  0.5995360000000  0.5423600000000  0.4909590000000 1.0
C      1  0.4884660000000  0.4633880000000  0.4116580000000 1.0
C      1  0.5133900000000  0.4604120000000  0.5942700000000 1.0
C      1  0.5128750000000  0.5415570000000  0.4067440000000 1.0
C      1  0.4912990000000  0.5400270000000  0.5928040000000 1.0
C      1  0.5308340000000  0.6073760000000  0.5791460000000 1.0
C      1  0.4681830000000  0.6056690000000  0.4244970000000 1.0
C      1  0.5346080000000  0.3981940000000  0.4255520000000 1.0
C      1  0.4706900000000  0.3949980000000  0.5795970000000 1.0
C      1  0.5791150000000  0.6066940000000  0.5380690000000 1.0
C      1  0.4212380000000  0.6018820000000  0.4638250000000 1.0
C      1  0.4251220000000  0.3968980000000  0.5389710000000 1.0
C      1  0.5823620000000  0.3993430000000  0.4648180000000 1.0
C      1  0.5485350000000  0.4612240000000  0.5272280000000 1.0
C      1  0.4314720000000  0.4584450000000  0.4581720000000 1.0
C      1  0.5638580000000  0.5375560000000  0.4641950000000 1.0
C      1  0.4466130000000  0.5393200000000  0.5333320000000 1.0
C      1  0.5222760000000  0.4580290000000  0.5471460000000 1.0
C      1  0.4632800000000  0.4630890000000  0.4521130000000 1.0
C      1  0.4766310000000  0.5398020000000  0.5472250000000 1.0
C      1  0.5351960000000  0.5402230000000  0.4493500000000 1.0
C      1  0.4802110000000  0.4487240000000  0.5003710000000 1.0
C      1  0.5100540000000  0.5463230000000  0.4965360000000 1.0
END
