TITL C-862128-1543-1376 2.26948496539324e-05 125000 -1068.29837874669 0 0 188 (C1) n - 1
REM
REM in /home/nfs/bkarasulu/CARBON/AIRSS/Generating-Clusters/TERSOFF/Higher-Symm/FIRE-HFTN
REM
REM
REM
REM
REM
REM ./C.cell (b20cbc046b6831c77cfcea5457e17084)
REM AIRSS Version 0.9.1 bugfix July 2018 build 013d7b7c2542+ Fri, 06 Jul 2018 19:26:36 +0100
REM compiler GCC version 9.2.1 20190827 (Red Hat 9.2.1-1)
REM options -cpp -mtune=generic -march=x86-64 -g -O0 -fpre-include=/usr/include/finclude/math-vector-fortran.h
REM seed 2145894889 1670559207 767410063 -1724655697 -1064168825 964181911 644144212 -1670411856 521046943 65386315 1918065382 -672578781 -2135859723 -1642849718 -546620893 -9800772 -1243768422 -1842427798 587404334 1807365654 -2033585295 124662140 735535811 660412538 -1153472068 -1630676036 -1710104668 -1269564155 -1091250084 -88678681 -1131745304 -35613007 -746406155
REM
CELL 1.54180   50.00000   50.00000   50.00000   90.00000   90.00000   90.00000
LATT -1
SFAC C  
C      1  0.4034740000000  0.5296240000000  0.5602750000000 1.0
C      1  0.4417520000000  0.4167380000000  0.5601330000000 1.0
C      1  0.5606360000000  0.4193890000000  0.5598840000000 1.0
C      1  0.5956990000000  0.5330260000000  0.5600690000000 1.0
C      1  0.4985890000000  0.6013660000000  0.5598450000000 1.0
C      1  0.4059840000000  0.5349270000000  0.4407850000000 1.0
C      1  0.4376450000000  0.4215020000000  0.4404760000000 1.0
C      1  0.5556510000000  0.4167170000000  0.4404160000000 1.0
C      1  0.5970920000000  0.5272580000000  0.4404540000000 1.0
C      1  0.5042340000000  0.6003280000000  0.4402540000000 1.0
C      1  0.4821900000000  0.5496200000000  0.5893280000000 1.0
C      1  0.4472350000000  0.4981240000000  0.5896340000000 1.0
C      1  0.4853830000000  0.4493190000000  0.5892160000000 1.0
C      1  0.5439790000000  0.4705430000000  0.5898930000000 1.0
C      1  0.5418430000000  0.5327400000000  0.5898990000000 1.0
C      1  0.4846400000000  0.5493390000000  0.4093940000000 1.0
C      1  0.4485610000000  0.5005730000000  0.4111910000000 1.0
C      1  0.4837220000000  0.4510220000000  0.4100920000000 1.0
C      1  0.5417340000000  0.4693200000000  0.4099130000000 1.0
C      1  0.5426610000000  0.5302100000000  0.4101740000000 1.0
C      1  0.5262210000000  0.4640770000000  0.4405850000000 1.0
C      1  0.5429110000000  0.5140070000000  0.4407370000000 1.0
C      1  0.5005470000000  0.5445680000000  0.4399150000000 1.0
C      1  0.4577970000000  0.5137250000000  0.4418380000000 1.0
C      1  0.4738030000000  0.4641720000000  0.4407230000000 1.0
C      1  0.5316260000000  0.4645410000000  0.5609320000000 1.0
C      1  0.5437020000000  0.5193170000000  0.5610790000000 1.0
C      1  0.4949130000000  0.5473970000000  0.5597400000000 1.0
C      1  0.4533860000000  0.5102770000000  0.5605180000000 1.0
C      1  0.4758150000000  0.4586990000000  0.5596590000000 1.0
C      1  0.5923370000000  0.4749340000000  0.4830740000000 1.0
C      1  0.5526330000000  0.5799830000000  0.4829180000000 1.0
C      1  0.4405130000000  0.5747540000000  0.4828610000000 1.0
C      1  0.4106410000000  0.4661580000000  0.4834460000000 1.0
C      1  0.5043590000000  0.4050840000000  0.4828660000000 1.0
C      1  0.5902900000000  0.4767210000000  0.5157340000000 1.0
C      1  0.5502060000000  0.5785090000000  0.5155580000000 1.0
C      1  0.4410860000000  0.5723790000000  0.5154740000000 1.0
C      1  0.4114760000000  0.4647430000000  0.5161660000000 1.0
C      1  0.5052060000000  0.4076090000000  0.5153690000000 1.0
C      1  0.6125680000000  0.5028420000000  0.5178470000000 1.0
C      1  0.5323700000000  0.6077900000000  0.5175270000000 1.0
C      1  0.4075710000000  0.5638960000000  0.5180100000000 1.0
C      1  0.4096670000000  0.4304710000000  0.5179180000000 1.0
C      1  0.5369880000000  0.3944610000000  0.5175560000000 1.0
C      1  0.6124670000000  0.5010450000000  0.4852240000000 1.0
C      1  0.5340350000000  0.6072300000000  0.4849070000000 1.0
C      1  0.4089960000000  0.5651860000000  0.4854510000000 1.0
C      1  0.4095880000000  0.4331690000000  0.4852450000000 1.0
C      1  0.5353760000000  0.3939060000000  0.4849790000000 1.0
C      1  0.4813820000000  0.6082240000000  0.4847130000000 1.0
C      1  0.3917150000000  0.5153810000000  0.4853490000000 1.0
C      1  0.4516480000000  0.4015910000000  0.4848390000000 1.0
C      1  0.5786260000000  0.4239610000000  0.4849330000000 1.0
C      1  0.5969940000000  0.5513730000000  0.4850230000000 1.0
C      1  0.4802370000000  0.6078280000000  0.5142520000000 1.0
C      1  0.3917180000000  0.5141460000000  0.5148430000000 1.0
C      1  0.4528040000000  0.4010230000000  0.5143400000000 1.0
C      1  0.5791410000000  0.4250640000000  0.5144220000000 1.0
C      1  0.5960400000000  0.5522560000000  0.5145150000000 1.0
C      1  0.5760030000000  0.5590600000000  0.5611130000000 1.0
C      1  0.4677030000000  0.5911090000000  0.5612320000000 1.0
C      1  0.4036840000000  0.4969750000000  0.5615780000000 1.0
C      1  0.4729550000000  0.4074330000000  0.5610070000000 1.0
C      1  0.5794390000000  0.4459880000000  0.5611140000000 1.0
C      1  0.5797220000000  0.5534780000000  0.4374840000000 1.0
C      1  0.4740870000000  0.5914650000000  0.4374870000000 1.0
C      1  0.4046910000000  0.5035750000000  0.4380020000000 1.0
C      1  0.4671060000000  0.4105860000000  0.4374760000000 1.0
C      1  0.5751080000000  0.4413850000000  0.4376110000000 1.0
C      1  0.4840550000000  0.5451820000000  0.4865560000000 1.0
C      1  0.4530190000000  0.4989250000000  0.4894950000000 1.0
C      1  0.4863680000000  0.4544940000000  0.4874070000000 1.0
C      1  0.5398800000000  0.4735570000000  0.4873980000000 1.0
C      1  0.5381600000000  0.5296470000000  0.4873480000000 1.0
C      1  0.4803820000000  0.5299480000000  0.5121680000000 1.0
C      1  0.4576700000000  0.4873550000000  0.5170850000000 1.0
C      1  0.4980350000000  0.4652520000000  0.5126330000000 1.0
C      1  0.5357480000000  0.4872730000000  0.5142900000000 1.0
C      1  0.5245900000000  0.5293460000000  0.5146790000000 1.0
C      1  0.5039400000000  0.4638920000000  0.3925500000000 1.0
C      1  0.5360680000000  0.4926900000000  0.3926100000000 1.0
C      1  0.5188090000000  0.5316960000000  0.3926590000000 1.0
C      1  0.4752940000000  0.5268950000000  0.3924130000000 1.0
C      1  0.4669420000000  0.4856300000000  0.3933570000000 1.0
C      1  0.5055980000000  0.4640160000000  0.6055600000000 1.0
C      1  0.5363530000000  0.4944420000000  0.6061630000000 1.0
C      1  0.5167590000000  0.5328020000000  0.6061660000000 1.0
C      1  0.4742830000000  0.5259210000000  0.6056770000000 1.0
C      1  0.4675660000000  0.4834610000000  0.6059020000000 1.0
C      1  0.3967140000000  0.4879890000000  0.5301600000000 1.0
C      1  0.4792930000000  0.3984760000000  0.5293140000000 1.0
C      1  0.5898990000000  0.4493240000000  0.5296360000000 1.0
C      1  0.5761170000000  0.5698560000000  0.5295980000000 1.0
C      1  0.4571640000000  0.5946520000000  0.5293990000000 1.0
C      1  0.3954830000000  0.4900510000000  0.4690850000000 1.0
C      1  0.4770110000000  0.3977700000000  0.4685300000000 1.0
C      1  0.5904840000000  0.4466830000000  0.4686660000000 1.0
C      1  0.5790670000000  0.5696320000000  0.4686770000000 1.0
C      1  0.4585780000000  0.5965130000000  0.4683940000000 1.0
C      1  0.4950490000000  0.5256860000000  0.4644870000000 1.0
C      1  0.4746600000000  0.5024150000000  0.4662690000000 1.0
C      1  0.4894460000000  0.4762540000000  0.4649920000000 1.0
C      1  0.5195380000000  0.4828070000000  0.4650040000000 1.0
C      1  0.5228710000000  0.5132420000000  0.4649010000000 1.0
C      1  0.4938110000000  0.5240540000000  0.5426390000000 1.0
C      1  0.4733730000000  0.5009480000000  0.5413600000000 1.0
C      1  0.4896810000000  0.4770130000000  0.5422180000000 1.0
C      1  0.5186370000000  0.4836770000000  0.5440480000000 1.0
C      1  0.5213810000000  0.5128920000000  0.5441630000000 1.0
C      1  0.6061080000000  0.5295710000000  0.5311120000000 1.0
C      1  0.5049930000000  0.6100930000000  0.5308370000000 1.0
C      1  0.3971780000000  0.5383950000000  0.5313410000000 1.0
C      1  0.4311540000000  0.4131880000000  0.5311060000000 1.0
C      1  0.5605020000000  0.4086200000000  0.5309080000000 1.0
C      1  0.6064200000000  0.5265630000000  0.4700670000000 1.0
C      1  0.5078950000000  0.6093600000000  0.4697430000000 1.0
C      1  0.3988470000000  0.5409930000000  0.4703590000000 1.0
C      1  0.4295150000000  0.4162460000000  0.4699790000000 1.0
C      1  0.5578620000000  0.4074620000000  0.4699120000000 1.0
C      1  0.4475620000000  0.5396110000000  0.5529120000000 1.0
C      1  0.4459730000000  0.4613170000000  0.5535870000000 1.0
C      1  0.5193160000000  0.4374320000000  0.5527550000000 1.0
C      1  0.5657550000000  0.4993590000000  0.5532540000000 1.0
C      1  0.5209290000000  0.5620800000000  0.5526030000000 1.0
C      1  0.4531320000000  0.5433340000000  0.4475810000000 1.0
C      1  0.4441640000000  0.4688060000000  0.4480500000000 1.0
C      1  0.5125480000000  0.4373770000000  0.4474020000000 1.0
C      1  0.5640350000000  0.4927660000000  0.4474550000000 1.0
C      1  0.5271620000000  0.5584550000000  0.4472000000000 1.0
C      1  0.4335860000000  0.4494350000000  0.4279120000000 1.0
C      1  0.5279180000000  0.4212690000000  0.4275170000000 1.0
C      1  0.5841150000000  0.5022820000000  0.4275350000000 1.0
C      1  0.5241410000000  0.5805190000000  0.4273250000000 1.0
C      1  0.4311990000000  0.5473060000000  0.4278120000000 1.0
C      1  0.4353310000000  0.4432970000000  0.5749630000000 1.0
C      1  0.5334510000000  0.4216100000000  0.5741070000000 1.0
C      1  0.5852650000000  0.5078200000000  0.5744660000000 1.0
C      1  0.5190370000000  0.5831460000000  0.5738730000000 1.0
C      1  0.4268610000000  0.5437810000000  0.5743310000000 1.0
C      1  0.4818520000000  0.4354450000000  0.4489350000000 1.0
C      1  0.5559940000000  0.4632290000000  0.4488270000000 1.0
C      1  0.5531580000000  0.5420290000000  0.4489700000000 1.0
C      1  0.4769720000000  0.5625000000000  0.4484150000000 1.0
C      1  0.4327980000000  0.4973010000000  0.4498700000000 1.0
C      1  0.4886430000000  0.4334340000000  0.5505590000000 1.0
C      1  0.5596110000000  0.4690280000000  0.5510140000000 1.0
C      1  0.5480610000000  0.5471000000000  0.5509920000000 1.0
C      1  0.4700710000000  0.5609490000000  0.5508260000000 1.0
C      1  0.4330920000000  0.4897100000000  0.5510680000000 1.0
C      1  0.5226460000000  0.4336500000000  0.3987380000000 1.0
C      1  0.5706350000000  0.5010850000000  0.3987390000000 1.0
C      1  0.5210580000000  0.5672130000000  0.3986340000000 1.0
C      1  0.4424090000000  0.5402450000000  0.3989390000000 1.0
C      1  0.4438740000000  0.4584960000000  0.3992340000000 1.0
C      1  0.5260340000000  0.4345620000000  0.6018540000000 1.0
C      1  0.5706420000000  0.5048670000000  0.6022990000000 1.0
C      1  0.5174400000000  0.5685990000000  0.6018800000000 1.0
C      1  0.4404020000000  0.5376140000000  0.6020190000000 1.0
C      1  0.4460120000000  0.4547240000000  0.6026760000000 1.0
C      1  0.5673910000000  0.4908940000000  0.4781250000000 1.0
C      1  0.5297770000000  0.5610570000000  0.4780270000000 1.0
C      1  0.4515730000000  0.5473040000000  0.4780340000000 1.0
C      1  0.4404370000000  0.4680770000000  0.4788620000000 1.0
C      1  0.5117490000000  0.4338520000000  0.4781970000000 1.0
C      1  0.5661010000000  0.4979480000000  0.5212670000000 1.0
C      1  0.5228710000000  0.5616240000000  0.5207020000000 1.0
C      1  0.4483970000000  0.5409690000000  0.5209780000000 1.0
C      1  0.4427100000000  0.4609320000000  0.5220370000000 1.0
C      1  0.5176720000000  0.4379450000000  0.5205840000000 1.0
C      1  0.5680800000000  0.4548580000000  0.4095150000000 1.0
C      1  0.5645470000000  0.5507660000000  0.4095290000000 1.0
C      1  0.4716410000000  0.5765120000000  0.4092140000000 1.0
C      1  0.4188140000000  0.4968620000000  0.4102990000000 1.0
C      1  0.4780350000000  0.4215240000000  0.4095240000000 1.0
C      1  0.5716000000000  0.4586850000000  0.5898830000000 1.0
C      1  0.5615170000000  0.5554470000000  0.5898610000000 1.0
C      1  0.4673380000000  0.5758320000000  0.5899720000000 1.0
C      1  0.4179200000000  0.4916010000000  0.5901530000000 1.0
C      1  0.4824610000000  0.4193700000000  0.5896150000000 1.0
C      1  0.5649710000000  0.5169360000000  0.4941370000000 1.0
C      1  0.4573620000000  0.4478080000000  0.4945300000000 1.0
C      1  0.5359270000000  0.4442960000000  0.4940490000000 1.0
C      1  0.5040880000000  0.5667450000000  0.4939420000000 1.0
C      1  0.4390880000000  0.5249540000000  0.4945780000000 1.0
C      1  0.5001800000000  0.5001420000000  0.6076860000000 1.0
C      1  0.5003220000000  0.5002350000000  0.3907540000000 1.0
C      1  0.5025270000000  0.5012040000000  0.5085330000000 1.0
END
