TITL C-862133-5440-1387 -119613.397021019 125000 -949.667645013892 0 0 160 (D2) n - 1
REM
REM in /home/nfs/bkarasulu/CARBON/AIRSS/Generating-Clusters/TERSOFF/Higher-Symm/FIRE-HFTN
REM
REM
REM
REM
REM
REM ./C.cell (b20cbc046b6831c77cfcea5457e17084)
REM AIRSS Version 0.9.1 bugfix July 2018 build 013d7b7c2542+ Fri, 06 Jul 2018 19:26:36 +0100
REM compiler GCC version 9.2.1 20190827 (Red Hat 9.2.1-1)
REM options -cpp -mtune=generic -march=x86-64 -g -O0 -fpre-include=/usr/include/finclude/math-vector-fortran.h
REM seed -69396451 -452020695 853458314 1738513086 1917216617 -478374942 -1345938124 448712481 1185472157 526731669 -881051729 -352617751 2062799715 661628279 72542245 2023879440 745111385 -598696894 79254661 -1807317844 -504972690 -1275154932 2004454750 -1244147497 2096278475 -637317915 -41764576 1862847426 -1179705605 -1338332408 1558572298 -1236396280 669039849
REM
CELL 1.54180   50.00000   50.00000   50.00000   90.00000   90.00000   90.00000
LATT -1
SFAC C  
C      1  0.5031560000000  0.6088900000000  0.4563450000000 1.0
C      1  0.4968430000000  0.6088920000000  0.5436560000000 1.0
C      1  0.5031550000000  0.3911110000000  0.5436540000000 1.0
C      1  0.4968450000000  0.3911100000000  0.4563460000000 1.0
C      1  0.4575190000000  0.6052190000000  0.5003530000000 1.0
C      1  0.5424810000000  0.6052180000000  0.4996470000000 1.0
C      1  0.5424820000000  0.3947810000000  0.5003540000000 1.0
C      1  0.4575180000000  0.3947810000000  0.4996470000000 1.0
C      1  0.5365120000000  0.5424710000000  0.5152760000000 1.0
C      1  0.4634880000000  0.5424710000000  0.4847230000000 1.0
C      1  0.5365120000000  0.4575290000000  0.4847240000000 1.0
C      1  0.4634880000000  0.4575290000000  0.5152770000000 1.0
C      1  0.5125650000000  0.5340680000000  0.5313470000000 1.0
C      1  0.4874350000000  0.5340670000000  0.4686530000000 1.0
C      1  0.4874350000000  0.4659330000000  0.5313470000000 1.0
C      1  0.5125650000000  0.4659320000000  0.4686530000000 1.0
C      1  0.5249490000000  0.5896470000000  0.4537080000000 1.0
C      1  0.4750510000000  0.5896480000000  0.5462920000000 1.0
C      1  0.5249490000000  0.4103530000000  0.5462920000000 1.0
C      1  0.4750510000000  0.4103530000000  0.4537090000000 1.0
C      1  0.4536430000000  0.5886240000000  0.5240610000000 1.0
C      1  0.5463570000000  0.5886230000000  0.4759390000000 1.0
C      1  0.5463570000000  0.4113770000000  0.5240610000000 1.0
C      1  0.4536430000000  0.4113760000000  0.4759400000000 1.0
C      1  0.4751470000000  0.4294540000000  0.4304840000000 1.0
C      1  0.5248530000000  0.4294550000000  0.5695160000000 1.0
C      1  0.4751470000000  0.5705460000000  0.5695160000000 1.0
C      1  0.5248530000000  0.5705450000000  0.4304840000000 1.0
C      1  0.4302170000000  0.4303600000000  0.4753020000000 1.0
C      1  0.5697830000000  0.4303600000000  0.5246980000000 1.0
C      1  0.5697830000000  0.5696400000000  0.4753020000000 1.0
C      1  0.4302170000000  0.5696400000000  0.5246980000000 1.0
C      1  0.4681950000000  0.5330580000000  0.5521070000000 1.0
C      1  0.5318050000000  0.5330570000000  0.4478920000000 1.0
C      1  0.4681950000000  0.4669430000000  0.4478930000000 1.0
C      1  0.5318050000000  0.4669430000000  0.5521070000000 1.0
C      1  0.5551800000000  0.5308270000000  0.4690490000000 1.0
C      1  0.4448200000000  0.5308270000000  0.5309510000000 1.0
C      1  0.4448200000000  0.4691730000000  0.4690500000000 1.0
C      1  0.5551800000000  0.4691730000000  0.5309510000000 1.0
C      1  0.4471010000000  0.5306000000000  0.5942140000000 1.0
C      1  0.5528990000000  0.5305990000000  0.4057850000000 1.0
C      1  0.4471010000000  0.4694000000000  0.4057860000000 1.0
C      1  0.5528990000000  0.4694010000000  0.5942140000000 1.0
C      1  0.5952420000000  0.5303550000000  0.4467870000000 1.0
C      1  0.4047580000000  0.5303550000000  0.5532130000000 1.0
C      1  0.4047580000000  0.4696450000000  0.4467870000000 1.0
C      1  0.5952420000000  0.4696450000000  0.5532130000000 1.0
C      1  0.5726030000000  0.4372400000000  0.4714770000000 1.0
C      1  0.4273970000000  0.4372410000000  0.5285230000000 1.0
C      1  0.5726030000000  0.5627600000000  0.5285220000000 1.0
C      1  0.4273970000000  0.5627590000000  0.4714770000000 1.0
C      1  0.4716950000000  0.4379720000000  0.5696050000000 1.0
C      1  0.5283050000000  0.4379710000000  0.4303950000000 1.0
C      1  0.5283050000000  0.5620280000000  0.5696050000000 1.0
C      1  0.4716950000000  0.5620280000000  0.4303950000000 1.0
C      1  0.3911780000000  0.5278330000000  0.5275240000000 1.0
C      1  0.6088220000000  0.5278330000000  0.4724760000000 1.0
C      1  0.3911780000000  0.4721670000000  0.4724760000000 1.0
C      1  0.6088220000000  0.4721670000000  0.5275240000000 1.0
C      1  0.5273050000000  0.5280360000000  0.3920330000000 1.0
C      1  0.4726950000000  0.5280370000000  0.6079670000000 1.0
C      1  0.4726950000000  0.4719630000000  0.3920330000000 1.0
C      1  0.5273050000000  0.4719640000000  0.6079670000000 1.0
C      1  0.3681030000000  0.5067520000000  0.4784230000000 1.0
C      1  0.6318970000000  0.5067530000000  0.5215770000000 1.0
C      1  0.3681030000000  0.4932480000000  0.5215770000000 1.0
C      1  0.6318970000000  0.4932470000000  0.4784230000000 1.0
C      1  0.4782150000000  0.5067190000000  0.3691090000000 1.0
C      1  0.5217850000000  0.5067200000000  0.6308910000000 1.0
C      1  0.5217850000000  0.4932800000000  0.3691090000000 1.0
C      1  0.4782150000000  0.4932810000000  0.6308910000000 1.0
C      1  0.4827220000000  0.4881060000000  0.4349840000000 1.0
C      1  0.5172780000000  0.4881060000000  0.5650160000000 1.0
C      1  0.4827220000000  0.5118940000000  0.5650160000000 1.0
C      1  0.5172780000000  0.5118940000000  0.4349840000000 1.0
C      1  0.4330030000000  0.4934360000000  0.4803670000000 1.0
C      1  0.5669970000000  0.4934360000000  0.5196330000000 1.0
C      1  0.5669970000000  0.5065640000000  0.4803670000000 1.0
C      1  0.4330030000000  0.5065640000000  0.5196330000000 1.0
C      1  0.4632770000000  0.4532980000000  0.4872760000000 1.0
C      1  0.5367230000000  0.4532980000000  0.5127240000000 1.0
C      1  0.4632770000000  0.5467020000000  0.5127240000000 1.0
C      1  0.5367230000000  0.5467020000000  0.4872760000000 1.0
C      1  0.4874950000000  0.4516860000000  0.4673370000000 1.0
C      1  0.5125050000000  0.4516860000000  0.5326640000000 1.0
C      1  0.5125050000000  0.5483140000000  0.4673360000000 1.0
C      1  0.4874950000000  0.5483140000000  0.5326630000000 1.0
C      1  0.5744990000000  0.5449300000000  0.5525490000000 1.0
C      1  0.4255010000000  0.5449300000000  0.4474510000000 1.0
C      1  0.5744990000000  0.4550700000000  0.4474510000000 1.0
C      1  0.4255010000000  0.4550700000000  0.5525490000000 1.0
C      1  0.5517000000000  0.5436710000000  0.5719750000000 1.0
C      1  0.4483000000000  0.5436700000000  0.4280240000000 1.0
C      1  0.4483000000000  0.4563300000000  0.5719760000000 1.0
C      1  0.5517000000000  0.4563290000000  0.4280250000000 1.0
C      1  0.5864690000000  0.4956210000000  0.5652250000000 1.0
C      1  0.4135310000000  0.4956210000000  0.4347750000000 1.0
C      1  0.5864690000000  0.5043790000000  0.4347750000000 1.0
C      1  0.4135310000000  0.5043790000000  0.5652250000000 1.0
C      1  0.5651860000000  0.4954830000000  0.5857560000000 1.0
C      1  0.4348140000000  0.4954830000000  0.4142440000000 1.0
C      1  0.4348140000000  0.5045170000000  0.5857560000000 1.0
C      1  0.5651860000000  0.5045160000000  0.4142440000000 1.0
C      1  0.5436150000000  0.4044400000000  0.4730350000000 1.0
C      1  0.4563840000000  0.4044400000000  0.5269650000000 1.0
C      1  0.5436110000000  0.5955570000000  0.5269650000000 1.0
C      1  0.4563870000000  0.5955580000000  0.4730350000000 1.0
C      1  0.4751200000000  0.3971750000000  0.5479000000000 1.0
C      1  0.5248790000000  0.3971730000000  0.4521000000000 1.0
C      1  0.5248780000000  0.6028300000000  0.5479000000000 1.0
C      1  0.4751210000000  0.6028270000000  0.4520990000000 1.0
C      1  0.4270960000000  0.5511010000000  0.5501450000000 1.0
C      1  0.5729040000000  0.5511010000000  0.4498550000000 1.0
C      1  0.4270960000000  0.4488990000000  0.4498550000000 1.0
C      1  0.5729040000000  0.4488990000000  0.5501450000000 1.0
C      1  0.5501020000000  0.5514090000000  0.4279750000000 1.0
C      1  0.4498980000000  0.5514100000000  0.5720240000000 1.0
C      1  0.4498980000000  0.4485900000000  0.4279760000000 1.0
C      1  0.5501020000000  0.4485900000000  0.5720250000000 1.0
C      1  0.3956540000000  0.4838630000000  0.5221980000000 1.0
C      1  0.6043460000000  0.4838630000000  0.4778020000000 1.0
C      1  0.3956540000000  0.5161370000000  0.4778020000000 1.0
C      1  0.6043460000000  0.5161370000000  0.5221980000000 1.0
C      1  0.5222750000000  0.4838970000000  0.3966670000000 1.0
C      1  0.4777250000000  0.4838980000000  0.6033330000000 1.0
C      1  0.4777250000000  0.5161020000000  0.3966670000000 1.0
C      1  0.5222750000000  0.5161030000000  0.6033330000000 1.0
C      1  0.5785410000000  0.5539180000000  0.5007360000000 1.0
C      1  0.4214590000000  0.5539180000000  0.4992630000000 1.0
C      1  0.5785410000000  0.4460820000000  0.4992640000000 1.0
C      1  0.4214590000000  0.4460820000000  0.5007370000000 1.0
C      1  0.5008430000000  0.5548390000000  0.5780910000000 1.0
C      1  0.4991570000000  0.5548390000000  0.4219090000000 1.0
C      1  0.4991570000000  0.4451610000000  0.5780910000000 1.0
C      1  0.5008430000000  0.4451610000000  0.4219090000000 1.0
C      1  0.5481740000000  0.4804910000000  0.4106920000000 1.0
C      1  0.4518260000000  0.4804910000000  0.5893080000000 1.0
C      1  0.5481740000000  0.5195090000000  0.5893080000000 1.0
C      1  0.4518260000000  0.5195090000000  0.4106920000000 1.0
C      1  0.4095060000000  0.4802170000000  0.5482180000000 1.0
C      1  0.5904940000000  0.4802160000000  0.4517830000000 1.0
C      1  0.5904940000000  0.5197840000000  0.5482170000000 1.0
C      1  0.4095060000000  0.5197830000000  0.4517830000000 1.0
C      1  0.4086240000000  0.5256120000000  0.5029300000000 1.0
C      1  0.5913760000000  0.5256120000000  0.4970700000000 1.0
C      1  0.4086240000000  0.4743880000000  0.4970700000000 1.0
C      1  0.5913760000000  0.4743880000000  0.5029300000000 1.0
C      1  0.5027700000000  0.5261470000000  0.4092780000000 1.0
C      1  0.4972300000000  0.5261470000000  0.5907210000000 1.0
C      1  0.4972300000000  0.4738530000000  0.4092790000000 1.0
C      1  0.5027700000000  0.4738530000000  0.5907220000000 1.0
C      1  0.5247040000000  0.4847020000000  0.4452400000000 1.0
C      1  0.4752960000000  0.4847020000000  0.5547600000000 1.0
C      1  0.5247040000000  0.5152980000000  0.5547600000000 1.0
C      1  0.4752960000000  0.5152980000000  0.4452400000000 1.0
C      1  0.4487740000000  0.4822840000000  0.5307700000000 1.0
C      1  0.5512260000000  0.4822840000000  0.4692310000000 1.0
C      1  0.5512260000000  0.5177160000000  0.5307690000000 1.0
C      1  0.4487740000000  0.5177160000000  0.4692310000000 1.0
END
