TITL C-862131-2149-1471 0.000553980490897939 125000 -361.485510108404 0 0 73 (C1) n - 1
REM
REM in /home/nfs/bkarasulu/CARBON/AIRSS/Generating-Clusters/TERSOFF/Higher-Symm/FIRE-HFTN
REM
REM
REM
REM
REM
REM ./C.cell (b20cbc046b6831c77cfcea5457e17084)
REM AIRSS Version 0.9.1 bugfix July 2018 build 013d7b7c2542+ Fri, 06 Jul 2018 19:26:36 +0100
REM compiler GCC version 9.2.1 20190827 (Red Hat 9.2.1-1)
REM options -cpp -mtune=generic -march=x86-64 -g -O0 -fpre-include=/usr/include/finclude/math-vector-fortran.h
REM seed -586665469 -990285976 272633807 -437881891 1889365036 942568672 375571766 1064906816 2049567602 -621519271 -413213762 -315914689 56003015 -393164902 1640494618 329518752 952743555 -1389700670 927907236 -2100537690 -2074891144 -2128354955 -2059908693 -159561795 1767674882 -10087947 201991066 -2043689533 -1839405426 -806597617 -688828060 -377579505 1329945975
REM
CELL 1.54180   50.00000   50.00000   50.00000   90.00000   90.00000   90.00000
LATT -1
SFAC C  
C      1  0.5377570000000  0.4619410000000  0.4795640000000 1.0
C      1  0.4509500000000  0.4766250000000  0.5488120000000 1.0
C      1  0.4735340000000  0.5508150000000  0.4451230000000 1.0
C      1  0.5489450000000  0.5474430000000  0.5200190000000 1.0
C      1  0.4574510000000  0.4659380000000  0.5186040000000 1.0
C      1  0.4543030000000  0.5525910000000  0.4743900000000 1.0
C      1  0.4654540000000  0.5207730000000  0.4493680000000 1.0
C      1  0.5391440000000  0.4713600000000  0.4498230000000 1.0
C      1  0.5538840000000  0.5184490000000  0.5499670000000 1.0
C      1  0.4765580000000  0.4537970000000  0.5539710000000 1.0
C      1  0.5251470000000  0.5378240000000  0.5423180000000 1.0
C      1  0.5201400000000  0.4517710000000  0.4353830000000 1.0
C      1  0.5278940000000  0.4486380000000  0.5372660000000 1.0
C      1  0.4378570000000  0.5355140000000  0.5204280000000 1.0
C      1  0.5332130000000  0.5211070000000  0.4367860000000 1.0
C      1  0.5157070000000  0.5500500000000  0.4765530000000 1.0
C      1  0.4842840000000  0.4432470000000  0.4750180000000 1.0
C      1  0.4691870000000  0.5455050000000  0.5361620000000 1.0
C      1  0.4549810000000  0.4642310000000  0.4685760000000 1.0
C      1  0.5451220000000  0.5298360000000  0.4699530000000 1.0
C      1  0.5550070000000  0.4687500000000  0.5238740000000 1.0
C      1  0.5248540000000  0.4778820000000  0.5588020000000 1.0
C      1  0.4694830000000  0.5230140000000  0.5643960000000 1.0
C      1  0.4695720000000  0.4801650000000  0.4396500000000 1.0
C      1  0.5503340000000  0.4952770000000  0.4248220000000 1.0
C      1  0.5058220000000  0.4374530000000  0.5605130000000 1.0
C      1  0.4276310000000  0.5546720000000  0.4956160000000 1.0
C      1  0.5488340000000  0.4938020000000  0.5642810000000 1.0
C      1  0.4454310000000  0.5026260000000  0.5700920000000 1.0
C      1  0.4542940000000  0.5039880000000  0.4246840000000 1.0
C      1  0.5010680000000  0.5605810000000  0.4535450000000 1.0
C      1  0.5014650000000  0.4342690000000  0.4512590000000 1.0
C      1  0.4984540000000  0.5604940000000  0.5508640000000 1.0
C      1  0.4404630000000  0.4544110000000  0.4950060000000 1.0
C      1  0.5605200000000  0.5499020000000  0.4901430000000 1.0
C      1  0.5637700000000  0.4577590000000  0.4959850000000 1.0
C      1  0.4638360000000  0.5755970000000  0.4917260000000 1.0
C      1  0.5689740000000  0.4819460000000  0.4599090000000 1.0
C      1  0.4820490000000  0.4663660000000  0.5812710000000 1.0
C      1  0.4662890000000  0.4323690000000  0.5196010000000 1.0
C      1  0.5329480000000  0.5728960000000  0.5192690000000 1.0
C      1  0.5311510000000  0.4332700000000  0.4859720000000 1.0
C      1  0.5754010000000  0.5165670000000  0.5301680000000 1.0
C      1  0.4233670000000  0.4847640000000  0.5341440000000 1.0
C      1  0.4391050000000  0.5153440000000  0.4623860000000 1.0
C      1  0.4860460000000  0.5398220000000  0.4181360000000 1.0
C      1  0.5094970000000  0.4656270000000  0.4122640000000 1.0
C      1  0.5191610000000  0.5312540000000  0.5727440000000 1.0
C      1  0.4967150000000  0.4640040000000  0.4951530000000 1.0
C      1  0.4684580000000  0.4971050000000  0.5038290000000 1.0
C      1  0.4909470000000  0.4978400000000  0.4603330000000 1.0
C      1  0.4968240000000  0.5314080000000  0.5207940000000 1.0
C      1  0.4982770000000  0.4588670000000  0.5253030000000 1.0
C      1  0.4989950000000  0.5305360000000  0.4919310000000 1.0
C      1  0.4578620000000  0.5257780000000  0.4984760000000 1.0
C      1  0.5327130000000  0.4864350000000  0.5055220000000 1.0
C      1  0.5372850000000  0.5173530000000  0.5028120000000 1.0
C      1  0.4784620000000  0.4999690000000  0.5444260000000 1.0
C      1  0.5076560000000  0.4964610000000  0.5413620000000 1.0
C      1  0.5195730000000  0.4981380000000  0.4531570000000 1.0
C      1  0.4878100000000  0.4235630000000  0.5018980000000 1.0
C      1  0.4346120000000  0.4928380000000  0.4794870000000 1.0
C      1  0.4928570000000  0.4885080000000  0.4179870000000 1.0
C      1  0.4823000000000  0.5700490000000  0.5130570000000 1.0
C      1  0.5184900000000  0.4250750000000  0.5111710000000 1.0
C      1  0.5105480000000  0.5695780000000  0.5021920000000 1.0
C      1  0.4251780000000  0.5029830000000  0.5114410000000 1.0
C      1  0.5732800000000  0.4964280000000  0.5093180000000 1.0
C      1  0.5690830000000  0.5040500000000  0.4789820000000 1.0
C      1  0.4965200000000  0.5148590000000  0.5801350000000 1.0
C      1  0.5033700000000  0.4852850000000  0.5816130000000 1.0
C      1  0.5045360000000  0.5171050000000  0.4188540000000 1.0
C      1  0.4897720000000  0.4898110000000  0.4877140000000 1.0
END
