TITL C-862504-1170-274 4.76060936360115e-05 125000 -610.860789800592 0 0 106 (T23) n - 1
REM
REM in /home/nfs/bkarasulu/CARBON/AIRSS/Generating-Clusters/TERSOFF/Higher-Symm/FIRE-HFTN
REM
REM
REM
REM
REM
REM ./C.cell (b20cbc046b6831c77cfcea5457e17084)
REM AIRSS Version 0.9.1 bugfix July 2018 build 013d7b7c2542+ Fri, 06 Jul 2018 19:26:36 +0100
REM compiler GCC version 9.2.1 20190827 (Red Hat 9.2.1-1)
REM options -cpp -mtune=generic -march=x86-64 -g -O0 -fpre-include=/usr/include/finclude/math-vector-fortran.h
REM seed 2002927414 -325025486 -1949539490 -378002983 1556981627 2075139979 -1848578455 -1619516167 2134303610 2133563761 1171862619 1752833533 -1797600782 -148059753 -1114667979 38230124 1949987127 -823749900 -1559315987 1171288942 -1577904398 549949495 1794051074 -2101418304 -259522962 1862634258 -1140868675 -1881260958 -44157228 -2049021878 -1722726768 -428008106 140664410
REM
CELL 1.54180   50.00000   50.00000   50.00000   90.00000   90.00000   90.00000
LATT -1
SFAC C  
C      1  0.5301040000000  0.4539470000000  0.5715060000000 1.0
C      1  0.5716540000000  0.5294830000000  0.4544200000000 1.0
C      1  0.4545680000000  0.5710330000000  0.5299560000000 1.0
C      1  0.5301030000000  0.5456800000000  0.4290660000000 1.0
C      1  0.4707650000000  0.5456800000000  0.5715060000000 1.0
C      1  0.4707650000000  0.4539470000000  0.4290660000000 1.0
C      1  0.5716540000000  0.4701440000000  0.5461520000000 1.0
C      1  0.4292140000000  0.4701440000000  0.4544200000000 1.0
C      1  0.4292140000000  0.5294830000000  0.5461520000000 1.0
C      1  0.4545680000000  0.4285940000000  0.4706170000000 1.0
C      1  0.5463000000000  0.4285940000000  0.5299560000000 1.0
C      1  0.5463000000000  0.5710330000000  0.4706170000000 1.0
C      1  0.5439070000000  0.4975290000000  0.4755480000000 1.0
C      1  0.4756960000000  0.5432870000000  0.4980010000000 1.0
C      1  0.4981490000000  0.4750760000000  0.5437590000000 1.0
C      1  0.5439070000000  0.5020980000000  0.5250240000000 1.0
C      1  0.4569610000000  0.5020980000000  0.4755480000000 1.0
C      1  0.4569610000000  0.4975290000000  0.5250240000000 1.0
C      1  0.4756960000000  0.4563400000000  0.5025710000000 1.0
C      1  0.5251720000000  0.4563400000000  0.4980010000000 1.0
C      1  0.5251720000000  0.5432870000000  0.5025710000000 1.0
C      1  0.4981490000000  0.5245510000000  0.4568130000000 1.0
C      1  0.5027190000000  0.5245510000000  0.5437590000000 1.0
C      1  0.5027190000000  0.4750760000000  0.4568130000000 1.0
C      1  0.4969960000000  0.5630800000000  0.5720420000000 1.0
C      1  0.5721900000000  0.4963760000000  0.5635530000000 1.0
C      1  0.5637010000000  0.5715690000000  0.4968490000000 1.0
C      1  0.4969960000000  0.4365470000000  0.4285310000000 1.0
C      1  0.5038720000000  0.4365470000000  0.5720420000000 1.0
C      1  0.5038720000000  0.5630800000000  0.4285300000000 1.0
C      1  0.5721900000000  0.5032510000000  0.4370190000000 1.0
C      1  0.4286780000000  0.5032510000000  0.5635530000000 1.0
C      1  0.4286780000000  0.4963760000000  0.4370190000000 1.0
C      1  0.5637010000000  0.4280580000000  0.5037240000000 1.0
C      1  0.4371670000000  0.4280580000000  0.4968490000000 1.0
C      1  0.4371670000000  0.5715690000000  0.5037240000000 1.0
C      1  0.5163350000000  0.4260580000000  0.5257860000000 1.0
C      1  0.5259330000000  0.5157140000000  0.4265310000000 1.0
C      1  0.4266790000000  0.5253130000000  0.5161870000000 1.0
C      1  0.5163350000000  0.5735690000000  0.4747870000000 1.0
C      1  0.4845330000000  0.5735690000000  0.5257860000000 1.0
C      1  0.4845330000000  0.4260580000000  0.4747870000000 1.0
C      1  0.5259330000000  0.4839130000000  0.5740420000000 1.0
C      1  0.4749350000000  0.4839130000000  0.4265310000000 1.0
C      1  0.4749350000000  0.5157140000000  0.5740420000000 1.0
C      1  0.4266790000000  0.4743140000000  0.4843860000000 1.0
C      1  0.5741890000000  0.4743140000000  0.5161870000000 1.0
C      1  0.5741890000000  0.5253130000000  0.4843860000000 1.0
C      1  0.5251260000000  0.5225150000000  0.5903690000000 1.0
C      1  0.5905160000000  0.5245060000000  0.5229880000000 1.0
C      1  0.5231360000000  0.5898960000000  0.5249780000000 1.0
C      1  0.5251260000000  0.4771120000000  0.4102040000000 1.0
C      1  0.4757420000000  0.4771120000000  0.5903690000000 1.0
C      1  0.4757420000000  0.5225150000000  0.4102040000000 1.0
C      1  0.5905160000000  0.4751210000000  0.4775840000000 1.0
C      1  0.4103520000000  0.4751210000000  0.5229880000000 1.0
C      1  0.4103520000000  0.5245060000000  0.4775840000000 1.0
C      1  0.5231360000000  0.4097310000000  0.4755940000000 1.0
C      1  0.4777320000000  0.4097310000000  0.5249780000000 1.0
C      1  0.4777320000000  0.5898960000000  0.4755940000000 1.0
C      1  0.4871380000000  0.5388280000000  0.4325380000000 1.0
C      1  0.4326860000000  0.4865170000000  0.5393010000000 1.0
C      1  0.5394490000000  0.4320660000000  0.4869900000000 1.0
C      1  0.4871380000000  0.4607990000000  0.5680340000000 1.0
C      1  0.5137300000000  0.4607990000000  0.4325380000000 1.0
C      1  0.5137300000000  0.5388290000000  0.5680340000000 1.0
C      1  0.4326860000000  0.5131100000000  0.4612710000000 1.0
C      1  0.5681820000000  0.5131100000000  0.5393010000000 1.0
C      1  0.5681820000000  0.4865170000000  0.4612710000000 1.0
C      1  0.5394490000000  0.5675620000000  0.5135820000000 1.0
C      1  0.4614190000000  0.5675620000000  0.4869900000000 1.0
C      1  0.4614190000000  0.4320660000000  0.5135820000000 1.0
C      1  0.5013740000000  0.5435930000000  0.4793400000000 1.0
C      1  0.4794880000000  0.5007530000000  0.5440660000000 1.0
C      1  0.5442140000000  0.4788670000000  0.5012260000000 1.0
C      1  0.5013740000000  0.4560340000000  0.5212320000000 1.0
C      1  0.4994940000000  0.4560340000000  0.4793400000000 1.0
C      1  0.4994940000000  0.5435930000000  0.5212320000000 1.0
C      1  0.4794880000000  0.4988740000000  0.4565060000000 1.0
C      1  0.5213800000000  0.4988740000000  0.5440660000000 1.0
C      1  0.5213800000000  0.5007530000000  0.4565060000000 1.0
C      1  0.5442140000000  0.5207600000000  0.4993460000000 1.0
C      1  0.4566540000000  0.5207600000000  0.5012260000000 1.0
C      1  0.4566540000000  0.4788670000000  0.4993460000000 1.0
C      1  0.5508390000000  0.5004190000000  0.5848860000000 1.0
C      1  0.5850340000000  0.5502190000000  0.5008920000000 1.0
C      1  0.5010400000000  0.5844130000000  0.5506920000000 1.0
C      1  0.5508390000000  0.4992080000000  0.4156870000000 1.0
C      1  0.4500290000000  0.4992080000000  0.5848860000000 1.0
C      1  0.4500290000000  0.5004190000000  0.4156870000000 1.0
C      1  0.5850340000000  0.4494080000000  0.4996800000000 1.0
C      1  0.4158350000000  0.4494080000000  0.5008920000000 1.0
C      1  0.4158350000000  0.5502190000000  0.4996800000000 1.0
C      1  0.5010400000000  0.4152140000000  0.4498810000000 1.0
C      1  0.4998280000000  0.4152140000000  0.5506920000000 1.0
C      1  0.4998280000000  0.5844130000000  0.4498810000000 1.0
C      1  0.5004340000000  0.4998140000000  0.4072800000000 1.0
C      1  0.5004340000000  0.5928200000000  0.5002860000000 1.0
C      1  0.5004340000000  0.4998140000000  0.5932920000000 1.0
C      1  0.5934400000000  0.4998140000000  0.5002860000000 1.0
C      1  0.5004340000000  0.4068070000000  0.5002860000000 1.0
C      1  0.4074280000000  0.4998140000000  0.5002860000000 1.0
C      1  0.5529350000000  0.4473130000000  0.5527870000000 1.0
C      1  0.4479330000000  0.5523140000000  0.5527870000000 1.0
C      1  0.5529350000000  0.5523140000000  0.4477850000000 1.0
C      1  0.4479330000000  0.4473130000000  0.4477850000000 1.0
END
