TITL C-862133-5440-871 24.392116837396 125000 -763.825735593116 0 0 134 (C1) n - 1
REM
REM in /home/nfs/bkarasulu/CARBON/AIRSS/Generating-Clusters/TERSOFF/Higher-Symm/FIRE-HFTN
REM
REM
REM
REM
REM
REM ./C.cell (b20cbc046b6831c77cfcea5457e17084)
REM AIRSS Version 0.9.1 bugfix July 2018 build 013d7b7c2542+ Fri, 06 Jul 2018 19:26:36 +0100
REM compiler GCC version 9.2.1 20190827 (Red Hat 9.2.1-1)
REM options -cpp -mtune=generic -march=x86-64 -g -O0 -fpre-include=/usr/include/finclude/math-vector-fortran.h
REM seed -1461168407 870445238 -501204202 -1300269401 -646667903 -301723190 -2112071902 -957924871 301459985 1671166603 59703617 -1744401979 -1062753927 -1108443890 -253499173 1009122291 -1286217178 859959484 -1825436781 -1787327415 1806038759 -1675630659 1946939445 46255317 1106601373 -1893346444 2145583235 -1749578199 -804246053 1811075764 -310478201 1999176861 1301363920
REM
CELL 1.54180   50.00000   50.00000   50.00000   90.00000   90.00000   90.00000
LATT -1
SFAC C  
C      1  0.4190280000000  0.5222320000000  0.4114590000000 1.0
C      1  0.5504720000000  0.4277810000000  0.4703020000000 1.0
C      1  0.4424910000000  0.5467110000000  0.5091190000000 1.0
C      1  0.5749110000000  0.5135650000000  0.4552470000000 1.0
C      1  0.4631090000000  0.4561450000000  0.5193000000000 1.0
C      1  0.6148900000000  0.4831390000000  0.5143680000000 1.0
C      1  0.4813520000000  0.5123120000000  0.4974530000000 1.0
C      1  0.4235190000000  0.4532140000000  0.4290340000000 1.0
C      1  0.5143280000000  0.5108700000000  0.5820090000000 1.0
C      1  0.5166780000000  0.4767020000000  0.4891920000000 1.0
C      1  0.4191570000000  0.5016130000000  0.4536600000000 1.0
C      1  0.4803800000000  0.5905720000000  0.4438460000000 1.0
C      1  0.5959750000000  0.5275990000000  0.5007850000000 1.0
C      1  0.4684680000000  0.5605390000000  0.5133100000000 1.0
C      1  0.5505990000000  0.5446090000000  0.4991890000000 1.0
C      1  0.5272310000000  0.4258870000000  0.4534490000000 1.0
C      1  0.6061530000000  0.4813080000000  0.4848090000000 1.0
C      1  0.5283710000000  0.4702890000000  0.5540120000000 1.0
C      1  0.5295110000000  0.5254930000000  0.4347460000000 1.0
C      1  0.4915100000000  0.4110400000000  0.4983930000000 1.0
C      1  0.4890700000000  0.5911670000000  0.5463860000000 1.0
C      1  0.4754950000000  0.5142270000000  0.4443210000000 1.0
C      1  0.5907640000000  0.4461950000000  0.5142150000000 1.0
C      1  0.4560570000000  0.5262190000000  0.5754920000000 1.0
C      1  0.5657840000000  0.4715740000000  0.4356330000000 1.0
C      1  0.5024180000000  0.5540210000000  0.4737850000000 1.0
C      1  0.4499220000000  0.5967650000000  0.4964110000000 1.0
C      1  0.5920140000000  0.5585570000000  0.4997440000000 1.0
C      1  0.5337250000000  0.5864500000000  0.4510450000000 1.0
C      1  0.5991020000000  0.5101310000000  0.4741190000000 1.0
C      1  0.5188240000000  0.4700460000000  0.4171870000000 1.0
C      1  0.4364740000000  0.5459640000000  0.4795890000000 1.0
C      1  0.4416470000000  0.5757300000000  0.4729390000000 1.0
C      1  0.4153940000000  0.4716370000000  0.5210520000000 1.0
C      1  0.4612460000000  0.5530600000000  0.3807890000000 1.0
C      1  0.5950040000000  0.4994670000000  0.5475260000000 1.0
C      1  0.5298600000000  0.5708120000000  0.5656290000000 1.0
C      1  0.5423990000000  0.4135180000000  0.5228990000000 1.0
C      1  0.4781610000000  0.4419230000000  0.4962030000000 1.0
C      1  0.4780450000000  0.4239660000000  0.4499170000000 1.0
C      1  0.4787650000000  0.5843510000000  0.4905770000000 1.0
C      1  0.5139330000000  0.5648280000000  0.5021250000000 1.0
C      1  0.4523070000000  0.5801720000000  0.4466200000000 1.0
C      1  0.5367200000000  0.4621040000000  0.5051340000000 1.0
C      1  0.5201240000000  0.5320390000000  0.4635960000000 1.0
C      1  0.4545640000000  0.5202700000000  0.4662290000000 1.0
C      1  0.3970320000000  0.5113610000000  0.4920120000000 1.0
C      1  0.4565190000000  0.4076930000000  0.5397810000000 1.0
C      1  0.5902110000000  0.5661380000000  0.4473920000000 1.0
C      1  0.6120780000000  0.5124950000000  0.5240070000000 1.0
C      1  0.5557460000000  0.5017000000000  0.4757930000000 1.0
C      1  0.5232190000000  0.5232840000000  0.5328410000000 1.0
C      1  0.4117700000000  0.5307850000000  0.4654120000000 1.0
C      1  0.4573330000000  0.4080970000000  0.5097280000000 1.0
C      1  0.5524590000000  0.5848310000000  0.4753930000000 1.0
C      1  0.4452210000000  0.4601780000000  0.5726260000000 1.0
C      1  0.4624780000000  0.4959550000000  0.5389850000000 1.0
C      1  0.4898030000000  0.4897490000000  0.5451190000000 1.0
C      1  0.5694560000000  0.5074530000000  0.5038880000000 1.0
C      1  0.5398830000000  0.4637470000000  0.5790430000000 1.0
C      1  0.4399450000000  0.4853830000000  0.5534370000000 1.0
C      1  0.5629650000000  0.4531230000000  0.4736450000000 1.0
C      1  0.4523010000000  0.4939980000000  0.4854300000000 1.0
C      1  0.5880010000000  0.4567980000000  0.4876680000000 1.0
C      1  0.5643040000000  0.4489830000000  0.5792000000000 1.0
C      1  0.3935180000000  0.4804310000000  0.4864180000000 1.0
C      1  0.4962150000000  0.4159600000000  0.5777730000000 1.0
C      1  0.4617190000000  0.5496090000000  0.4096030000000 1.0
C      1  0.4821850000000  0.5336980000000  0.4225810000000 1.0
C      1  0.4304120000000  0.5298820000000  0.5291340000000 1.0
C      1  0.5278930000000  0.4412670000000  0.4260450000000 1.0
C      1  0.5452710000000  0.5511070000000  0.5814200000000 1.0
C      1  0.5444750000000  0.4747940000000  0.5302960000000 1.0
C      1  0.5019650000000  0.4137020000000  0.4638860000000 1.0
C      1  0.5101430000000  0.5031000000000  0.4981870000000 1.0
C      1  0.4861430000000  0.4851270000000  0.4423120000000 1.0
C      1  0.5420500000000  0.5739260000000  0.5006160000000 1.0
C      1  0.4219100000000  0.4525730000000  0.4579830000000 1.0
C      1  0.4341070000000  0.4826380000000  0.5948850000000 1.0
C      1  0.4874450000000  0.4074540000000  0.5498040000000 1.0
C      1  0.4534030000000  0.5062400000000  0.5973830000000 1.0
C      1  0.4407030000000  0.4733240000000  0.4163790000000 1.0
C      1  0.4060550000000  0.4274160000000  0.5194960000000 1.0
C      1  0.5081890000000  0.5093100000000  0.5533040000000 1.0
C      1  0.4941000000000  0.4434370000000  0.5907420000000 1.0
C      1  0.5338680000000  0.5208810000000  0.4860840000000 1.0
C      1  0.5834700000000  0.5732350000000  0.5245180000000 1.0
C      1  0.4176090000000  0.5443370000000  0.4323940000000 1.0
C      1  0.5044720000000  0.5778030000000  0.4558050000000 1.0
C      1  0.3896040000000  0.4569740000000  0.5126910000000 1.0
C      1  0.5812780000000  0.5730810000000  0.4739620000000 1.0
C      1  0.5182930000000  0.4620420000000  0.5985480000000 1.0
C      1  0.4705310000000  0.4668070000000  0.4208610000000 1.0
C      1  0.5475990000000  0.5777150000000  0.4266210000000 1.0
C      1  0.4118580000000  0.5068950000000  0.5207660000000 1.0
C      1  0.4677830000000  0.4542220000000  0.5492330000000 1.0
C      1  0.5562010000000  0.5847080000000  0.5246250000000 1.0
C      1  0.5038080000000  0.5651140000000  0.5517860000000 1.0
C      1  0.4316760000000  0.4257660000000  0.4999330000000 1.0
C      1  0.5962680000000  0.4643490000000  0.5391480000000 1.0
C      1  0.5679590000000  0.4162690000000  0.5399500000000 1.0
C      1  0.5699500000000  0.5146430000000  0.5532640000000 1.0
C      1  0.5529690000000  0.5158430000000  0.5296670000000 1.0
C      1  0.5319150000000  0.4950880000000  0.4278100000000 1.0
C      1  0.4633630000000  0.5896380000000  0.5291830000000 1.0
C      1  0.4366950000000  0.4547820000000  0.5108430000000 1.0
C      1  0.5099340000000  0.5496860000000  0.5273810000000 1.0
C      1  0.4936770000000  0.4729110000000  0.4028440000000 1.0
C      1  0.5412110000000  0.5934920000000  0.5484930000000 1.0
C      1  0.4137440000000  0.4992350000000  0.5524990000000 1.0
C      1  0.5485510000000  0.4759370000000  0.4611660000000 1.0
C      1  0.4633440000000  0.4357800000000  0.4705630000000 1.0
C      1  0.4337910000000  0.5357690000000  0.5583170000000 1.0
C      1  0.5263170000000  0.4376450000000  0.5154910000000 1.0
C      1  0.4218130000000  0.4787620000000  0.4724590000000 1.0
C      1  0.4773610000000  0.4372980000000  0.4245190000000 1.0
C      1  0.4352520000000  0.4315970000000  0.4713800000000 1.0
C      1  0.5052920000000  0.4903690000000  0.6015500000000 1.0
C      1  0.4687530000000  0.4589080000000  0.5942910000000 1.0
C      1  0.5143250000000  0.4729360000000  0.4588420000000 1.0
C      1  0.4417900000000  0.5619010000000  0.4265940000000 1.0
C      1  0.5694310000000  0.5580040000000  0.4287160000000 1.0
C      1  0.4984520000000  0.4619000000000  0.5510430000000 1.0
C      1  0.4270800000000  0.4199250000000  0.5446080000000 1.0
C      1  0.5599840000000  0.5311600000000  0.4347440000000 1.0
C      1  0.5100870000000  0.5378520000000  0.4169220000000 1.0
C      1  0.5773850000000  0.4415770000000  0.5543780000000 1.0
C      1  0.5695170000000  0.5369640000000  0.5724690000000 1.0
C      1  0.5143360000000  0.6084860000000  0.5430410000000 1.0
C      1  0.4280680000000  0.4989910000000  0.4262470000000 1.0
C      1  0.4756970000000  0.4862130000000  0.6044630000000 1.0
C      1  0.4804820000000  0.5415940000000  0.4919690000000 1.0
C      1  0.5097720000000  0.4001660000000  0.5247080000000 1.0
C      1  0.5028090000000  0.4411870000000  0.5301200000000 1.0
END
