TITL C-862501-1041-595 36.3482345862446 125000 -704.650839583394 0 0 123 (C1) n - 1
REM
REM in /home/nfs/bkarasulu/CARBON/AIRSS/Generating-Clusters/TERSOFF/Higher-Symm/FIRE-HFTN
REM
REM
REM
REM
REM
REM ./C.cell (b20cbc046b6831c77cfcea5457e17084)
REM AIRSS Version 0.9.1 bugfix July 2018 build 013d7b7c2542+ Fri, 06 Jul 2018 19:26:36 +0100
REM compiler GCC version 9.2.1 20190827 (Red Hat 9.2.1-1)
REM options -cpp -mtune=generic -march=x86-64 -g -O0 -fpre-include=/usr/include/finclude/math-vector-fortran.h
REM seed -949258924 -428508262 1815340400 -555244563 1401034641 901139785 507050105 -1785927458 1376979815 829333806 815242742 -1350629911 -2066566102 -270495100 1448394371 -876680483 1487269631 1809655248 -1870110801 -1432623344 314082303 -1856355930 1879976119 -1956046777 -2029062193 1094193559 1778902901 -1891936318 989052860 -1168368628 -1298483011 -2121876490 -121958307
REM
CELL 1.54180   50.00000   50.00000   50.00000   90.00000   90.00000   90.00000
LATT -1
SFAC C  
C      1  0.5308700000000  0.5865810000000  0.4464350000000 1.0
C      1  0.4818230000000  0.5090470000000  0.5628030000000 1.0
C      1  0.5236090000000  0.4685000000000  0.4340200000000 1.0
C      1  0.4588150000000  0.5017500000000  0.5799070000000 1.0
C      1  0.4967050000000  0.4714240000000  0.5515370000000 1.0
C      1  0.4814640000000  0.4248070000000  0.4828530000000 1.0
C      1  0.4581970000000  0.4885480000000  0.3993910000000 1.0
C      1  0.5816410000000  0.4945390000000  0.5492600000000 1.0
C      1  0.4930780000000  0.5390380000000  0.5348170000000 1.0
C      1  0.5716850000000  0.5285120000000  0.4577400000000 1.0
C      1  0.5331690000000  0.5438840000000  0.5009270000000 1.0
C      1  0.5096340000000  0.5066760000000  0.5702840000000 1.0
C      1  0.5097700000000  0.5223750000000  0.4461520000000 1.0
C      1  0.5263120000000  0.4285650000000  0.5814220000000 1.0
C      1  0.5117950000000  0.4211650000000  0.5217300000000 1.0
C      1  0.5175950000000  0.5471990000000  0.4131990000000 1.0
C      1  0.6137410000000  0.4772580000000  0.5135350000000 1.0
C      1  0.5284740000000  0.4408000000000  0.4771850000000 1.0
C      1  0.5845730000000  0.4621720000000  0.4777440000000 1.0
C      1  0.3993300000000  0.4917380000000  0.4890350000000 1.0
C      1  0.4394420000000  0.5565410000000  0.4808050000000 1.0
C      1  0.4330880000000  0.5144800000000  0.4331460000000 1.0
C      1  0.4614090000000  0.4450000000000  0.4771580000000 1.0
C      1  0.5460930000000  0.5595280000000  0.5654210000000 1.0
C      1  0.4197540000000  0.5593740000000  0.5471880000000 1.0
C      1  0.5206000000000  0.4896390000000  0.3876730000000 1.0
C      1  0.5426070000000  0.5497090000000  0.5943770000000 1.0
C      1  0.5714340000000  0.4665980000000  0.5514430000000 1.0
C      1  0.4906040000000  0.4255280000000  0.5429590000000 1.0
C      1  0.5705650000000  0.4199400000000  0.4564050000000 1.0
C      1  0.5907350000000  0.4930060000000  0.5222550000000 1.0
C      1  0.6114060000000  0.4741640000000  0.4840800000000 1.0
C      1  0.4800560000000  0.5168190000000  0.4452090000000 1.0
C      1  0.4731470000000  0.5476910000000  0.5146600000000 1.0
C      1  0.4670650000000  0.5161160000000  0.3996390000000 1.0
C      1  0.4227140000000  0.4635440000000  0.4251680000000 1.0
C      1  0.5368690000000  0.4058160000000  0.5252350000000 1.0
C      1  0.4295990000000  0.3881450000000  0.4811050000000 1.0
C      1  0.5222410000000  0.4982690000000  0.5219710000000 1.0
C      1  0.4782590000000  0.4679250000000  0.4068160000000 1.0
C      1  0.4877520000000  0.5143000000000  0.4863790000000 1.0
C      1  0.5154600000000  0.4728020000000  0.6018240000000 1.0
C      1  0.5091510000000  0.5706200000000  0.4302280000000 1.0
C      1  0.4511780000000  0.5189490000000  0.5358780000000 1.0
C      1  0.5094470000000  0.5624030000000  0.4995030000000 1.0
C      1  0.4572270000000  0.5729040000000  0.5221590000000 1.0
C      1  0.5167700000000  0.5029480000000  0.5974880000000 1.0
C      1  0.4192320000000  0.5556330000000  0.5176040000000 1.0
C      1  0.5573860000000  0.5417880000000  0.5446020000000 1.0
C      1  0.4497560000000  0.4531820000000  0.5035710000000 1.0
C      1  0.4477290000000  0.5818130000000  0.4952660000000 1.0
C      1  0.4701270000000  0.5968860000000  0.4816410000000 1.0
C      1  0.4918620000000  0.6069490000000  0.4987800000000 1.0
C      1  0.5442240000000  0.4699110000000  0.5612290000000 1.0
C      1  0.4223180000000  0.4131650000000  0.4685060000000 1.0
C      1  0.5353710000000  0.4562630000000  0.5854590000000 1.0
C      1  0.5274200000000  0.5396810000000  0.4655070000000 1.0
C      1  0.5494720000000  0.4833290000000  0.4417180000000 1.0
C      1  0.4459500000000  0.5018310000000  0.4836900000000 1.0
C      1  0.4666230000000  0.4958320000000  0.5259570000000 1.0
C      1  0.5731160000000  0.4659800000000  0.4499940000000 1.0
C      1  0.5720980000000  0.5586470000000  0.4590130000000 1.0
C      1  0.5197120000000  0.5289380000000  0.5238060000000 1.0
C      1  0.4702830000000  0.4976760000000  0.4662630000000 1.0
C      1  0.5305900000000  0.5959440000000  0.5314890000000 1.0
C      1  0.5344000000000  0.4713880000000  0.4790440000000 1.0
C      1  0.4254630000000  0.4358340000000  0.5143170000000 1.0
C      1  0.4672180000000  0.4432500000000  0.4179840000000 1.0
C      1  0.5177890000000  0.4435860000000  0.4486300000000 1.0
C      1  0.5646640000000  0.5739220000000  0.4860110000000 1.0
C      1  0.5552290000000  0.4056310000000  0.5025500000000 1.0
C      1  0.5618100000000  0.5530050000000  0.5115380000000 1.0
C      1  0.4819490000000  0.5709190000000  0.4399380000000 1.0
C      1  0.5058020000000  0.5876680000000  0.5175440000000 1.0
C      1  0.4381510000000  0.5451610000000  0.5659930000000 1.0
C      1  0.4417290000000  0.4778530000000  0.5762220000000 1.0
C      1  0.5436840000000  0.4066950000000  0.5754900000000 1.0
C      1  0.4699420000000  0.4614450000000  0.5498100000000 1.0
C      1  0.5023720000000  0.4222620000000  0.4363460000000 1.0
C      1  0.4780200000000  0.5715910000000  0.4680290000000 1.0
C      1  0.5441300000000  0.3934050000000  0.5502660000000 1.0
C      1  0.5387250000000  0.5215280000000  0.6054620000000 1.0
C      1  0.4032040000000  0.5195120000000  0.4802630000000 1.0
C      1  0.5524280000000  0.5140280000000  0.4397950000000 1.0
C      1  0.4979470000000  0.4294580000000  0.5724030000000 1.0
C      1  0.4354920000000  0.4213400000000  0.5394430000000 1.0
C      1  0.6097480000000  0.5012180000000  0.4727840000000 1.0
C      1  0.3982970000000  0.5417510000000  0.5008430000000 1.0
C      1  0.3943390000000  0.4834850000000  0.5167390000000 1.0
C      1  0.4227840000000  0.5186820000000  0.5372490000000 1.0
C      1  0.5384370000000  0.5870850000000  0.5583290000000 1.0
C      1  0.4412640000000  0.4423180000000  0.4319590000000 1.0
C      1  0.5438880000000  0.5592320000000  0.4508610000000 1.0
C      1  0.5713060000000  0.4990530000000  0.5016230000000 1.0
C      1  0.5422320000000  0.5925230000000  0.4763820000000 1.0
C      1  0.5065760000000  0.4304030000000  0.4946550000000 1.0
C      1  0.5867150000000  0.5381140000000  0.5011530000000 1.0
C      1  0.5419190000000  0.5293350000000  0.4158900000000 1.0
C      1  0.4412060000000  0.4331050000000  0.4591580000000 1.0
C      1  0.4879920000000  0.5594570000000  0.5573690000000 1.0
C      1  0.5851210000000  0.5161270000000  0.4798820000000 1.0
C      1  0.5430160000000  0.4882410000000  0.5015790000000 1.0
C      1  0.4604570000000  0.5291740000000  0.4256810000000 1.0
C      1  0.4914240000000  0.4550640000000  0.5898570000000 1.0
C      1  0.4830660000000  0.5817690000000  0.5371100000000 1.0
C      1  0.5076190000000  0.4753940000000  0.4095020000000 1.0
C      1  0.4921570000000  0.4999140000000  0.5112430000000 1.0
C      1  0.4417000000000  0.5296840000000  0.4934720000000 1.0
C      1  0.5768030000000  0.4489670000000  0.5282610000000 1.0
C      1  0.4627200000000  0.4373980000000  0.5336100000000 1.0
C      1  0.4081080000000  0.4944010000000  0.5401010000000 1.0
C      1  0.4153990000000  0.4775810000000  0.5628390000000 1.0
C      1  0.5304420000000  0.4964360000000  0.5515990000000 1.0
C      1  0.4648020000000  0.5546730000000  0.5751070000000 1.0
C      1  0.5518300000000  0.4219220000000  0.4785150000000 1.0
C      1  0.4618400000000  0.5577160000000  0.4249980000000 1.0
C      1  0.4481480000000  0.4822620000000  0.5070140000000 1.0
C      1  0.4321630000000  0.4889900000000  0.4156320000000 1.0
C      1  0.4104990000000  0.5258950000000  0.4508860000000 1.0
C      1  0.4852370000000  0.5474040000000  0.4867560000000 1.0
C      1  0.5571990000000  0.5125480000000  0.5510430000000 1.0
C      1  0.4758140000000  0.4683760000000  0.4623700000000 1.0
C      1  0.5673680000000  0.4540400000000  0.5006290000000 1.0
END
