TITL C-862500-986-117 -710102.528460837 125000 -608.976956004221 0 0 104 (C1) n - 1
REM
REM in /home/nfs/bkarasulu/CARBON/AIRSS/Generating-Clusters/TERSOFF/Higher-Symm/FIRE-HFTN
REM
REM
REM
REM
REM
REM ./C.cell (b20cbc046b6831c77cfcea5457e17084)
REM AIRSS Version 0.9.1 bugfix July 2018 build 013d7b7c2542+ Fri, 06 Jul 2018 19:26:36 +0100
REM compiler GCC version 9.2.1 20190827 (Red Hat 9.2.1-1)
REM options -cpp -mtune=generic -march=x86-64 -g -O0 -fpre-include=/usr/include/finclude/math-vector-fortran.h
REM seed -996413764 -603511025 -2953637 1184511235 995189700 308951447 -230610838 1854158639 854356936 1460831616 -314160905 462997743 -1758135979 7370293 -662567765 661812811 -620952624 1999796454 -1552142161 555775174 1206368936 -1608364576 -1887353286 -1973798980 1857053938 -389051625 -1614716691 -5723157 -1036411404 -1537655069 -818371540 -1146136302 952406058
REM
CELL 1.54180   50.00000   50.00000   50.00000   90.00000   90.00000   90.00000
LATT -1
SFAC C  
C      1  0.4217110000000  0.5165790000000  0.5238070000000 1.0
C      1  0.5276930000000  0.4244490000000  0.5206550000000 1.0
C      1  0.5441550000000  0.5594040000000  0.5226740000000 1.0
C      1  0.5797810000000  0.5172520000000  0.4779150000000 1.0
C      1  0.4706300000000  0.4233150000000  0.4803660000000 1.0
C      1  0.4551420000000  0.5615750000000  0.4776960000000 1.0
C      1  0.4173080000000  0.5358120000000  0.5016870000000 1.0
C      1  0.5146480000000  0.4069610000000  0.5004660000000 1.0
C      1  0.5656320000000  0.5598790000000  0.5029470000000 1.0
C      1  0.5833540000000  0.5363850000000  0.5003490000000 1.0
C      1  0.4848630000000  0.4062840000000  0.5003100000000 1.0
C      1  0.4343440000000  0.5600090000000  0.4987600000000 1.0
C      1  0.5022500000000  0.4692450000000  0.5906220000000 1.0
C      1  0.5181970000000  0.5167940000000  0.5909670000000 1.0
C      1  0.4694680000000  0.5079690000000  0.5857150000000 1.0
C      1  0.4953810000000  0.4725480000000  0.4144990000000 1.0
C      1  0.4830230000000  0.5218920000000  0.4156980000000 1.0
C      1  0.5310000000000  0.5092220000000  0.4193370000000 1.0
C      1  0.4603210000000  0.4750610000000  0.4692490000000 1.0
C      1  0.5421620000000  0.4794900000000  0.4656280000000 1.0
C      1  0.5026610000000  0.5450700000000  0.4730140000000 1.0
C      1  0.5391640000000  0.4756980000000  0.5300650000000 1.0
C      1  0.4571260000000  0.4767200000000  0.5354760000000 1.0
C      1  0.4957690000000  0.5422060000000  0.5273390000000 1.0
C      1  0.5879980000000  0.4647350000000  0.5296400000000 1.0
C      1  0.4969410000000  0.5960470000000  0.5298230000000 1.0
C      1  0.4272470000000  0.4472150000000  0.5360020000000 1.0
C      1  0.4116960000000  0.4641790000000  0.4715920000000 1.0
C      1  0.5055130000000  0.5948360000000  0.4670190000000 1.0
C      1  0.5722150000000  0.4501720000000  0.4663360000000 1.0
C      1  0.5034890000000  0.4244920000000  0.5634340000000 1.0
C      1  0.5578280000000  0.5341510000000  0.5621770000000 1.0
C      1  0.4391950000000  0.5412460000000  0.5615620000000 1.0
C      1  0.4956720000000  0.4256920000000  0.4380150000000 1.0
C      1  0.4403510000000  0.5332420000000  0.4400830000000 1.0
C      1  0.5632650000000  0.5431590000000  0.4405670000000 1.0
C      1  0.4480140000000  0.5735120000000  0.5229050000000 1.0
C      1  0.4691230000000  0.4130350000000  0.5265120000000 1.0
C      1  0.5887260000000  0.5171290000000  0.5237210000000 1.0
C      1  0.5542080000000  0.5746870000000  0.4790890000000 1.0
C      1  0.5304950000000  0.4145210000000  0.4744140000000 1.0
C      1  0.4106760000000  0.5165850000000  0.4786610000000 1.0
C      1  0.5639010000000  0.4567670000000  0.5434740000000 1.0
C      1  0.5080540000000  0.5920660000000  0.5574360000000 1.0
C      1  0.4277010000000  0.4726750000000  0.5552100000000 1.0
C      1  0.4354660000000  0.4565780000000  0.4569260000000 1.0
C      1  0.4950220000000  0.5858730000000  0.4402960000000 1.0
C      1  0.5710780000000  0.4744730000000  0.4456210000000 1.0
C      1  0.4142240000000  0.4972920000000  0.5649930000000 1.0
C      1  0.5549650000000  0.4324520000000  0.5577990000000 1.0
C      1  0.5358220000000  0.5824400000000  0.5639100000000 1.0
C      1  0.5862430000000  0.4981610000000  0.4365890000000 1.0
C      1  0.4440860000000  0.4320350000000  0.4429660000000 1.0
C      1  0.4666060000000  0.5780570000000  0.4338980000000 1.0
C      1  0.4889840000000  0.5433520000000  0.5564630000000 1.0
C      1  0.4655980000000  0.4551760000000  0.5595320000000 1.0
C      1  0.5392330000000  0.4855840000000  0.5613300000000 1.0
C      1  0.5127300000000  0.5480910000000  0.4450200000000 1.0
C      1  0.5331130000000  0.4567230000000  0.4434210000000 1.0
C      1  0.4589690000000  0.4854640000000  0.4376470000000 1.0
C      1  0.5858130000000  0.4886580000000  0.5129520000000 1.0
C      1  0.4775320000000  0.5780360000000  0.5153010000000 1.0
C      1  0.4510110000000  0.4380750000000  0.5202100000000 1.0
C      1  0.4135460000000  0.4878250000000  0.4888020000000 1.0
C      1  0.5243570000000  0.5789950000000  0.4847760000000 1.0
C      1  0.5479390000000  0.4403070000000  0.4811520000000 1.0
C      1  0.5641790000000  0.5694810000000  0.4525190000000 1.0
C      1  0.4150130000000  0.5237410000000  0.4508350000000 1.0
C      1  0.5184050000000  0.4098960000000  0.4481930000000 1.0
C      1  0.4393970000000  0.5679350000000  0.5500260000000 1.0
C      1  0.5836270000000  0.5242290000000  0.5518170000000 1.0
C      1  0.4812710000000  0.4082820000000  0.5527220000000 1.0
C      1  0.4929250000000  0.4520430000000  0.5688630000000 1.0
C      1  0.5377630000000  0.5135050000000  0.5699860000000 1.0
C      1  0.4654530000000  0.5301240000000  0.5672480000000 1.0
C      1  0.5056650000000  0.4537920000000  0.4343580000000 1.0
C      1  0.4596220000000  0.5134830000000  0.4298530000000 1.0
C      1  0.5364440000000  0.5331340000000  0.4355810000000 1.0
C      1  0.5405610000000  0.4479390000000  0.5097830000000 1.0
C      1  0.5166410000000  0.5629450000000  0.5130950000000 1.0
C      1  0.4288570000000  0.4885290000000  0.5163910000000 1.0
C      1  0.4571860000000  0.4467870000000  0.4914120000000 1.0
C      1  0.4826890000000  0.5655150000000  0.4865550000000 1.0
C      1  0.5710900000000  0.4893930000000  0.4848480000000 1.0
C      1  0.5488550000000  0.5598680000000  0.5503260000000 1.0
C      1  0.4190690000000  0.5228100000000  0.5516930000000 1.0
C      1  0.5291790000000  0.4203860000000  0.5493490000000 1.0
C      1  0.4503170000000  0.5593360000000  0.4498910000000 1.0
C      1  0.5827440000000  0.5238060000000  0.4500930000000 1.0
C      1  0.4699170000000  0.4200890000000  0.4514610000000 1.0
C      1  0.5070230000000  0.5543410000000  0.5758580000000 1.0
C      1  0.4451940000000  0.4389220000000  0.5730540000000 1.0
C      1  0.5430440000000  0.4649340000000  0.5816060000000 1.0
C      1  0.4933650000000  0.5473670000000  0.4236130000000 1.0
C      1  0.5531390000000  0.4396720000000  0.4304250000000 1.0
C      1  0.4541240000000  0.4651730000000  0.4172310000000 1.0
C      1  0.4826540000000  0.4894340000000  0.5208580000000 1.0
C      1  0.5171260000000  0.4896730000000  0.5137860000000 1.0
C      1  0.4875380000000  0.5193460000000  0.5110630000000 1.0
C      1  0.5165510000000  0.4918330000000  0.4796380000000 1.0
C      1  0.4852280000000  0.4804270000000  0.4881890000000 1.0
C      1  0.5013750000000  0.5192630000000  0.4858920000000 1.0
C      1  0.4959500000000  0.4980600000000  0.5932080000000 1.0
C      1  0.5035290000000  0.5008440000000  0.4123360000000 1.0
END
