TITL C-862503-991-386 635488.873073119 125000 -570.509277230237 0 0 103 (C1) n - 1
REM
REM in /home/nfs/bkarasulu/CARBON/AIRSS/Generating-Clusters/TERSOFF/Higher-Symm/FIRE-HFTN
REM
REM
REM
REM
REM
REM ./C.cell (b20cbc046b6831c77cfcea5457e17084)
REM AIRSS Version 0.9.1 bugfix July 2018 build 013d7b7c2542+ Fri, 06 Jul 2018 19:26:36 +0100
REM compiler GCC version 9.2.1 20190827 (Red Hat 9.2.1-1)
REM options -cpp -mtune=generic -march=x86-64 -g -O0 -fpre-include=/usr/include/finclude/math-vector-fortran.h
REM seed 860756361 -1801118785 -4112378 222197892 874042302 1036172289 695926347 -97066190 349841307 1821352567 -86108481 -1211765505 -635576340 -2035846612 -11389202 1133303896 629038756 -210392203 -414944628 856510959 1292558704 1462591989 -1835797845 -1091205973 -1843712064 -1940411804 -974152904 -42664148 -1238248406 -1719207339 377840187 -227882965 -375341178
REM
CELL 1.54180   50.00000   50.00000   50.00000   90.00000   90.00000   90.00000
LATT -1
SFAC C  
C      1  0.5199410000000  0.4208760000000  0.5162860000000 1.0
C      1  0.5195160000000  0.5776770000000  0.5161570000000 1.0
C      1  0.5752900000000  0.4718840000000  0.4716200000000 1.0
C      1  0.5722840000000  0.5286450000000  0.4718150000000 1.0
C      1  0.5403710000000  0.4508990000000  0.5662050000000 1.0
C      1  0.5376310000000  0.5511790000000  0.5645890000000 1.0
C      1  0.4280280000000  0.4519230000000  0.4662910000000 1.0
C      1  0.4284650000000  0.5482730000000  0.4669810000000 1.0
C      1  0.5746620000000  0.4754910000000  0.5439950000000 1.0
C      1  0.5748260000000  0.5276390000000  0.5444340000000 1.0
C      1  0.5604010000000  0.5526290000000  0.4926750000000 1.0
C      1  0.5607870000000  0.4491340000000  0.4935670000000 1.0
C      1  0.4666530000000  0.5243060000000  0.4348020000000 1.0
C      1  0.4668330000000  0.4775610000000  0.4351240000000 1.0
C      1  0.5194180000000  0.5689950000000  0.4653940000000 1.0
C      1  0.5210420000000  0.4324570000000  0.4654540000000 1.0
C      1  0.4643960000000  0.5675330000000  0.4358690000000 1.0
C      1  0.4651490000000  0.4322150000000  0.4370400000000 1.0
C      1  0.5471230000000  0.5613910000000  0.4643670000000 1.0
C      1  0.5485230000000  0.4401970000000  0.4653150000000 1.0
C      1  0.4147690000000  0.4746480000000  0.5230210000000 1.0
C      1  0.4162930000000  0.5263770000000  0.5176100000000 1.0
C      1  0.5152670000000  0.5409270000000  0.4963250000000 1.0
C      1  0.5128780000000  0.4578660000000  0.4978220000000 1.0
C      1  0.4523540000000  0.5583560000000  0.5360270000000 1.0
C      1  0.4501330000000  0.4384420000000  0.5362420000000 1.0
C      1  0.4844170000000  0.4552100000000  0.5034730000000 1.0
C      1  0.4864980000000  0.5429110000000  0.5012900000000 1.0
C      1  0.4549900000000  0.5421300000000  0.5596260000000 1.0
C      1  0.4537480000000  0.4498330000000  0.5621590000000 1.0
C      1  0.5577910000000  0.5390680000000  0.4445960000000 1.0
C      1  0.5602670000000  0.4606850000000  0.4445750000000 1.0
C      1  0.6096570000000  0.4774290000000  0.5057800000000 1.0
C      1  0.6056010000000  0.5281520000000  0.5030350000000 1.0
C      1  0.4786080000000  0.5270640000000  0.5667410000000 1.0
C      1  0.4766830000000  0.4650810000000  0.5698980000000 1.0
C      1  0.3891010000000  0.5249710000000  0.5074100000000 1.0
C      1  0.3866930000000  0.4759260000000  0.5152890000000 1.0
C      1  0.5000830000000  0.5518630000000  0.4515050000000 1.0
C      1  0.5017080000000  0.4505030000000  0.4520420000000 1.0
C      1  0.5133020000000  0.4149790000000  0.4876930000000 1.0
C      1  0.5117900000000  0.5849890000000  0.4885780000000 1.0
C      1  0.5456520000000  0.5352990000000  0.5408530000000 1.0
C      1  0.5453420000000  0.4669420000000  0.5414250000000 1.0
C      1  0.4304360000000  0.4500110000000  0.5178460000000 1.0
C      1  0.4316870000000  0.5512570000000  0.5167750000000 1.0
C      1  0.5235510000000  0.5407650000000  0.5872240000000 1.0
C      1  0.5236770000000  0.4590500000000  0.5880680000000 1.0
C      1  0.4865930000000  0.4728600000000  0.4114150000000 1.0
C      1  0.4873020000000  0.5271500000000  0.4112160000000 1.0
C      1  0.5384580000000  0.5507140000000  0.5150650000000 1.0
C      1  0.5381370000000  0.4503280000000  0.5157980000000 1.0
C      1  0.4710950000000  0.4736560000000  0.5227290000000 1.0
C      1  0.4734410000000  0.5250530000000  0.5215330000000 1.0
C      1  0.4540810000000  0.4394790000000  0.4639850000000 1.0
C      1  0.4546940000000  0.5600100000000  0.4633180000000 1.0
C      1  0.4692850000000  0.4181600000000  0.5274230000000 1.0
C      1  0.4703190000000  0.5810320000000  0.5318100000000 1.0
C      1  0.4951640000000  0.5371960000000  0.5885410000000 1.0
C      1  0.4953850000000  0.4549820000000  0.5892690000000 1.0
C      1  0.4904790000000  0.4443230000000  0.4251210000000 1.0
C      1  0.4906980000000  0.5567780000000  0.4233420000000 1.0
C      1  0.4235550000000  0.5210390000000  0.4759240000000 1.0
C      1  0.4233320000000  0.4790510000000  0.4757250000000 1.0
C      1  0.4714170000000  0.5641370000000  0.4872200000000 1.0
C      1  0.4692780000000  0.4346610000000  0.4887090000000 1.0
C      1  0.4823810000000  0.5283500000000  0.4618150000000 1.0
C      1  0.4840450000000  0.4753470000000  0.4610070000000 1.0
C      1  0.5490810000000  0.5258000000000  0.4180200000000 1.0
C      1  0.5493200000000  0.4729350000000  0.4184050000000 1.0
C      1  0.5949410000000  0.4626160000000  0.5279340000000 1.0
C      1  0.5950310000000  0.5407030000000  0.5285130000000 1.0
C      1  0.4977000000000  0.4174900000000  0.5350110000000 1.0
C      1  0.4991640000000  0.5806610000000  0.5368300000000 1.0
C      1  0.5882230000000  0.5017750000000  0.5141790000000 1.0
C      1  0.4503380000000  0.5008190000000  0.4321030000000 1.0
C      1  0.5292740000000  0.5021090000000  0.5718340000000 1.0
C      1  0.4282060000000  0.5059660000000  0.5610710000000 1.0
C      1  0.5152600000000  0.4992220000000  0.4935820000000 1.0
C      1  0.5024650000000  0.4960660000000  0.5841780000000 1.0
C      1  0.4046330000000  0.5177900000000  0.5733290000000 1.0
C      1  0.5348250000000  0.4992170000000  0.4138850000000 1.0
C      1  0.5434220000000  0.4941710000000  0.4873980000000 1.0
C      1  0.5806830000000  0.5014590000000  0.5565130000000 1.0
C      1  0.4962020000000  0.5017920000000  0.4702410000000 1.0
C      1  0.5880790000000  0.5009140000000  0.4706100000000 1.0
C      1  0.5043030000000  0.4995660000000  0.4092060000000 1.0
C      1  0.5464380000000  0.4988780000000  0.4574100000000 1.0
C      1  0.4214410000000  0.5006840000000  0.4329150000000 1.0
C      1  0.6163860000000  0.5023110000000  0.4831870000000 1.0
C      1  0.5734520000000  0.5003480000000  0.4408620000000 1.0
C      1  0.4569320000000  0.4998720000000  0.5156870000000 1.0
C      1  0.4511710000000  0.4973860000000  0.5780960000000 1.0
C      1  0.4288610000000  0.5012560000000  0.5307620000000 1.0
C      1  0.4075400000000  0.5002870000000  0.4586610000000 1.0
C      1  0.3743130000000  0.5003970000000  0.5068580000000 1.0
C      1  0.4462610000000  0.4999690000000  0.4874070000000 1.0
C      1  0.5585630000000  0.4992310000000  0.5129580000000 1.0
C      1  0.5100310000000  0.5025900000000  0.5220170000000 1.0
C      1  0.5193380000000  0.5088400000000  0.4516290000000 1.0
C      1  0.4795880000000  0.4949480000000  0.5598050000000 1.0
C      1  0.4744850000000  0.5027240000000  0.6007040000000 1.0
C      1  0.5352790000000  0.5016990000000  0.5405940000000 1.0
END
