TITL C-862500-986-484 349.748079030027 125000 -739.735124824218 0 0 129 (C1) n - 1
REM
REM in /home/nfs/bkarasulu/CARBON/AIRSS/Generating-Clusters/TERSOFF/Higher-Symm/FIRE-HFTN
REM
REM
REM
REM
REM
REM ./C.cell (b20cbc046b6831c77cfcea5457e17084)
REM AIRSS Version 0.9.1 bugfix July 2018 build 013d7b7c2542+ Fri, 06 Jul 2018 19:26:36 +0100
REM compiler GCC version 9.2.1 20190827 (Red Hat 9.2.1-1)
REM options -cpp -mtune=generic -march=x86-64 -g -O0 -fpre-include=/usr/include/finclude/math-vector-fortran.h
REM seed -1581126288 -521985758 1384473450 -769154681 1001620504 584485877 -234328830 -386674419 1373617531 -2134846261 1773431741 -1551745538 671577433 -2040436090 -263007624 -1269193808 1856584476 -126501066 1362183085 143768267 1561693461 530282376 -1502533144 1922216916 -737056340 1772851299 -1991360117 835525851 -1204264209 -324778530 1170051585 1853259059 -1580303342
REM
CELL 1.54180   50.00000   50.00000   50.00000   90.00000   90.00000   90.00000
LATT -1
SFAC C  
C      1  0.5081410000000  0.5555830000000  0.4170270000000 1.0
C      1  0.4804070000000  0.4436590000000  0.5922930000000 1.0
C      1  0.5424070000000  0.4670320000000  0.4734340000000 1.0
C      1  0.4584910000000  0.5340980000000  0.5245900000000 1.0
C      1  0.5341080000000  0.5691990000000  0.4339640000000 1.0
C      1  0.4641470000000  0.4351320000000  0.5674960000000 1.0
C      1  0.4938460000000  0.5208220000000  0.4787420000000 1.0
C      1  0.5100190000000  0.4909570000000  0.5160080000000 1.0
C      1  0.5613780000000  0.5431550000000  0.5488600000000 1.0
C      1  0.4401760000000  0.4578760000000  0.4523690000000 1.0
C      1  0.5638020000000  0.5682760000000  0.5036900000000 1.0
C      1  0.4358760000000  0.4331290000000  0.4968690000000 1.0
C      1  0.4303680000000  0.4627750000000  0.5294050000000 1.0
C      1  0.5676780000000  0.5382350000000  0.4717980000000 1.0
C      1  0.4880140000000  0.5693210000000  0.3998240000000 1.0
C      1  0.5033050000000  0.4283390000000  0.6020280000000 1.0
C      1  0.5297170000000  0.4069590000000  0.5408400000000 1.0
C      1  0.4688620000000  0.5934000000000  0.4567570000000 1.0
C      1  0.5518260000000  0.4290540000000  0.4458220000000 1.0
C      1  0.4506660000000  0.5711300000000  0.5538570000000 1.0
C      1  0.5740500000000  0.5685950000000  0.4719510000000 1.0
C      1  0.4251050000000  0.4322430000000  0.5290730000000 1.0
C      1  0.5504220000000  0.5208680000000  0.5714720000000 1.0
C      1  0.4496890000000  0.4762230000000  0.4268590000000 1.0
C      1  0.5351570000000  0.5415460000000  0.5905040000000 1.0
C      1  0.4669400000000  0.4541460000000  0.4113610000000 1.0
C      1  0.5371820000000  0.5372720000000  0.4748010000000 1.0
C      1  0.4605460000000  0.4653830000000  0.5275780000000 1.0
C      1  0.5325010000000  0.4752000000000  0.5230330000000 1.0
C      1  0.4664980000000  0.5270790000000  0.4744140000000 1.0
C      1  0.4049580000000  0.5483350000000  0.4717940000000 1.0
C      1  0.5950860000000  0.4548920000000  0.5272940000000 1.0
C      1  0.5182840000000  0.5442770000000  0.5227010000000 1.0
C      1  0.4816260000000  0.4579410000000  0.4819870000000 1.0
C      1  0.5400080000000  0.4589040000000  0.5853750000000 1.0
C      1  0.4513200000000  0.5386150000000  0.4162730000000 1.0
C      1  0.4859630000000  0.5425380000000  0.5752410000000 1.0
C      1  0.5157560000000  0.4558190000000  0.4230440000000 1.0
C      1  0.5131620000000  0.5771200000000  0.4916730000000 1.0
C      1  0.4872630000000  0.4252790000000  0.5077810000000 1.0
C      1  0.4359620000000  0.5470120000000  0.5421930000000 1.0
C      1  0.5654350000000  0.4538440000000  0.4571260000000 1.0
C      1  0.4496860000000  0.4935640000000  0.4933180000000 1.0
C      1  0.5507020000000  0.5089410000000  0.5060070000000 1.0
C      1  0.5518750000000  0.4670910000000  0.5033760000000 1.0
C      1  0.4483370000000  0.5354010000000  0.4950960000000 1.0
C      1  0.5227820000000  0.4289270000000  0.4371390000000 1.0
C      1  0.4795490000000  0.5698160000000  0.5627340000000 1.0
C      1  0.5708180000000  0.5250110000000  0.6175410000000 1.0
C      1  0.4307890000000  0.4640440000000  0.3816950000000 1.0
C      1  0.5914170000000  0.4958140000000  0.4531070000000 1.0
C      1  0.4074860000000  0.5063280000000  0.5466490000000 1.0
C      1  0.4537120000000  0.4456140000000  0.3860350000000 1.0
C      1  0.5490620000000  0.5452470000000  0.6165850000000 1.0
C      1  0.5562080000000  0.5126050000000  0.4153620000000 1.0
C      1  0.4440600000000  0.4880250000000  0.5808840000000 1.0
C      1  0.5340360000000  0.5538060000000  0.5455980000000 1.0
C      1  0.4672760000000  0.4480090000000  0.4584100000000 1.0
C      1  0.4000170000000  0.5221660000000  0.4602240000000 1.0
C      1  0.5945510000000  0.4716000000000  0.5510230000000 1.0
C      1  0.4729440000000  0.4066950000000  0.4632230000000 1.0
C      1  0.5282770000000  0.5944180000000  0.5366960000000 1.0
C      1  0.5286780000000  0.4303970000000  0.5871120000000 1.0
C      1  0.4595490000000  0.5681970000000  0.4112000000000 1.0
C      1  0.4108770000000  0.5128610000000  0.4348850000000 1.0
C      1  0.5907860000000  0.4618200000000  0.5780880000000 1.0
C      1  0.5150630000000  0.4277900000000  0.4990570000000 1.0
C      1  0.4850920000000  0.5744810000000  0.4994970000000 1.0
C      1  0.5249590000000  0.4745760000000  0.5643330000000 1.0
C      1  0.4721170000000  0.5241670000000  0.4328950000000 1.0
C      1  0.5707290000000  0.5103920000000  0.5917390000000 1.0
C      1  0.4293750000000  0.4823870000000  0.4049620000000 1.0
C      1  0.5072370000000  0.4528300000000  0.5478630000000 1.0
C      1  0.4910160000000  0.5471410000000  0.4461430000000 1.0
C      1  0.5256470000000  0.4919230000000  0.4534070000000 1.0
C      1  0.4759330000000  0.5079020000000  0.5422160000000 1.0
C      1  0.4986530000000  0.5207020000000  0.5573640000000 1.0
C      1  0.5020580000000  0.4784420000000  0.4397530000000 1.0
C      1  0.5103910000000  0.5257560000000  0.4156520000000 1.0
C      1  0.4870440000000  0.4709450000000  0.5817890000000 1.0
C      1  0.4729200000000  0.5713750000000  0.4389630000000 1.0
C      1  0.5205570000000  0.4276350000000  0.5583100000000 1.0
C      1  0.4639730000000  0.5892760000000  0.4848070000000 1.0
C      1  0.5362300000000  0.4127860000000  0.5134500000000 1.0
C      1  0.4396330000000  0.5168710000000  0.5842180000000 1.0
C      1  0.5613730000000  0.4831810000000  0.4144910000000 1.0
C      1  0.5247480000000  0.5049800000000  0.5630030000000 1.0
C      1  0.4748270000000  0.4936040000000  0.4335930000000 1.0
C      1  0.4233680000000  0.4666570000000  0.5744430000000 1.0
C      1  0.5746860000000  0.5347090000000  0.4252310000000 1.0
C      1  0.4635620000000  0.5328840000000  0.5933960000000 1.0
C      1  0.5384150000000  0.4657240000000  0.4051930000000 1.0
C      1  0.4683290000000  0.4861600000000  0.5655960000000 1.0
C      1  0.5311000000000  0.5119890000000  0.4292660000000 1.0
C      1  0.4238410000000  0.4566840000000  0.4779420000000 1.0
C      1  0.5759410000000  0.5451830000000  0.5223350000000 1.0
C      1  0.5352970000000  0.5806630000000  0.5104380000000 1.0
C      1  0.4648160000000  0.4202690000000  0.4898470000000 1.0
C      1  0.5635740000000  0.5626470000000  0.4378950000000 1.0
C      1  0.4344780000000  0.4385300000000  0.5634270000000 1.0
C      1  0.5636390000000  0.4201400000000  0.5085450000000 1.0
C      1  0.4366850000000  0.5825030000000  0.4911030000000 1.0
C      1  0.5200800000000  0.5540640000000  0.4572570000000 1.0
C      1  0.4777430000000  0.4502470000000  0.5459830000000 1.0
C      1  0.5668120000000  0.4657900000000  0.5939430000000 1.0
C      1  0.4237040000000  0.5298040000000  0.4151060000000 1.0
C      1  0.5907480000000  0.4569460000000  0.4756280000000 1.0
C      1  0.4103360000000  0.5450710000000  0.5241650000000 1.0
C      1  0.5210510000000  0.4449610000000  0.4758260000000 1.0
C      1  0.4785440000000  0.5575160000000  0.5226760000000 1.0
C      1  0.5020510000000  0.4077600000000  0.4502540000000 1.0
C      1  0.5009840000000  0.5911080000000  0.5524960000000 1.0
C      1  0.5717180000000  0.4474380000000  0.5117530000000 1.0
C      1  0.4282750000000  0.5553110000000  0.4877040000000 1.0
C      1  0.5829950000000  0.5234620000000  0.4510640000000 1.0
C      1  0.4136470000000  0.4780790000000  0.5489470000000 1.0
C      1  0.3995160000000  0.5005890000000  0.4965820000000 1.0
C      1  0.6006110000000  0.5020920000000  0.5027890000000 1.0
C      1  0.5232310000000  0.5615190000000  0.5722360000000 1.0
C      1  0.4790140000000  0.4383190000000  0.4331320000000 1.0
C      1  0.5770450000000  0.5179990000000  0.5104160000000 1.0
C      1  0.4230990000000  0.4846600000000  0.4888080000000 1.0
C      1  0.5288080000000  0.5271630000000  0.5011290000000 1.0
C      1  0.4695440000000  0.4753030000000  0.5022950000000 1.0
C      1  0.4241900000000  0.5262320000000  0.5615120000000 1.0
C      1  0.5764830000000  0.4750320000000  0.4378620000000 1.0
C      1  0.3978660000000  0.5173750000000  0.5209540000000 1.0
C      1  0.6022050000000  0.4852300000000  0.4785270000000 1.0
C      1  0.5033410000000  0.4961640000000  0.4887050000000 1.0
END
