TITL C-862129-6180-665 -0.00179351678197953 125000 -423.191276623659 0 0 79 (C2v) n - 1
REM
REM in /home/nfs/bkarasulu/CARBON/AIRSS/Generating-Clusters/TERSOFF/Higher-Symm/FIRE-HFTN
REM
REM
REM
REM
REM
REM ./C.cell (b20cbc046b6831c77cfcea5457e17084)
REM AIRSS Version 0.9.1 bugfix July 2018 build 013d7b7c2542+ Fri, 06 Jul 2018 19:26:36 +0100
REM compiler GCC version 9.2.1 20190827 (Red Hat 9.2.1-1)
REM options -cpp -mtune=generic -march=x86-64 -g -O0 -fpre-include=/usr/include/finclude/math-vector-fortran.h
REM seed 749962514 565845135 -897482875 739917156 -458945068 697540708 -2048839929 -1749286535 -698604897 452332372 1565963050 26902663 -1347367059 -1530475820 120000166 -1906250762 -1257867631 -1318731848 -471512975 1546119320 -1242541058 -1527030626 -1667191825 289660385 702947095 491229276 -680781918 -1074549771 119211723 -162386186 293019322 1305545327 1888945597
REM
CELL 1.54180   50.00000   50.00000   50.00000   90.00000   90.00000   90.00000
LATT -1
SFAC C  
C      1  0.4766430000000  0.5144190000000  0.5887410000000 1.0
C      1  0.5227000000000  0.5141210000000  0.4149950000000 1.0
C      1  0.4766430000000  0.4851490000000  0.5887410000000 1.0
C      1  0.5227000000000  0.4854470000000  0.4149950000000 1.0
C      1  0.4766490000000  0.5144190000000  0.4115430000000 1.0
C      1  0.5226930000000  0.5141210000000  0.5852930000000 1.0
C      1  0.4766490000000  0.4851490000000  0.4115430000000 1.0
C      1  0.5226930000000  0.4854470000000  0.5852930000000 1.0
C      1  0.5754660000000  0.4846490000000  0.5339810000000 1.0
C      1  0.4287420000000  0.4848470000000  0.4611690000000 1.0
C      1  0.5754660000000  0.5149190000000  0.5339810000000 1.0
C      1  0.4287420000000  0.5147200000000  0.4611690000000 1.0
C      1  0.5754680000000  0.4846490000000  0.4663110000000 1.0
C      1  0.4287390000000  0.4848470000000  0.5391120000000 1.0
C      1  0.5754680000000  0.5149190000000  0.4663110000000 1.0
C      1  0.4287390000000  0.5147200000000  0.5391120000000 1.0
C      1  0.4828450000000  0.5712960000000  0.4515790000000 1.0
C      1  0.5117180000000  0.5700910000000  0.5485920000000 1.0
C      1  0.4828450000000  0.4282720000000  0.4515790000000 1.0
C      1  0.5117180000000  0.4294770000000  0.5485920000000 1.0
C      1  0.4828410000000  0.5712960000000  0.5487060000000 1.0
C      1  0.5117220000000  0.5700910000000  0.4516950000000 1.0
C      1  0.4828410000000  0.4282720000000  0.5487060000000 1.0
C      1  0.5117220000000  0.4294770000000  0.4516950000000 1.0
C      1  0.4783420000000  0.4726130000000  0.4413880000000 1.0
C      1  0.5348840000000  0.4723520000000  0.5624360000000 1.0
C      1  0.4783420000000  0.5269550000000  0.4413880000000 1.0
C      1  0.5348840000000  0.5272160000000  0.5624360000000 1.0
C      1  0.4783380000000  0.4726130000000  0.5588960000000 1.0
C      1  0.5348890000000  0.4723520000000  0.4378520000000 1.0
C      1  0.4783380000000  0.5269550000000  0.5588960000000 1.0
C      1  0.5348890000000  0.5272160000000  0.4378520000000 1.0
C      1  0.5269290000000  0.5750510000000  0.4759120000000 1.0
C      1  0.4677530000000  0.5769290000000  0.5245000000000 1.0
C      1  0.5269290000000  0.4245170000000  0.4759120000000 1.0
C      1  0.4677530000000  0.4226390000000  0.5245000000000 1.0
C      1  0.5269270000000  0.5750510000000  0.5243760000000 1.0
C      1  0.4677550000000  0.5769290000000  0.4757840000000 1.0
C      1  0.5269270000000  0.4245170000000  0.5243760000000 1.0
C      1  0.4677550000000  0.4226390000000  0.4757840000000 1.0
C      1  0.5520440000000  0.5268710000000  0.4837770000000 1.0
C      1  0.4440200000000  0.5292400000000  0.5163290000000 1.0
C      1  0.5520440000000  0.4726970000000  0.4837770000000 1.0
C      1  0.4440200000000  0.4703270000000  0.5163290000000 1.0
C      1  0.5520430000000  0.5268710000000  0.5165130000000 1.0
C      1  0.4440210000000  0.5292400000000  0.4839530000000 1.0
C      1  0.5520430000000  0.4726970000000  0.5165130000000 1.0
C      1  0.4440210000000  0.4703270000000  0.4839530000000 1.0
C      1  0.4710030000000  0.4817020000000  0.4745880000000 1.0
C      1  0.5292110000000  0.4845330000000  0.5340800000000 1.0
C      1  0.4710030000000  0.5178660000000  0.4745880000000 1.0
C      1  0.5292110000000  0.5150350000000  0.5340800000000 1.0
C      1  0.4710010000000  0.4817020000000  0.5256960000000 1.0
C      1  0.5292140000000  0.4845330000000  0.4662080000000 1.0
C      1  0.4710010000000  0.5178660000000  0.5256960000000 1.0
C      1  0.5292140000000  0.5150350000000  0.4662080000000 1.0
C      1  0.4434090000000  0.4383670000000  0.4839960000000 1.0
C      1  0.5510800000000  0.4405780000000  0.5161470000000 1.0
C      1  0.4434090000000  0.5612000000000  0.4839960000000 1.0
C      1  0.5510800000000  0.5589900000000  0.5161470000000 1.0
C      1  0.4434080000000  0.4383670000000  0.5162860000000 1.0
C      1  0.5510810000000  0.4405780000000  0.4841430000000 1.0
C      1  0.4434080000000  0.5612000000000  0.5162860000000 1.0
C      1  0.5510810000000  0.5589900000000  0.4841430000000 1.0
C      1  0.5651320000000  0.5277460000000  0.4405470000000 1.0
C      1  0.4460490000000  0.5271970000000  0.5605760000000 1.0
C      1  0.5651320000000  0.4718220000000  0.4405470000000 1.0
C      1  0.4460490000000  0.4723710000000  0.5605760000000 1.0
C      1  0.5651280000000  0.5277460000000  0.5597440000000 1.0
C      1  0.4460540000000  0.5271970000000  0.4397060000000 1.0
C      1  0.5651280000000  0.4718220000000  0.5597440000000 1.0
C      1  0.4460540000000  0.4723710000000  0.4397060000000 1.0
C      1  0.4827660000000  0.5854640000000  0.5001420000000 1.0
C      1  0.5123530000000  0.4151200000000  0.5001430000000 1.0
C      1  0.5123530000000  0.5844480000000  0.5001430000000 1.0
C      1  0.4827660000000  0.4141040000000  0.5001420000000 1.0
C      1  0.4957440000000  0.4997840000000  0.5543490000000 1.0
C      1  0.4957480000000  0.4997840000000  0.4459370000000 1.0
C      1  0.4891730000000  0.4997840000000  0.5001430000000 1.0
END
