TITL C-862130-1496-957 0.0864434142693257 125000 -892.673810403032 0 0 156 (C1) n - 1
REM
REM in /home/nfs/bkarasulu/CARBON/AIRSS/Generating-Clusters/TERSOFF/Higher-Symm/FIRE-HFTN
REM
REM
REM
REM
REM
REM ./C.cell (b20cbc046b6831c77cfcea5457e17084)
REM AIRSS Version 0.9.1 bugfix July 2018 build 013d7b7c2542+ Fri, 06 Jul 2018 19:26:36 +0100
REM compiler GCC version 9.2.1 20190827 (Red Hat 9.2.1-1)
REM options -cpp -mtune=generic -march=x86-64 -g -O0 -fpre-include=/usr/include/finclude/math-vector-fortran.h
REM seed -827711986 1889788347 -1053902622 -1427715051 -1203944881 -631907905 2071917658 1205362972 -448775144 611290727 1033028080 324954837 1773258948 -1821790338 -1733972477 -243643150 -1022344049 -466768132 348708983 954566828 1985535188 2034935088 -1800528865 -320055581 -1498522973 1444603228 -959053101 -1776604908 608314893 929440905 2146746922 -410751007 -2014011551
REM
CELL 1.54180   50.00000   50.00000   50.00000   90.00000   90.00000   90.00000
LATT -1
SFAC C  
C      1  0.4698890000000  0.5675060000000  0.4063300000000 1.0
C      1  0.4696900000000  0.5463380000000  0.6045290000000 1.0
C      1  0.4698350000000  0.3859340000000  0.4882810000000 1.0
C      1  0.5948700000000  0.4871560000000  0.5560410000000 1.0
C      1  0.5953220000000  0.4575050000000  0.4610530000000 1.0
C      1  0.5951540000000  0.5543310000000  0.4828900000000 1.0
C      1  0.5161210000000  0.5797740000000  0.4619000000000 1.0
C      1  0.5149300000000  0.4926650000000  0.5866840000000 1.0
C      1  0.5155110000000  0.4281520000000  0.4506850000000 1.0
C      1  0.4989110000000  0.5411550000000  0.5990360000000 1.0
C      1  0.4992560000000  0.3927650000000  0.4861930000000 1.0
C      1  0.4990620000000  0.5656880000000  0.4139840000000 1.0
C      1  0.5080050000000  0.5008110000000  0.5457360000000 1.0
C      1  0.5086920000000  0.4586530000000  0.4787400000000 1.0
C      1  0.5082430000000  0.5398320000000  0.4740050000000 1.0
C      1  0.5293190000000  0.5199030000000  0.3915010000000 1.0
C      1  0.5288070000000  0.5831750000000  0.5711330000000 1.0
C      1  0.5304460000000  0.3952500000000  0.5370590000000 1.0
C      1  0.4809450000000  0.4577640000000  0.5927980000000 1.0
C      1  0.4812760000000  0.4405810000000  0.4178410000000 1.0
C      1  0.4805140000000  0.6009870000000  0.4887570000000 1.0
C      1  0.4284850000000  0.4655950000000  0.4358850000000 1.0
C      1  0.4257610000000  0.5749590000000  0.5017160000000 1.0
C      1  0.4273070000000  0.4602110000000  0.5637800000000 1.0
C      1  0.4567790000000  0.5219610000000  0.4803160000000 1.0
C      1  0.4514150000000  0.5103360000000  0.5279060000000 1.0
C      1  0.4572080000000  0.4727890000000  0.4955210000000 1.0
C      1  0.5633480000000  0.5285180000000  0.4220420000000 1.0
C      1  0.5627080000000  0.5523320000000  0.5628620000000 1.0
C      1  0.5639890000000  0.4182710000000  0.5141280000000 1.0
C      1  0.5861380000000  0.5121550000000  0.5690760000000 1.0
C      1  0.5867380000000  0.4337290000000  0.4762120000000 1.0
C      1  0.5868340000000  0.5535880000000  0.4546090000000 1.0
C      1  0.4557640000000  0.5153590000000  0.3803110000000 1.0
C      1  0.4564110000000  0.5956310000000  0.5734510000000 1.0
C      1  0.4564470000000  0.3878280000000  0.5461650000000 1.0
C      1  0.5132790000000  0.5542920000000  0.5751260000000 1.0
C      1  0.5145690000000  0.4058530000000  0.5098210000000 1.0
C      1  0.5139020000000  0.5384630000000  0.4140120000000 1.0
C      1  0.4441470000000  0.5468820000000  0.4709510000000 1.0
C      1  0.4405770000000  0.5055630000000  0.5547360000000 1.0
C      1  0.4436600000000  0.4528160000000  0.4775370000000 1.0
C      1  0.4361110000000  0.5199200000000  0.4005600000000 1.0
C      1  0.4362180000000  0.5760960000000  0.5684280000000 1.0
C      1  0.4369000000000  0.4038920000000  0.5327590000000 1.0
C      1  0.5595900000000  0.4990470000000  0.5354230000000 1.0
C      1  0.5600750000000  0.4689840000000  0.4822080000000 1.0
C      1  0.5596300000000  0.5313060000000  0.4818930000000 1.0
C      1  0.5991470000000  0.5268600000000  0.4952770000000 1.0
C      1  0.5995250000000  0.4901010000000  0.5261600000000 1.0
C      1  0.5997130000000  0.4821960000000  0.4784010000000 1.0
C      1  0.5641440000000  0.4192120000000  0.4639170000000 1.0
C      1  0.5648580000000  0.5722450000000  0.4481180000000 1.0
C      1  0.5636210000000  0.5087070000000  0.5879040000000 1.0
C      1  0.4092440000000  0.5089420000000  0.5588440000000 1.0
C      1  0.4126590000000  0.4485480000000  0.4804190000000 1.0
C      1  0.4135500000000  0.5450450000000  0.4647730000000 1.0
C      1  0.4316030000000  0.5069990000000  0.6011620000000 1.0
C      1  0.4313370000000  0.4093320000000  0.4574530000000 1.0
C      1  0.4312150000000  0.5837610000000  0.4410220000000 1.0
C      1  0.5241080000000  0.4841740000000  0.3949060000000 1.0
C      1  0.5240590000000  0.5990790000000  0.5388680000000 1.0
C      1  0.5249190000000  0.4156610000000  0.5665660000000 1.0
C      1  0.5015110000000  0.5118450000000  0.6049550000000 1.0
C      1  0.5021260000000  0.4025810000000  0.4579530000000 1.0
C      1  0.5034010000000  0.5861490000000  0.4356420000000 1.0
C      1  0.4302350000000  0.3871250000000  0.4386520000000 1.0
C      1  0.4311830000000  0.6110520000000  0.4308540000000 1.0
C      1  0.4319660000000  0.5020310000000  0.6298850000000 1.0
C      1  0.5713750000000  0.4726630000000  0.4482080000000 1.0
C      1  0.5712630000000  0.5587440000000  0.5021720000000 1.0
C      1  0.5712080000000  0.4681310000000  0.5498210000000 1.0
C      1  0.5385790000000  0.4248400000000  0.5019430000000 1.0
C      1  0.5381120000000  0.5360520000000  0.4338580000000 1.0
C      1  0.5374210000000  0.5382990000000  0.5629530000000 1.0
C      1  0.5565980000000  0.4063630000000  0.5678950000000 1.0
C      1  0.5553710000000  0.4876540000000  0.3851930000000 1.0
C      1  0.5553290000000  0.6051760000000  0.5472360000000 1.0
C      1  0.4971660000000  0.4727870000000  0.5750720000000 1.0
C      1  0.4977690000000  0.4483070000000  0.4395310000000 1.0
C      1  0.4980820000000  0.5791280000000  0.4847710000000 1.0
C      1  0.5871450000000  0.5104510000000  0.4715320000000 1.0
C      1  0.5872670000000  0.5186120000000  0.5231890000000 1.0
C      1  0.5880720000000  0.4700980000000  0.5048640000000 1.0
C      1  0.4868240000000  0.4421380000000  0.5329660000000 1.0
C      1  0.4856230000000  0.5007140000000  0.4350580000000 1.0
C      1  0.4859710000000  0.5557970000000  0.5313520000000 1.0
C      1  0.4415340000000  0.5467880000000  0.5625880000000 1.0
C      1  0.4428500000000  0.4229140000000  0.5098240000000 1.0
C      1  0.4419280000000  0.5311360000000  0.4280350000000 1.0
C      1  0.5280080000000  0.5789270000000  0.5161540000000 1.0
C      1  0.5281530000000  0.4455200000000  0.5602200000000 1.0
C      1  0.5277300000000  0.4750910000000  0.4239400000000 1.0
C      1  0.4928300000000  0.5163110000000  0.4119260000000 1.0
C      1  0.4925750000000  0.5674860000000  0.5568990000000 1.0
C      1  0.4938120000000  0.4146510000000  0.5305370000000 1.0
C      1  0.4642350000000  0.5689360000000  0.4622670000000 1.0
C      1  0.4631010000000  0.4972320000000  0.5752000000000 1.0
C      1  0.4637040000000  0.4358650000000  0.4605210000000 1.0
C      1  0.4155010000000  0.5773560000000  0.4681920000000 1.0
C      1  0.4156480000000  0.4857860000000  0.5819760000000 1.0
C      1  0.4164090000000  0.4367270000000  0.4500490000000 1.0
C      1  0.5349450000000  0.5354880000000  0.4631800000000 1.0
C      1  0.5345340000000  0.5130010000000  0.5477430000000 1.0
C      1  0.5353110000000  0.4509470000000  0.4880620000000 1.0
C      1  0.4839670000000  0.5447160000000  0.4578130000000 1.0
C      1  0.4831970000000  0.5123630000000  0.5567530000000 1.0
C      1  0.4841170000000  0.4430340000000  0.4831270000000 1.0
C      1  0.5864440000000  0.4939870000000  0.4329000000000 1.0
C      1  0.5858750000000  0.5609840000000  0.5285240000000 1.0
C      1  0.5859160000000  0.4441270000000  0.5389210000000 1.0
C      1  0.4225330000000  0.5465530000000  0.5144690000000 1.0
C      1  0.4272110000000  0.4643540000000  0.5331260000000 1.0
C      1  0.4286140000000  0.4908680000000  0.4540730000000 1.0
C      1  0.5042610000000  0.4776950000000  0.4416290000000 1.0
C      1  0.5047650000000  0.5627720000000  0.5089040000000 1.0
C      1  0.5046790000000  0.4591970000000  0.5496550000000 1.0
C      1  0.5880590000000  0.4366910000000  0.5086020000000 1.0
C      1  0.5873400000000  0.5242280000000  0.4406020000000 1.0
C      1  0.5870630000000  0.5386070000000  0.5501980000000 1.0
C      1  0.4731620000000  0.5013050000000  0.6031920000000 1.0
C      1  0.4738010000000  0.4095320000000  0.4497130000000 1.0
C      1  0.4752450000000  0.5913800000000  0.4453720000000 1.0
C      1  0.5613270000000  0.5822670000000  0.5689030000000 1.0
C      1  0.5628150000000  0.3985040000000  0.5373640000000 1.0
C      1  0.5618910000000  0.5180260000000  0.3933600000000 1.0
C      1  0.4399670000000  0.5979640000000  0.5175020000000 1.0
C      1  0.4407490000000  0.4346660000000  0.5759240000000 1.0
C      1  0.4410410000000  0.4670910000000  0.4073500000000 1.0
C      1  0.4170950000000  0.5392400000000  0.5458860000000 1.0
C      1  0.4195400000000  0.4423070000000  0.5115260000000 1.0
C      1  0.4190690000000  0.5201800000000  0.4449150000000 1.0
C      1  0.4906440000000  0.4099710000000  0.5761210000000 1.0
C      1  0.4901990000000  0.4788400000000  0.3851730000000 1.0
C      1  0.4897820000000  0.6101680000000  0.5384740000000 1.0
C      1  0.4699020000000  0.4327490000000  0.5851880000000 1.0
C      1  0.4698840000000  0.4597310000000  0.4003770000000 1.0
C      1  0.4692390000000  0.6065120000000  0.5142220000000 1.0
C      1  0.5440040000000  0.4319260000000  0.4464220000000 1.0
C      1  0.5446160000000  0.5812530000000  0.4676830000000 1.0
C      1  0.5435670000000  0.4871140000000  0.5857400000000 1.0
C      1  0.5504490000000  0.4582820000000  0.4335700000000 1.0
C      1  0.5508710000000  0.5791110000000  0.4969970000000 1.0
C      1  0.5505240000000  0.4626030000000  0.5698290000000 1.0
C      1  0.4674770000000  0.5207640000000  0.4478020000000 1.0
C      1  0.4684030000000  0.5343350000000  0.5421690000000 1.0
C      1  0.4692520000000  0.4449350000000  0.5098110000000 1.0
C      1  0.4474330000000  0.4817240000000  0.5208540000000 1.0
C      1  0.4493710000000  0.4943150000000  0.4749310000000 1.0
C      1  0.4406730000000  0.5248030000000  0.5064820000000 1.0
C      1  0.4473050000000  0.4057230000000  0.4847300000000 1.0
C      1  0.4468130000000  0.5613320000000  0.4248300000000 1.0
C      1  0.4469270000000  0.5330940000000  0.5898930000000 1.0
C      1  0.4824310000000  0.5939120000000  0.5622170000000 1.0
C      1  0.4831830000000  0.3966350000000  0.5504720000000 1.0
C      1  0.4824120000000  0.5074680000000  0.3864400000000 1.0
END
