TITL C-862128-1543-779 -7.94839829313558e-05 125000 -768.509560540923 0 0 146 (C2) n - 1
REM
REM in /home/nfs/bkarasulu/CARBON/AIRSS/Generating-Clusters/TERSOFF/Higher-Symm/FIRE-HFTN
REM
REM
REM
REM
REM
REM ./C.cell (b20cbc046b6831c77cfcea5457e17084)
REM AIRSS Version 0.9.1 bugfix July 2018 build 013d7b7c2542+ Fri, 06 Jul 2018 19:26:36 +0100
REM compiler GCC version 9.2.1 20190827 (Red Hat 9.2.1-1)
REM options -cpp -mtune=generic -march=x86-64 -g -O0 -fpre-include=/usr/include/finclude/math-vector-fortran.h
REM seed 381553620 -997268585 905660689 -1854655658 578717940 -853768264 -1041560606 1465755648 826320626 60337241 1877503991 -177614514 -203693539 1616367779 -949867191 -688495833 532997071 682646955 550344043 -481396361 -794896871 884778021 -1862332400 -253794759 2113839506 315841460 1128563538 1733781723 2080291124 -1624043421 -1135468528 339093203 -1904069829
REM
CELL 1.54180   50.00000   50.00000   50.00000   90.00000   90.00000   90.00000
LATT -1
SFAC C  
C      1  0.5515200000000  0.4122860000000  0.5478960000000 1.0
C      1  0.4484800000000  0.5877140000000  0.5478960000000 1.0
C      1  0.4477570000000  0.4121640000000  0.5476430000000 1.0
C      1  0.5522430000000  0.5878360000000  0.5476430000000 1.0
C      1  0.5312910000000  0.4418600000000  0.4297810000000 1.0
C      1  0.4687090000000  0.5581400000000  0.4297800000000 1.0
C      1  0.4676030000000  0.4407410000000  0.4290640000000 1.0
C      1  0.5323970000000  0.5592590000000  0.4290640000000 1.0
C      1  0.4419580000000  0.5631940000000  0.5695620000000 1.0
C      1  0.5580420000000  0.4368060000000  0.5695620000000 1.0
C      1  0.5580040000000  0.5630140000000  0.5691070000000 1.0
C      1  0.4419960000000  0.4369860000000  0.5691070000000 1.0
C      1  0.5119940000000  0.5200900000000  0.5037970000000 1.0
C      1  0.4880060000000  0.4799100000000  0.5037970000000 1.0
C      1  0.4824830000000  0.5114710000000  0.5035460000000 1.0
C      1  0.5175170000000  0.4885290000000  0.5035460000000 1.0
C      1  0.5189020000000  0.6011520000000  0.5446920000000 1.0
C      1  0.4810980000000  0.3988480000000  0.5446930000000 1.0
C      1  0.4820760000000  0.6004400000000  0.5450670000000 1.0
C      1  0.5179240000000  0.3995600000000  0.5450670000000 1.0
C      1  0.5305440000000  0.4418580000000  0.5788530000000 1.0
C      1  0.4694560000000  0.5581420000000  0.5788530000000 1.0
C      1  0.4694640000000  0.4417370000000  0.5784670000000 1.0
C      1  0.5305360000000  0.5582630000000  0.5784670000000 1.0
C      1  0.5964980000000  0.5350280000000  0.4726360000000 1.0
C      1  0.4035020000000  0.4649720000000  0.4726370000000 1.0
C      1  0.4030000000000  0.5352770000000  0.4725240000000 1.0
C      1  0.5970000000000  0.4647230000000  0.4725240000000 1.0
C      1  0.5175650000000  0.5661300000000  0.5216710000000 1.0
C      1  0.4824350000000  0.4338700000000  0.5216710000000 1.0
C      1  0.4826830000000  0.5655340000000  0.5217990000000 1.0
C      1  0.5173170000000  0.4344660000000  0.5217990000000 1.0
C      1  0.5720960000000  0.5761530000000  0.4787100000000 1.0
C      1  0.4279040000000  0.4238470000000  0.4787100000000 1.0
C      1  0.4296970000000  0.5750270000000  0.4785460000000 1.0
C      1  0.5703030000000  0.4249730000000  0.4785460000000 1.0
C      1  0.4820270000000  0.5981080000000  0.4762550000000 1.0
C      1  0.5179730000000  0.4018920000000  0.4762560000000 1.0
C      1  0.5188400000000  0.5994330000000  0.4762830000000 1.0
C      1  0.4811600000000  0.4005670000000  0.4762830000000 1.0
C      1  0.6080910000000  0.5493330000000  0.4996690000000 1.0
C      1  0.3919090000000  0.4506670000000  0.4996690000000 1.0
C      1  0.3921810000000  0.5501810000000  0.4997440000000 1.0
C      1  0.6078190000000  0.4498190000000  0.4997450000000 1.0
C      1  0.4863900000000  0.5490140000000  0.4771630000000 1.0
C      1  0.5136100000000  0.4509860000000  0.4771630000000 1.0
C      1  0.5159320000000  0.5531700000000  0.4761390000000 1.0
C      1  0.4840680000000  0.4468290000000  0.4761390000000 1.0
C      1  0.5479440000000  0.4851270000000  0.4283040000000 1.0
C      1  0.4520560000000  0.5148730000000  0.4283040000000 1.0
C      1  0.4525140000000  0.4843500000000  0.4286150000000 1.0
C      1  0.5474860000000  0.5156500000000  0.4286150000000 1.0
C      1  0.4751390000000  0.5291230000000  0.5843920000000 1.0
C      1  0.5248610000000  0.4708770000000  0.5843920000000 1.0
C      1  0.5246610000000  0.5293570000000  0.5843030000000 1.0
C      1  0.4753390000000  0.4706430000000  0.5843030000000 1.0
C      1  0.5694830000000  0.5279670000000  0.4096160000000 1.0
C      1  0.4305170000000  0.4720320000000  0.4096160000000 1.0
C      1  0.4306560000000  0.5275050000000  0.4088900000000 1.0
C      1  0.5693440000000  0.4724950000000  0.4088900000000 1.0
C      1  0.4364810000000  0.4442960000000  0.4275370000000 1.0
C      1  0.5635190000000  0.5557040000000  0.4275370000000 1.0
C      1  0.5626200000000  0.4447020000000  0.4273670000000 1.0
C      1  0.4373800000000  0.5552980000000  0.4273670000000 1.0
C      1  0.5870100000000  0.5698700000000  0.5045020000000 1.0
C      1  0.4129900000000  0.4301300000000  0.5045020000000 1.0
C      1  0.4143010000000  0.5698550000000  0.5043260000000 1.0
C      1  0.5856990000000  0.4301450000000  0.5043260000000 1.0
C      1  0.5694190000000  0.5353280000000  0.5488670000000 1.0
C      1  0.4305810000000  0.4646720000000  0.5488670000000 1.0
C      1  0.4301820000000  0.5356130000000  0.5493920000000 1.0
C      1  0.5698180000000  0.4643870000000  0.5493920000000 1.0
C      1  0.4435410000000  0.5255170000000  0.4562710000000 1.0
C      1  0.5564590000000  0.4744830000000  0.4562710000000 1.0
C      1  0.5552710000000  0.5264920000000  0.4565100000000 1.0
C      1  0.4447290000000  0.4735080000000  0.4565100000000 1.0
C      1  0.4309360000000  0.5652340000000  0.5291900000000 1.0
C      1  0.5690640000000  0.4347660000000  0.5291900000000 1.0
C      1  0.5697450000000  0.5652610000000  0.5289530000000 1.0
C      1  0.4302550000000  0.4347390000000  0.5289530000000 1.0
C      1  0.4628850000000  0.4828520000000  0.4799070000000 1.0
C      1  0.5371150000000  0.5171480000000  0.4799070000000 1.0
C      1  0.5394800000000  0.4837950000000  0.4803360000000 1.0
C      1  0.4605200000000  0.5162050000000  0.4803360000000 1.0
C      1  0.5143110000000  0.5175920000000  0.4542950000000 1.0
C      1  0.4856890000000  0.4824080000000  0.4542950000000 1.0
C      1  0.4837760000000  0.5135540000000  0.4556490000000 1.0
C      1  0.5162240000000  0.4864460000000  0.4556490000000 1.0
C      1  0.4157000000000  0.5155970000000  0.4961870000000 1.0
C      1  0.5843000000000  0.4844030000000  0.4961870000000 1.0
C      1  0.5834020000000  0.5155750000000  0.4959780000000 1.0
C      1  0.4165980000000  0.4844250000000  0.4959780000000 1.0
C      1  0.4847530000000  0.4472830000000  0.5507190000000 1.0
C      1  0.5152470000000  0.5527170000000  0.5507190000000 1.0
C      1  0.5152780000000  0.4474040000000  0.5509350000000 1.0
C      1  0.4847220000000  0.5525960000000  0.5509350000000 1.0
C      1  0.5346480000000  0.5550770000000  0.5000860000000 1.0
C      1  0.4653520000000  0.4449230000000  0.5000860000000 1.0
C      1  0.4670890000000  0.5525270000000  0.5003240000000 1.0
C      1  0.5329110000000  0.4474730000000  0.5003240000000 1.0
C      1  0.4818370000000  0.4260580000000  0.4521620000000 1.0
C      1  0.5181630000000  0.5739420000000  0.4521620000000 1.0
C      1  0.5162250000000  0.4287680000000  0.4535170000000 1.0
C      1  0.4837750000000  0.5712320000000  0.4535160000000 1.0
C      1  0.5182580000000  0.4824230000000  0.5541170000000 1.0
C      1  0.4817420000000  0.5175770000000  0.5541170000000 1.0
C      1  0.4821220000000  0.4823820000000  0.5539610000000 1.0
C      1  0.5178780000000  0.5176180000000  0.5539600000000 1.0
C      1  0.5450100000000  0.5810590000000  0.4878970000000 1.0
C      1  0.4549900000000  0.4189410000000  0.4878970000000 1.0
C      1  0.4572810000000  0.5777230000000  0.4866250000000 1.0
C      1  0.5427190000000  0.4222770000000  0.4866250000000 1.0
C      1  0.4047090000000  0.5170900000000  0.5457780000000 1.0
C      1  0.5952910000000  0.4829100000000  0.5457780000000 1.0
C      1  0.5949940000000  0.5168160000000  0.5458480000000 1.0
C      1  0.4050060000000  0.4831840000000  0.5458480000000 1.0
C      1  0.4468560000000  0.4720010000000  0.5060230000000 1.0
C      1  0.5531440000000  0.5279990000000  0.5060230000000 1.0
C      1  0.5554700000000  0.4713880000000  0.5068310000000 1.0
C      1  0.4445300000000  0.5286120000000  0.5068310000000 1.0
C      1  0.4837220000000  0.5978130000000  0.5122800000000 1.0
C      1  0.5162780000000  0.4021870000000  0.5122810000000 1.0
C      1  0.5152520000000  0.5980860000000  0.5121130000000 1.0
C      1  0.4847480000000  0.4019140000000  0.5121130000000 1.0
C      1  0.4632100000000  0.5139340000000  0.6053580000000 1.0
C      1  0.5367900000000  0.4860660000000  0.6053580000000 1.0
C      1  0.5366710000000  0.5142510000000  0.6053180000000 1.0
C      1  0.4633290000000  0.4857490000000  0.6053180000000 1.0
C      1  0.3940040000000  0.4763740000000  0.5181890000000 1.0
C      1  0.6059960000000  0.5236260000000  0.5181890000000 1.0
C      1  0.6067510000000  0.4758790000000  0.5183240000000 1.0
C      1  0.3932490000000  0.5241210000000  0.5183240000000 1.0
C      1  0.4247500000000  0.5522660000000  0.4576320000000 1.0
C      1  0.5752500000000  0.4477340000000  0.4576320000000 1.0
C      1  0.5751700000000  0.5526300000000  0.4581330000000 1.0
C      1  0.4248300000000  0.4473700000000  0.4581340000000 1.0
C      1  0.4528490000000  0.4832020000000  0.5354860000000 1.0
C      1  0.5471510000000  0.5167980000000  0.5354860000000 1.0
C      1  0.5477850000000  0.4834120000000  0.5359830000000 1.0
C      1  0.4522150000000  0.5165880000000  0.5359830000000 1.0
C      1  0.5179250000000  0.4698530000000  0.4258470000000 1.0
C      1  0.4820750000000  0.5301470000000  0.4258460000000 1.0
C      1  0.4817010000000  0.4684900000000  0.4253490000000 1.0
C      1  0.5182990000000  0.5315100000000  0.4253490000000 1.0
C      1  0.5831380000000  0.5003250000000  0.4030780000000 1.0
C      1  0.4168620000000  0.4996750000000  0.4030780000000 1.0
END
