TITL C-862503-991-396 -9.42295878793205 125000 -141.736577954105 0 0 28 (C1) n - 1
REM
REM in /home/nfs/bkarasulu/CARBON/AIRSS/Generating-Clusters/TERSOFF/Higher-Symm/FIRE-HFTN
REM
REM
REM
REM
REM
REM ./C.cell (b20cbc046b6831c77cfcea5457e17084)
REM AIRSS Version 0.9.1 bugfix July 2018 build 013d7b7c2542+ Fri, 06 Jul 2018 19:26:36 +0100
REM compiler GCC version 9.2.1 20190827 (Red Hat 9.2.1-1)
REM options -cpp -mtune=generic -march=x86-64 -g -O0 -fpre-include=/usr/include/finclude/math-vector-fortran.h
REM seed -1627304630 1442182447 277650584 1689386033 -1066600254 -61352225 -2044532203 -1345137370 -544325766 1984976709 39007672 -255997481 -1848585127 -705633912 -2048020104 -371741918 -1496532334 1177508497 -183855804 422025379 -1344041727 1723769039 1097298358 -259073050 88922923 -235039335 -1553851905 -216170112 1104263009 227091264 -883884723 1417032086 970970473
REM
CELL 1.54180   50.00000   50.00000   50.00000   90.00000   90.00000   90.00000
LATT -1
SFAC C  
C      1  0.5069520000000  0.5449560000000  0.4734620000000 1.0
C      1  0.4778380000000  0.5496330000000  0.4813310000000 1.0
C      1  0.4785830000000  0.5524150000000  0.5117680000000 1.0
C      1  0.5076980000000  0.5588310000000  0.5223430000000 1.0
C      1  0.5251140000000  0.5496520000000  0.4972300000000 1.0
C      1  0.5025460000000  0.4509360000000  0.4735960000000 1.0
C      1  0.4747390000000  0.4521390000000  0.4842340000000 1.0
C      1  0.4757020000000  0.4459670000000  0.5154750000000 1.0
C      1  0.5085960000000  0.4453550000000  0.5240170000000 1.0
C      1  0.5231450000000  0.4452900000000  0.4956070000000 1.0
C      1  0.5309110000000  0.5233550000000  0.5120130000000 1.0
C      1  0.5139890000000  0.5235410000000  0.4538060000000 1.0
C      1  0.4591570000000  0.5286360000000  0.4714540000000 1.0
C      1  0.4671300000000  0.5269860000000  0.5274720000000 1.0
C      1  0.5149710000000  0.5355150000000  0.5488530000000 1.0
C      1  0.5388710000000  0.4734590000000  0.4936200000000 1.0
C      1  0.5102490000000  0.4707570000000  0.4526000000000 1.0
C      1  0.4600120000000  0.4767510000000  0.4764560000000 1.0
C      1  0.4807600000000  0.4762090000000  0.5181100000000 1.0
C      1  0.5171470000000  0.4772430000000  0.5390030000000 1.0
C      1  0.5485550000000  0.5019250000000  0.5020140000000 1.0
C      1  0.4989580000000  0.4981520000000  0.4501430000000 1.0
C      1  0.4708350000000  0.5036680000000  0.4808240000000 1.0
C      1  0.4601940000000  0.4971610000000  0.5218560000000 1.0
C      1  0.5237610000000  0.5035600000000  0.5565500000000 1.0
C      1  0.5110810000000  0.4836970000000  0.5072510000000 1.0
C      1  0.4982290000000  0.5182750000000  0.5266270000000 1.0
C      1  0.4961550000000  0.5074500000000  0.4946900000000 1.0
END
