TITL C-862505-1648-526 0.0620112288424981 125000 -1001.86181778637 0 0 179 (C5) n - 1
REM
REM in /home/nfs/bkarasulu/CARBON/AIRSS/Generating-Clusters/TERSOFF/Higher-Symm/FIRE-HFTN
REM
REM
REM
REM
REM
REM ./C.cell (b20cbc046b6831c77cfcea5457e17084)
REM AIRSS Version 0.9.1 bugfix July 2018 build 013d7b7c2542+ Fri, 06 Jul 2018 19:26:36 +0100
REM compiler GCC version 9.2.1 20190827 (Red Hat 9.2.1-1)
REM options -cpp -mtune=generic -march=x86-64 -g -O0 -fpre-include=/usr/include/finclude/math-vector-fortran.h
REM seed 1321869227 -1065631695 -1256846405 273112789 1840776921 1137907951 254073123 656396949 -868930808 -1672245256 -712260968 -1832512207 -1287162355 289541247 -1798905263 -517797563 915152763 -1228157433 845291739 958306438 -1032504922 -1644240236 -167992741 2087757522 760248613 179555727 -2027273092 522255470 944968015 1744593948 -105502533 -1998187454 -1321113359
REM
CELL 1.54180   50.00000   50.00000   50.00000   90.00000   90.00000   90.00000
LATT -1
SFAC C  
C      1  0.4681930000000  0.4840120000000  0.4024160000000 1.0
C      1  0.5054870000000  0.4647060000000  0.4024160000000 1.0
C      1  0.5353740000000  0.4942090000000  0.4024160000000 1.0
C      1  0.5165500000000  0.5317500000000  0.4024160000000 1.0
C      1  0.4750300000000  0.5254480000000  0.4024160000000 1.0
C      1  0.4942690000000  0.5465640000000  0.5483130000000 1.0
C      1  0.4540540000000  0.5088350000000  0.5483130000000 1.0
C      1  0.4775100000000  0.4589300000000  0.5483130000000 1.0
C      1  0.5322210000000  0.4658160000000  0.5483130000000 1.0
C      1  0.5425790000000  0.5199770000000  0.5483130000000 1.0
C      1  0.4813020000000  0.5719700000000  0.5945770000000 1.0
C      1  0.4258850000000  0.5043530000000  0.5945770000000 1.0
C      1  0.4730680000000  0.4307540000000  0.5945760000000 1.0
C      1  0.5576450000000  0.4528840000000  0.5945760000000 1.0
C      1  0.5627340000000  0.5401600000000  0.5945770000000 1.0
C      1  0.5466180000000  0.5989720000000  0.4989670000000 1.0
C      1  0.4203890000000  0.5748170000000  0.4989670000000 1.0
C      1  0.4043540000000  0.4473020000000  0.4989660000000 1.0
C      1  0.5206740000000  0.3926480000000  0.4989660000000 1.0
C      1  0.6085980000000  0.4863850000000  0.4989660000000 1.0
C      1  0.5644900000000  0.5058590000000  0.5233520000000 1.0
C      1  0.5144680000000  0.5630410000000  0.5233520000000 1.0
C      1  0.4446260000000  0.5331370000000  0.5233520000000 1.0
C      1  0.4514840000000  0.4574730000000  0.5233520000000 1.0
C      1  0.5255650000000  0.4406140000000  0.5233510000000 1.0
C      1  0.3915620000000  0.4487230000000  0.4727110000000 1.0
C      1  0.5153690000000  0.3809210000000  0.4727110000000 1.0
C      1  0.6181110000000  0.4777160000000  0.4727110000000 1.0
C      1  0.5578030000000  0.6053410000000  0.4727120000000 1.0
C      1  0.4177880000000  0.5874230000000  0.4727120000000 1.0
C      1  0.5220050000000  0.5726400000000  0.4381200000000 1.0
C      1  0.4378260000000  0.5432720000000  0.4381200000000 1.0
C      1  0.4397440000000  0.4541380000000  0.4381190000000 1.0
C      1  0.5251090000000  0.4284180000000  0.4381190000000 1.0
C      1  0.5759490000000  0.5016570000000  0.4381190000000 1.0
C      1  0.5881230000000  0.5325260000000  0.5747610000000 1.0
C      1  0.4964080000000  0.5937570000000  0.5747610000000 1.0
C      1  0.4098320000000  0.5254530000000  0.5747610000000 1.0
C      1  0.4480400000000  0.4220070000000  0.5747610000000 1.0
C      1  0.5582300000000  0.4263790000000  0.5747610000000 1.0
C      1  0.5349950000000  0.4724750000000  0.4631410000000 1.0
C      1  0.5371020000000  0.5246730000000  0.4631410000000 1.0
C      1  0.4881110000000  0.5428080000000  0.4631410000000 1.0
C      1  0.4557250000000  0.5018180000000  0.4631410000000 1.0
C      1  0.4847000000000  0.4583500000000  0.4631410000000 1.0
C      1  0.5732370000000  0.5619390000000  0.5304740000000 1.0
C      1  0.4638350000000  0.5886890000000  0.5304750000000 1.0
C      1  0.4045870000000  0.4929080000000  0.5304740000000 1.0
C      1  0.4773710000000  0.4069620000000  0.5304740000000 1.0
C      1  0.5816030000000  0.4496250000000  0.5304740000000 1.0
C      1  0.4448110000000  0.5529520000000  0.4659770000000 1.0
C      1  0.4326960000000  0.4637720000000  0.4659770000000 1.0
C      1  0.5137680000000  0.4246920000000  0.4659770000000 1.0
C      1  0.5759870000000  0.4897190000000  0.4659770000000 1.0
C      1  0.5333700000000  0.5689880000000  0.4659770000000 1.0
C      1  0.4645950000000  0.5494840000000  0.5486420000000 1.0
C      1  0.4421080000000  0.4815150000000  0.5486420000000 1.0
C      1  0.4998010000000  0.4391260000000  0.5486410000000 1.0
C      1  0.5579440000000  0.4808960000000  0.5486420000000 1.0
C      1  0.5361850000000  0.5491010000000  0.5486420000000 1.0
C      1  0.4046240000000  0.4972450000000  0.5591630000000 1.0
C      1  0.4732580000000  0.4083370000000  0.5591620000000 1.0
C      1  0.5790240000000  0.4461380000000  0.5591620000000 1.0
C      1  0.5757560000000  0.5584080000000  0.5591630000000 1.0
C      1  0.4679710000000  0.5899940000000  0.5591630000000 1.0
C      1  0.6142250000000  0.4416510000000  0.4356900000000 1.0
C      1  0.5909020000000  0.5905000000000  0.4356910000000 1.0
C      1  0.4421310000000  0.6143160000000  0.4356910000000 1.0
C      1  0.3735080000000  0.4801850000000  0.4356910000000 1.0
C      1  0.4798680000000  0.3734730000000  0.4356900000000 1.0
C      1  0.4682500000000  0.5158200000000  0.5734080000000 1.0
C      1  0.4752540000000  0.4745890000000  0.5734080000000 1.0
C      1  0.5166310000000  0.4685090000000  0.5734080000000 1.0
C      1  0.5352000000000  0.5059820000000  0.5734080000000 1.0
C      1  0.5052990000000  0.5352220000000  0.5734080000000 1.0
C      1  0.4805730000000  0.4245010000000  0.4303530000000 1.0
C      1  0.5659120000000  0.4580910000000  0.4303530000000 1.0
C      1  0.5603370000000  0.5496320000000  0.4303540000000 1.0
C      1  0.4715530000000  0.5726180000000  0.4303540000000 1.0
C      1  0.4222570000000  0.4952830000000  0.4303540000000 1.0
C      1  0.3962400000000  0.4647500000000  0.5241120000000 1.0
C      1  0.5015720000000  0.3903220000000  0.5241110000000 1.0
C      1  0.6049060000000  0.4674990000000  0.5241110000000 1.0
C      1  0.5634390000000  0.5896250000000  0.5241120000000 1.0
C      1  0.4344760000000  0.5879260000000  0.5241120000000 1.0
C      1  0.4089140000000  0.5154760000000  0.4791220000000 1.0
C      1  0.4572450000000  0.4180510000000  0.4791220000000 1.0
C      1  0.5648370000000  0.4339100000000  0.4791220000000 1.0
C      1  0.5830020000000  0.5411380000000  0.4791220000000 1.0
C      1  0.4866360000000  0.5915480000000  0.4791230000000 1.0
C      1  0.4272500000000  0.4954730000000  0.4607770000000 1.0
C      1  0.4819360000000  0.4293090000000  0.4607770000000 1.0
C      1  0.5617600000000  0.4608720000000  0.4607770000000 1.0
C      1  0.5564090000000  0.5465430000000  0.4607770000000 1.0
C      1  0.4732770000000  0.5679270000000  0.4607770000000 1.0
C      1  0.4954290000000  0.4648080000000  0.4880840000000 1.0
C      1  0.5321680000000  0.4846750000000  0.4880840000000 1.0
C      1  0.5246270000000  0.5257550000000  0.4880840000000 1.0
C      1  0.4832270000000  0.5312770000000  0.4880840000000 1.0
C      1  0.4651820000000  0.4936090000000  0.4880840000000 1.0
C      1  0.4935730000000  0.5248300000000  0.4408070000000 1.0
C      1  0.4745100000000  0.5014570000000  0.4408070000000 1.0
C      1  0.4908490000000  0.4761050000000  0.4408070000000 1.0
C      1  0.5200090000000  0.4838090000000  0.4408070000000 1.0
C      1  0.5216920000000  0.5139230000000  0.4408070000000 1.0
C      1  0.5706550000000  0.4177510000000  0.4539170000000 1.0
C      1  0.6001680000000  0.5416770000000  0.4539180000000 1.0
C      1  0.4914270000000  0.6080410000000  0.4539180000000 1.0
C      1  0.3947090000000  0.5251300000000  0.4539180000000 1.0
C      1  0.4436740000000  0.4075240000000  0.4539170000000 1.0
C      1  0.5062900000000  0.5961250000000  0.4323870000000 1.0
C      1  0.4106340000000  0.5355840000000  0.4323870000000 1.0
C      1  0.4386530000000  0.4259010000000  0.4323870000000 1.0
C      1  0.5516260000000  0.4186550000000  0.4323870000000 1.0
C      1  0.5934280000000  0.5238590000000  0.4323870000000 1.0
C      1  0.5309000000000  0.3953890000000  0.5395950000000 1.0
C      1  0.6091510000000  0.4969580000000  0.5395960000000 1.0
C      1  0.5367340000000  0.6027650000000  0.5395960000000 1.0
C      1  0.4137270000000  0.5665880000000  0.5395960000000 1.0
C      1  0.4101220000000  0.4384230000000  0.5395960000000 1.0
C      1  0.4417820000000  0.4083070000000  0.5044270000000 1.0
C      1  0.5693260000000  0.4161930000000  0.5044260000000 1.0
C      1  0.6012390000000  0.5399320000000  0.5044270000000 1.0
C      1  0.4934180000000  0.6085200000000  0.5044270000000 1.0
C      1  0.3948680000000  0.5271710000000  0.5044270000000 1.0
C      1  0.4338000000000  0.6100230000000  0.4633940000000 1.0
C      1  0.3750160000000  0.4709350000000  0.4633940000000 1.0
C      1  0.4891310000000  0.3720480000000  0.4633930000000 1.0
C      1  0.6184420000000  0.4500200000000  0.4633930000000 1.0
C      1  0.5842450000000  0.5970970000000  0.4633940000000 1.0
C      1  0.5499910000000  0.3957690000000  0.5125420000000 1.0
C      1  0.6146880000000  0.5152310000000  0.5125420000000 1.0
C      1  0.5210660000000  0.6136780000000  0.5125430000000 1.0
C      1  0.3985060000000  0.5550600000000  0.5125420000000 1.0
C      1  0.4163830000000  0.4203840000000  0.5125420000000 1.0
C      1  0.4330450000000  0.5353740000000  0.4889740000000 1.0
C      1  0.4457780000000  0.4471490000000  0.4889740000000 1.0
C      1  0.5336190000000  0.4319970000000  0.4889740000000 1.0
C      1  0.5751750000000  0.5108560000000  0.4889740000000 1.0
C      1  0.5130160000000  0.5747470000000  0.4889740000000 1.0
C      1  0.5299280000000  0.4598940000000  0.5973700000000 1.0
C      1  0.5475020000000  0.5159670000000  0.5973700000000 1.0
C      1  0.4996040000000  0.5500070000000  0.5973710000000 1.0
C      1  0.4524290000000  0.5149730000000  0.5973700000000 1.0
C      1  0.4711700000000  0.4592800000000  0.5973700000000 1.0
C      1  0.4271090000000  0.4426350000000  0.5639820000000 1.0
C      1  0.5321440000000  0.4128460000000  0.5639820000000 1.0
C      1  0.5929320000000  0.5035350000000  0.5639820000000 1.0
C      1  0.5254660000000  0.5893720000000  0.5639830000000 1.0
C      1  0.4229820000000  0.5517340000000  0.5639830000000 1.0
C      1  0.4742290000000  0.4322960000000  0.5160400000000 1.0
C      1  0.5565380000000  0.4544650000000  0.5160400000000 1.0
C      1  0.5608880000000  0.5395960000000  0.5160400000000 1.0
C      1  0.4812680000000  0.5700400000000  0.5160410000000 1.0
C      1  0.4277100000000  0.5037250000000  0.5160400000000 1.0
C      1  0.5012680000000  0.4200840000000  0.5746050000000 1.0
C      1  0.5765070000000  0.4764070000000  0.5746050000000 1.0
C      1  0.5461910000000  0.5653680000000  0.5746050000000 1.0
C      1  0.4522160000000  0.5640270000000  0.5746050000000 1.0
C      1  0.4244510000000  0.4742360000000  0.5746050000000 1.0
C      1  0.4471780000000  0.4849680000000  0.5071300000000 1.0
C      1  0.4980840000000  0.4450140000000  0.5071300000000 1.0
C      1  0.5518130000000  0.4810830000000  0.5071300000000 1.0
C      1  0.5341130000000  0.5433280000000  0.5071300000000 1.0
C      1  0.4694450000000  0.5457290000000  0.5071300000000 1.0
C      1  0.5328950000000  0.5535280000000  0.4174610000000 1.0
C      1  0.4593680000000  0.5477230000000  0.4174610000000 1.0
C      1  0.4421670000000  0.4760010000000  0.4174610000000 1.0
C      1  0.5050650000000  0.4374780000000  0.4174610000000 1.0
C      1  0.5611380000000  0.4853930000000  0.4174610000000 1.0
C      1  0.5886310000000  0.4421460000000  0.4219400000000 1.0
C      1  0.5825220000000  0.5663120000000  0.4219400000000 1.0
C      1  0.4625450000000  0.5988710000000  0.4219410000000 1.0
C      1  0.3945050000000  0.4948280000000  0.4219400000000 1.0
C      1  0.4724300000000  0.3979670000000  0.4219400000000 1.0
C      1  0.5001270000000  0.5000250000000  0.4076050000000 1.0
C      1  0.5001270000000  0.5000240000000  0.6088850000000 1.0
C      1  0.5001270000000  0.5000240000000  0.5772030000000 1.0
C      1  0.5001270000000  0.5000250000000  0.4953160000000 1.0
END
