TITL C-862506-1665-1413 0.075557884607328 125000 -1036.68852016576 0 0 200 (C2) n - 1
REM
REM in /home/nfs/bkarasulu/CARBON/AIRSS/Generating-Clusters/TERSOFF/Higher-Symm/FIRE-HFTN
REM
REM
REM
REM
REM
REM ./C.cell (b20cbc046b6831c77cfcea5457e17084)
REM AIRSS Version 0.9.1 bugfix July 2018 build 013d7b7c2542+ Fri, 06 Jul 2018 19:26:36 +0100
REM compiler GCC version 9.2.1 20190827 (Red Hat 9.2.1-1)
REM options -cpp -mtune=generic -march=x86-64 -g -O0 -fpre-include=/usr/include/finclude/math-vector-fortran.h
REM seed 988613512 -805373075 -2127986860 -1481688304 -2056012804 703168766 123593620 -607918670 -409282292 -1997081753 -1667302491 806297956 -1772668566 1227564773 -328813496 -1598621213 -1762452779 922808171 -760661148 1753737117 -1396187116 -575363005 -200192282 2073282642 -1386018360 569241381 -796310339 -1170885320 -172448550 -821299359 -249290564 1513259998 -1040723819
REM
CELL 1.54180   50.00000   50.00000   50.00000   90.00000   90.00000   90.00000
LATT -1
SFAC C  
C      1  0.5167200000000  0.5818420000000  0.5692400000000 1.0
C      1  0.4832800000000  0.5818420000000  0.4307600000000 1.0
C      1  0.5172290000000  0.5830630000000  0.4302340000000 1.0
C      1  0.4827710000000  0.5830630000000  0.5697660000000 1.0
C      1  0.5132930000000  0.5542130000000  0.4828690000000 1.0
C      1  0.4867070000000  0.5542130000000  0.5171310000000 1.0
C      1  0.5162120000000  0.5463920000000  0.5132910000000 1.0
C      1  0.4837880000000  0.5463920000000  0.4867090000000 1.0
C      1  0.5164200000000  0.5534810000000  0.5554760000000 1.0
C      1  0.4835800000000  0.5534810000000  0.4445240000000 1.0
C      1  0.5179500000000  0.5529360000000  0.4413480000000 1.0
C      1  0.4820500000000  0.5529360000000  0.5586520000000 1.0
C      1  0.5241990000000  0.4774980000000  0.5441590000000 1.0
C      1  0.4758010000000  0.4774980000000  0.4558410000000 1.0
C      1  0.5253510000000  0.4783760000000  0.4578790000000 1.0
C      1  0.4746490000000  0.4783760000000  0.5421210000000 1.0
C      1  0.4488860000000  0.5289490000000  0.4713850000000 1.0
C      1  0.5511140000000  0.5289490000000  0.5286150000000 1.0
C      1  0.4474920000000  0.5296890000000  0.5293720000000 1.0
C      1  0.5525080000000  0.5296890000000  0.4706280000000 1.0
C      1  0.4417830000000  0.4267220000000  0.5152520000000 1.0
C      1  0.5582170000000  0.4267220000000  0.4847480000000 1.0
C      1  0.4408240000000  0.4289960000000  0.4832740000000 1.0
C      1  0.5591760000000  0.4289960000000  0.5167260000000 1.0
C      1  0.4725500000000  0.4311450000000  0.4525310000000 1.0
C      1  0.5274500000000  0.4311450000000  0.5474690000000 1.0
C      1  0.4730770000000  0.4313300000000  0.5474620000000 1.0
C      1  0.5269230000000  0.4313300000000  0.4525380000000 1.0
C      1  0.5605390000000  0.4608120000000  0.5315480000000 1.0
C      1  0.4394610000000  0.4608120000000  0.4684520000000 1.0
C      1  0.5608050000000  0.4596030000000  0.4699390000000 1.0
C      1  0.4391950000000  0.4596030000000  0.5300610000000 1.0
C      1  0.5860600000000  0.4270620000000  0.4633430000000 1.0
C      1  0.4139400000000  0.4270620000000  0.5366570000000 1.0
C      1  0.5866540000000  0.4290020000000  0.5390640000000 1.0
C      1  0.4133460000000  0.4290020000000  0.4609360000000 1.0
C      1  0.3963340000000  0.5098920000000  0.5455800000000 1.0
C      1  0.6036660000000  0.5098920000000  0.4544200000000 1.0
C      1  0.3954040000000  0.5100860000000  0.4525370000000 1.0
C      1  0.6045960000000  0.5100860000000  0.5474630000000 1.0
C      1  0.4677560000000  0.5711070000000  0.5937130000000 1.0
C      1  0.5322440000000  0.5711070000000  0.4062870000000 1.0
C      1  0.4686320000000  0.5709560000000  0.4066050000000 1.0
C      1  0.5313680000000  0.5709560000000  0.5933950000000 1.0
C      1  0.5250970000000  0.5212200000000  0.4809030000000 1.0
C      1  0.4749030000000  0.5212200000000  0.5190970000000 1.0
C      1  0.5245330000000  0.5158070000000  0.5142520000000 1.0
C      1  0.4754670000000  0.5158070000000  0.4857480000000 1.0
C      1  0.5998700000000  0.5281380000000  0.5198240000000 1.0
C      1  0.4001300000000  0.5281380000000  0.4801760000000 1.0
C      1  0.6032760000000  0.5287430000000  0.4839040000000 1.0
C      1  0.3967240000000  0.5287430000000  0.5160960000000 1.0
C      1  0.5181490000000  0.5985470000000  0.5104620000000 1.0
C      1  0.4818510000000  0.5985470000000  0.4895380000000 1.0
C      1  0.5117240000000  0.5882480000000  0.4794130000000 1.0
C      1  0.4882760000000  0.5882480000000  0.5205870000000 1.0
C      1  0.4329460000000  0.5293220000000  0.5960520000000 1.0
C      1  0.5670540000000  0.5293220000000  0.4039480000000 1.0
C      1  0.4346050000000  0.5305260000000  0.4048520000000 1.0
C      1  0.5653950000000  0.5305260000000  0.5951480000000 1.0
C      1  0.4522100000000  0.5885870000000  0.5175270000000 1.0
C      1  0.5477900000000  0.5885870000000  0.4824730000000 1.0
C      1  0.4533100000000  0.5880380000000  0.4809130000000 1.0
C      1  0.5466900000000  0.5880380000000  0.5190870000000 1.0
C      1  0.5639420000000  0.5636580000000  0.5874530000000 1.0
C      1  0.4360580000000  0.5636580000000  0.4125470000000 1.0
C      1  0.5643350000000  0.5630160000000  0.4127610000000 1.0
C      1  0.4356650000000  0.5630160000000  0.5872390000000 1.0
C      1  0.4824290000000  0.4024690000000  0.5955210000000 1.0
C      1  0.5175710000000  0.4024690000000  0.4044790000000 1.0
C      1  0.4643810000000  0.4199770000000  0.3844740000000 1.0
C      1  0.5356190000000  0.4199770000000  0.6155260000000 1.0
C      1  0.5371040000000  0.5978390000000  0.5527130000000 1.0
C      1  0.4628960000000  0.5978390000000  0.4472870000000 1.0
C      1  0.5381150000000  0.5977820000000  0.4481910000000 1.0
C      1  0.4618850000000  0.5977820000000  0.5518090000000 1.0
C      1  0.4418560000000  0.4853360000000  0.5140210000000 1.0
C      1  0.5581440000000  0.4853360000000  0.4859790000000 1.0
C      1  0.4454430000000  0.4848110000000  0.4845350000000 1.0
C      1  0.5545570000000  0.4848110000000  0.5154650000000 1.0
C      1  0.4369220000000  0.5196730000000  0.5554520000000 1.0
C      1  0.5630780000000  0.5196730000000  0.4445480000000 1.0
C      1  0.4355000000000  0.5211920000000  0.4457240000000 1.0
C      1  0.5645000000000  0.5211920000000  0.5542760000000 1.0
C      1  0.4436760000000  0.4278470000000  0.5571750000000 1.0
C      1  0.5563240000000  0.4278470000000  0.4428250000000 1.0
C      1  0.4432230000000  0.4289300000000  0.4413720000000 1.0
C      1  0.5567770000000  0.4289300000000  0.5586280000000 1.0
C      1  0.5400840000000  0.4860870000000  0.4003680000000 1.0
C      1  0.4599160000000  0.4860870000000  0.5996320000000 1.0
C      1  0.5367570000000  0.4886960000000  0.5995680000000 1.0
C      1  0.4632430000000  0.4886960000000  0.4004320000000 1.0
C      1  0.5343870000000  0.3996280000000  0.4843830000000 1.0
C      1  0.4656130000000  0.3996280000000  0.5156170000000 1.0
C      1  0.5369510000000  0.4065160000000  0.5148160000000 1.0
C      1  0.4630490000000  0.4065160000000  0.4851840000000 1.0
C      1  0.4055610000000  0.4434750000000  0.5649510000000 1.0
C      1  0.5944390000000  0.4434750000000  0.4350490000000 1.0
C      1  0.4056900000000  0.4449740000000  0.4318610000000 1.0
C      1  0.5943100000000  0.4449740000000  0.5681390000000 1.0
C      1  0.4846520000000  0.5595470000000  0.6152320000000 1.0
C      1  0.5153480000000  0.5595470000000  0.3847680000000 1.0
C      1  0.4853700000000  0.5597020000000  0.3848040000000 1.0
C      1  0.5146300000000  0.5597020000000  0.6151960000000 1.0
C      1  0.5142730000000  0.4730100000000  0.3931690000000 1.0
C      1  0.4857270000000  0.4730100000000  0.6068310000000 1.0
C      1  0.5122200000000  0.4836530000000  0.6165090000000 1.0
C      1  0.4877800000000  0.4836530000000  0.3834910000000 1.0
C      1  0.4551660000000  0.4689360000000  0.4369280000000 1.0
C      1  0.5448340000000  0.4689360000000  0.5630720000000 1.0
C      1  0.4546930000000  0.4681200000000  0.5616080000000 1.0
C      1  0.5453070000000  0.4681200000000  0.4383920000000 1.0
C      1  0.4854500000000  0.5048650000000  0.5424250000000 1.0
C      1  0.5145500000000  0.5048650000000  0.4575750000000 1.0
C      1  0.4852590000000  0.5042390000000  0.4585850000000 1.0
C      1  0.5147410000000  0.5042390000000  0.5414150000000 1.0
C      1  0.4369490000000  0.4715090000000  0.3991980000000 1.0
C      1  0.5630510000000  0.4715090000000  0.6008020000000 1.0
C      1  0.4338890000000  0.4700960000000  0.5980300000000 1.0
C      1  0.5661110000000  0.4700960000000  0.4019700000000 1.0
C      1  0.5970330000000  0.4735360000000  0.4348440000000 1.0
C      1  0.4029670000000  0.4735360000000  0.5651560000000 1.0
C      1  0.5961710000000  0.4749430000000  0.5685750000000 1.0
C      1  0.4038290000000  0.4749430000000  0.4314250000000 1.0
C      1  0.5143050000000  0.4546340000000  0.4704320000000 1.0
C      1  0.4856950000000  0.4546340000000  0.5295680000000 1.0
C      1  0.5143540000000  0.4545650000000  0.5300930000000 1.0
C      1  0.4856460000000  0.4545650000000  0.4699070000000 1.0
C      1  0.4081980000000  0.4570840000000  0.4817310000000 1.0
C      1  0.5918020000000  0.4570840000000  0.5182690000000 1.0
C      1  0.4080680000000  0.4561130000000  0.5161550000000 1.0
C      1  0.5919320000000  0.4561130000000  0.4838450000000 1.0
C      1  0.4262230000000  0.5142160000000  0.5153620000000 1.0
C      1  0.5737770000000  0.5142160000000  0.4846380000000 1.0
C      1  0.4279160000000  0.5135050000000  0.4861650000000 1.0
C      1  0.5720840000000  0.5135050000000  0.5138350000000 1.0
C      1  0.5897900000000  0.5643330000000  0.5385180000000 1.0
C      1  0.4102100000000  0.5643330000000  0.4614820000000 1.0
C      1  0.5889970000000  0.5618160000000  0.4623970000000 1.0
C      1  0.4110030000000  0.5618160000000  0.5376030000000 1.0
C      1  0.3943880000000  0.4869000000000  0.5173070000000 1.0
C      1  0.6056120000000  0.4869000000000  0.4826930000000 1.0
C      1  0.3936660000000  0.4867220000000  0.4804950000000 1.0
C      1  0.6063340000000  0.4867220000000  0.5195050000000 1.0
C      1  0.5808760000000  0.5473400000000  0.5601200000000 1.0
C      1  0.4191240000000  0.5473400000000  0.4398800000000 1.0
C      1  0.5797400000000  0.5460450000000  0.4401270000000 1.0
C      1  0.4202600000000  0.5460450000000  0.5598730000000 1.0
C      1  0.5939250000000  0.4853460000000  0.4060620000000 1.0
C      1  0.4060750000000  0.4853460000000  0.5939380000000 1.0
C      1  0.5916100000000  0.4867750000000  0.5972410000000 1.0
C      1  0.4083900000000  0.4867750000000  0.4027590000000 1.0
C      1  0.4250730000000  0.5892390000000  0.4633890000000 1.0
C      1  0.5749270000000  0.5892390000000  0.5366110000000 1.0
C      1  0.4243280000000  0.5874990000000  0.5357170000000 1.0
C      1  0.5756720000000  0.5874990000000  0.4642830000000 1.0
C      1  0.4764020000000  0.5239060000000  0.4366200000000 1.0
C      1  0.5235980000000  0.5239060000000  0.5633800000000 1.0
C      1  0.4771260000000  0.5231210000000  0.5670960000000 1.0
C      1  0.5228740000000  0.5231210000000  0.4329040000000 1.0
C      1  0.5950180000000  0.5146240000000  0.5822450000000 1.0
C      1  0.4049820000000  0.5146240000000  0.4177550000000 1.0
C      1  0.5957430000000  0.5135050000000  0.4190640000000 1.0
C      1  0.4042570000000  0.5135050000000  0.5809360000000 1.0
C      1  0.4845980000000  0.4051960000000  0.4634980000000 1.0
C      1  0.5154020000000  0.4051960000000  0.5365020000000 1.0
C      1  0.4854400000000  0.4065600000000  0.5367850000000 1.0
C      1  0.5145600000000  0.4065600000000  0.4632150000000 1.0
C      1  0.5071830000000  0.3927710000000  0.5838730000000 1.0
C      1  0.4928170000000  0.3927710000000  0.4161270000000 1.0
C      1  0.4709750000000  0.4125860000000  0.4144480000000 1.0
C      1  0.5290250000000  0.4125860000000  0.5855520000000 1.0
C      1  0.4332140000000  0.4424860000000  0.4129100000000 1.0
C      1  0.5667860000000  0.4424860000000  0.5870900000000 1.0
C      1  0.4318750000000  0.4414500000000  0.5846540000000 1.0
C      1  0.5681250000000  0.4414500000000  0.4153460000000 1.0
C      1  0.5401010000000  0.5581830000000  0.4659490000000 1.0
C      1  0.4598990000000  0.5581830000000  0.5340510000000 1.0
C      1  0.5366930000000  0.5594150000000  0.5301920000000 1.0
C      1  0.4633070000000  0.5594150000000  0.4698080000000 1.0
C      1  0.4311480000000  0.4895910000000  0.4389520000000 1.0
C      1  0.5688520000000  0.4895910000000  0.5610480000000 1.0
C      1  0.4312300000000  0.4887050000000  0.5604730000000 1.0
C      1  0.5687700000000  0.4887050000000  0.4395270000000 1.0
C      1  0.4829510000000  0.4479400000000  0.5734110000000 1.0
C      1  0.5170490000000  0.4479400000000  0.4265890000000 1.0
C      1  0.4807730000000  0.4463550000000  0.4239240000000 1.0
C      1  0.5192270000000  0.4463550000000  0.5760760000000 1.0
C      1  0.4591070000000  0.5140890000000  0.5906260000000 1.0
C      1  0.5408930000000  0.5140890000000  0.4093740000000 1.0
C      1  0.4600030000000  0.5156310000000  0.4120950000000 1.0
C      1  0.5399970000000  0.5156310000000  0.5879050000000 1.0
C      1  0.5166250000000  0.4316020000000  0.3994430000000 1.0
C      1  0.4833750000000  0.4316020000000  0.6005570000000 1.0
C      1  0.5127680000000  0.4412980000000  0.6114460000000 1.0
C      1  0.4872320000000  0.4412980000000  0.3885540000000 1.0
C      1  0.5659410000000  0.5916220000000  0.4344760000000 1.0
C      1  0.4340590000000  0.5916220000000  0.5655240000000 1.0
C      1  0.5649990000000  0.5928390000000  0.5665500000000 1.0
C      1  0.4350010000000  0.5928390000000  0.4334500000000 1.0
END
