TITL C-862500-986-979 182.317739953842 125000 -688.534706262288 0 0 124 (C2) n - 1
REM
REM in /home/nfs/bkarasulu/CARBON/AIRSS/Generating-Clusters/TERSOFF/Higher-Symm/FIRE-HFTN
REM
REM
REM
REM
REM
REM ./C.cell (b20cbc046b6831c77cfcea5457e17084)
REM AIRSS Version 0.9.1 bugfix July 2018 build 013d7b7c2542+ Fri, 06 Jul 2018 19:26:36 +0100
REM compiler GCC version 9.2.1 20190827 (Red Hat 9.2.1-1)
REM options -cpp -mtune=generic -march=x86-64 -g -O0 -fpre-include=/usr/include/finclude/math-vector-fortran.h
REM seed 1192377698 951963454 -623827813 293583555 494675927 1000434432 -1605671637 -739440637 -1918106865 -695493290 -584551524 -1873298752 569235655 -1070618904 321816569 -1763360068 986741517 -935642911 -31529575 -114450947 1763111225 1022637340 -1674011314 1120094715 1016556179 -177262760 1396484769 -374836722 321006914 861809909 -356613830 -1648909423 1729444994
REM
CELL 1.54180   50.00000   50.00000   50.00000   90.00000   90.00000   90.00000
LATT -1
SFAC C  
C      1  0.5639530000000  0.4798380000000  0.5471530000000 1.0
C      1  0.4360470000000  0.4798380000000  0.4528470000000 1.0
C      1  0.4545010000000  0.4138960000000  0.5512690000000 1.0
C      1  0.5454990000000  0.4138960000000  0.4487310000000 1.0
C      1  0.5843850000000  0.4243810000000  0.5230020000000 1.0
C      1  0.4156150000000  0.4243810000000  0.4769980000000 1.0
C      1  0.4671240000000  0.4985110000000  0.4143530000000 1.0
C      1  0.5328760000000  0.4985110000000  0.5856470000000 1.0
C      1  0.4551270000000  0.5515220000000  0.5190400000000 1.0
C      1  0.5448730000000  0.5515220000000  0.4809600000000 1.0
C      1  0.5432310000000  0.4635500000000  0.5144770000000 1.0
C      1  0.4567690000000  0.4635500000000  0.4855230000000 1.0
C      1  0.4575520000000  0.4250660000000  0.5056300000000 1.0
C      1  0.5424480000000  0.4250660000000  0.4943700000000 1.0
C      1  0.5015260000000  0.4775310000000  0.5334030000000 1.0
C      1  0.4984740000000  0.4775310000000  0.4665970000000 1.0
C      1  0.5336880000000  0.5254890000000  0.5439350000000 1.0
C      1  0.4663120000000  0.5254890000000  0.4560650000000 1.0
C      1  0.4394290000000  0.4891810000000  0.4232990000000 1.0
C      1  0.5605710000000  0.4891810000000  0.5767010000000 1.0
C      1  0.4747990000000  0.4577750000000  0.5887690000000 1.0
C      1  0.5252010000000  0.4577750000000  0.4112310000000 1.0
C      1  0.5401730000000  0.5751060000000  0.5627150000000 1.0
C      1  0.4598270000000  0.5751060000000  0.4372850000000 1.0
C      1  0.4825360000000  0.5948660000000  0.4785170000000 1.0
C      1  0.5174640000000  0.5948660000000  0.5214830000000 1.0
C      1  0.4967380000000  0.5262660000000  0.4531290000000 1.0
C      1  0.5032620000000  0.5262660000000  0.5468710000000 1.0
C      1  0.5550590000000  0.4238890000000  0.5214300000000 1.0
C      1  0.4449410000000  0.4238890000000  0.4785700000000 1.0
C      1  0.4003540000000  0.4483240000000  0.4700020000000 1.0
C      1  0.5996460000000  0.4483240000000  0.5299980000000 1.0
C      1  0.4555840000000  0.4388140000000  0.4272370000000 1.0
C      1  0.5444160000000  0.4388140000000  0.5727630000000 1.0
C      1  0.4823180000000  0.4304720000000  0.4158590000000 1.0
C      1  0.5176820000000  0.4304720000000  0.5841410000000 1.0
C      1  0.5001470000000  0.5754600000000  0.5406840000000 1.0
C      1  0.4998530000000  0.5754600000000  0.4593160000000 1.0
C      1  0.5170050000000  0.6009890000000  0.4878320000000 1.0
C      1  0.4829950000000  0.6009890000000  0.5121680000000 1.0
C      1  0.5861100000000  0.4813300000000  0.4825490000000 1.0
C      1  0.4138900000000  0.4813300000000  0.5174510000000 1.0
C      1  0.5012820000000  0.4501150000000  0.5978690000000 1.0
C      1  0.4987180000000  0.4501150000000  0.4021310000000 1.0
C      1  0.5045760000000  0.5491950000000  0.4698510000000 1.0
C      1  0.4954240000000  0.5491950000000  0.5301490000000 1.0
C      1  0.4086810000000  0.4942290000000  0.4905000000000 1.0
C      1  0.5913190000000  0.4942290000000  0.5095000000000 1.0
C      1  0.5914640000000  0.5505620000000  0.5003640000000 1.0
C      1  0.4085360000000  0.5505620000000  0.4996360000000 1.0
C      1  0.4970160000000  0.4070830000000  0.4270830000000 1.0
C      1  0.5029840000000  0.4070830000000  0.5729170000000 1.0
C      1  0.4749540000000  0.5422250000000  0.5930760000000 1.0
C      1  0.5250460000000  0.5422250000000  0.4069240000000 1.0
C      1  0.4761650000000  0.4685120000000  0.4486170000000 1.0
C      1  0.5238350000000  0.4685120000000  0.5513830000000 1.0
C      1  0.4117650000000  0.4754490000000  0.4681540000000 1.0
C      1  0.5882350000000  0.4754490000000  0.5318460000000 1.0
C      1  0.5708730000000  0.5959560000000  0.5307940000000 1.0
C      1  0.4291270000000  0.5959560000000  0.4692060000000 1.0
C      1  0.5820450000000  0.5679250000000  0.5301440000000 1.0
C      1  0.4179550000000  0.5679250000000  0.4698560000000 1.0
C      1  0.5930460000000  0.5480980000000  0.4450530000000 1.0
C      1  0.4069540000000  0.5480980000000  0.5549470000000 1.0
C      1  0.4681140000000  0.4524680000000  0.5607910000000 1.0
C      1  0.5318860000000  0.4524680000000  0.4392090000000 1.0
C      1  0.4983120000000  0.5403950000000  0.4230430000000 1.0
C      1  0.5016880000000  0.5403950000000  0.5769570000000 1.0
C      1  0.4244350000000  0.5291200000000  0.4552330000000 1.0
C      1  0.5755650000000  0.5291200000000  0.5447670000000 1.0
C      1  0.5613960000000  0.4831000000000  0.4644010000000 1.0
C      1  0.4386040000000  0.4831000000000  0.5355990000000 1.0
C      1  0.4754190000000  0.5260790000000  0.4089440000000 1.0
C      1  0.5245810000000  0.5260790000000  0.5910560000000 1.0
C      1  0.5436550000000  0.5990300000000  0.5426150000000 1.0
C      1  0.4563450000000  0.5990300000000  0.4573850000000 1.0
C      1  0.4589530000000  0.5051350000000  0.5350830000000 1.0
C      1  0.5410470000000  0.5051350000000  0.4649170000000 1.0
C      1  0.4331350000000  0.4856680000000  0.6006280000000 1.0
C      1  0.5668650000000  0.4856680000000  0.3993720000000 1.0
C      1  0.4651520000000  0.5651740000000  0.4806230000000 1.0
C      1  0.5348480000000  0.5651740000000  0.5193770000000 1.0
C      1  0.5529910000000  0.5518000000000  0.5440230000000 1.0
C      1  0.4470090000000  0.5518000000000  0.4559780000000 1.0
C      1  0.4877310000000  0.5018220000000  0.5402280000000 1.0
C      1  0.5122690000000  0.5018220000000  0.4597720000000 1.0
C      1  0.4888790000000  0.5694610000000  0.4320140000000 1.0
C      1  0.5111210000000  0.5694610000000  0.5679860000000 1.0
C      1  0.5653130000000  0.5386380000000  0.4397370000000 1.0
C      1  0.4346870000000  0.5386380000000  0.5602630000000 1.0
C      1  0.5534820000000  0.5333370000000  0.4132470000000 1.0
C      1  0.4465180000000  0.5333370000000  0.5867530000000 1.0
C      1  0.3935610000000  0.5484160000000  0.5274400000000 1.0
C      1  0.6064390000000  0.5484160000000  0.4725600000000 1.0
C      1  0.5796490000000  0.5122780000000  0.5687150000000 1.0
C      1  0.4203510000000  0.5122780000000  0.4312850000000 1.0
C      1  0.4839120000000  0.4082790000000  0.5499940000000 1.0
C      1  0.5160880000000  0.4082790000000  0.4500060000000 1.0
C      1  0.4567470000000  0.4438760000000  0.4581540000000 1.0
C      1  0.5432530000000  0.4438760000000  0.5418460000000 1.0
C      1  0.5879320000000  0.5235270000000  0.5179890000000 1.0
C      1  0.4120680000000  0.5235270000000  0.4820110000000 1.0
C      1  0.5496230000000  0.5318640000000  0.4617380000000 1.0
C      1  0.4503770000000  0.5318640000000  0.5382620000000 1.0
C      1  0.5451010000000  0.4678190000000  0.3924590000000 1.0
C      1  0.4548990000000  0.4678190000000  0.6075410000000 1.0
C      1  0.5871010000000  0.4499490000000  0.4799820000000 1.0
C      1  0.4128990000000  0.4499490000000  0.5200180000000 1.0
C      1  0.5131750000000  0.4526640000000  0.4604750000000 1.0
C      1  0.4868250000000  0.4526640000000  0.5395250000000 1.0
C      1  0.4429790000000  0.4569880000000  0.5486870000000 1.0
C      1  0.5570210000000  0.4569880000000  0.4513130000000 1.0
C      1  0.5113980000000  0.4226100000000  0.4897390000000 1.0
C      1  0.4886020000000  0.4226100000000  0.5102610000000 1.0
C      1  0.5188720000000  0.4777130000000  0.5091770000000 1.0
C      1  0.4811280000000  0.4777130000000  0.4908230000000 1.0
C      1  0.4338290000000  0.5655470000000  0.5085980000000 1.0
C      1  0.5661710000000  0.5655470000000  0.4914020000000 1.0
C      1  0.4334430000000  0.5143900000000  0.6044850000000 1.0
C      1  0.5665570000000  0.5143900000000  0.3955150000000 1.0
C      1  0.5614720000000  0.4317730000000  0.4701950000000 1.0
C      1  0.4385280000000  0.4317730000000  0.5298050000000 1.0
C      1  0.4387180000000  0.4594720000000  0.4137070000000 1.0
C      1  0.5612820000000  0.4594720000000  0.5862930000000 1.0
END
