TITL C-862500-986-1235 0.00172312877109856 125000 -961.282825836401 0 0 168 (D3) n - 1
REM
REM in /home/nfs/bkarasulu/CARBON/AIRSS/Generating-Clusters/TERSOFF/Higher-Symm/FIRE-HFTN
REM
REM
REM
REM
REM
REM ./C.cell (b20cbc046b6831c77cfcea5457e17084)
REM AIRSS Version 0.9.1 bugfix July 2018 build 013d7b7c2542+ Fri, 06 Jul 2018 19:26:36 +0100
REM compiler GCC version 9.2.1 20190827 (Red Hat 9.2.1-1)
REM options -cpp -mtune=generic -march=x86-64 -g -O0 -fpre-include=/usr/include/finclude/math-vector-fortran.h
REM seed 1060773980 1099010352 1925037161 -727564056 -1329013063 128737650 -585752600 -1123481538 -56141569 -805730450 -2129153781 -744313027 1820767390 82763350 1224333269 875344680 -253453473 848179288 1777619069 -649044648 -1610774077 -1782930593 -1448041294 1672418319 1679225655 -255867335 407365174 -1034280909 1472200247 1965484642 397114228 261056123 28218077
REM
CELL 1.54180   50.00000   50.00000   50.00000   90.00000   90.00000   90.00000
LATT -1
SFAC C  
C      1  0.4399910000000  0.5817760000000  0.4664140000000 1.0
C      1  0.5009190000000  0.5817760000000  0.5687610000000 1.0
C      1  0.5590900000000  0.5817760000000  0.4648230000000 1.0
C      1  0.4399910000000  0.4182240000000  0.5335850000000 1.0
C      1  0.5009190000000  0.4182240000000  0.4312390000000 1.0
C      1  0.5590900000000  0.4182240000000  0.5351770000000 1.0
C      1  0.5621080000000  0.4814060000000  0.4424720000000 1.0
C      1  0.4191250000000  0.4814060000000  0.4749780000000 1.0
C      1  0.5187670000000  0.4814060000000  0.5825510000000 1.0
C      1  0.5621070000000  0.5185940000000  0.5575290000000 1.0
C      1  0.4191250000000  0.5185940000000  0.5250220000000 1.0
C      1  0.5187680000000  0.5185940000000  0.4174490000000 1.0
C      1  0.5383240000000  0.5382740000000  0.4219370000000 1.0
C      1  0.4132330000000  0.5382750000000  0.5058420000000 1.0
C      1  0.5484420000000  0.5382750000000  0.5722210000000 1.0
C      1  0.5383240000000  0.4617260000000  0.5780630000000 1.0
C      1  0.4132330000000  0.4617250000000  0.4941580000000 1.0
C      1  0.5484430000000  0.4617250000000  0.4277790000000 1.0
C      1  0.5278260000000  0.5838380000000  0.5561400000000 1.0
C      1  0.5347060000000  0.5838380000000  0.4478320000000 1.0
C      1  0.4374680000000  0.5838380000000  0.4960270000000 1.0
C      1  0.5278260000000  0.4161620000000  0.4438600000000 1.0
C      1  0.5347060000000  0.4161620000000  0.5521690000000 1.0
C      1  0.4374680000000  0.4161620000000  0.5039730000000 1.0
C      1  0.4939140000000  0.5270400000000  0.5467490000000 1.0
C      1  0.5435290000000  0.5270400000000  0.4818960000000 1.0
C      1  0.4625570000000  0.5270400000000  0.4713550000000 1.0
C      1  0.4939150000000  0.4729600000000  0.4532510000000 1.0
C      1  0.5435290000000  0.4729600000000  0.5181050000000 1.0
C      1  0.4625570000000  0.4729600000000  0.5286450000000 1.0
C      1  0.4286200000000  0.5584580000000  0.4208570000000 1.0
C      1  0.4671500000000  0.5584590000000  0.6013880000000 1.0
C      1  0.6042300000000  0.5584580000000  0.4777550000000 1.0
C      1  0.4286200000000  0.4415420000000  0.5791430000000 1.0
C      1  0.4671500000000  0.4415410000000  0.3986120000000 1.0
C      1  0.6042300000000  0.4415420000000  0.5222460000000 1.0
C      1  0.4568520000000  0.4423610000000  0.5710110000000 1.0
C      1  0.5830710000000  0.4423600000000  0.5018620000000 1.0
C      1  0.4600760000000  0.4423600000000  0.4271280000000 1.0
C      1  0.4568530000000  0.5576390000000  0.4289880000000 1.0
C      1  0.5830710000000  0.5576400000000  0.4981390000000 1.0
C      1  0.4600760000000  0.5576400000000  0.5728720000000 1.0
C      1  0.4893870000000  0.4782270000000  0.5400310000000 1.0
C      1  0.5399740000000  0.4782270000000  0.4891760000000 1.0
C      1  0.4706390000000  0.4782270000000  0.4707940000000 1.0
C      1  0.4893870000000  0.5217730000000  0.4599690000000 1.0
C      1  0.5399740000000  0.5217730000000  0.5108240000000 1.0
C      1  0.4706390000000  0.5217730000000  0.5292060000000 1.0
C      1  0.4428980000000  0.4770380000000  0.4602800000000 1.0
C      1  0.4941520000000  0.4770390000000  0.5693120000000 1.0
C      1  0.5629500000000  0.4770380000000  0.4704090000000 1.0
C      1  0.4428980000000  0.5229620000000  0.5397200000000 1.0
C      1  0.4941520000000  0.5229610000000  0.4306880000000 1.0
C      1  0.5629490000000  0.5229620000000  0.5295910000000 1.0
C      1  0.5313300000000  0.5940030000000  0.5261900000000 1.0
C      1  0.5070160000000  0.5940020000000  0.4597720000000 1.0
C      1  0.4616540000000  0.5940030000000  0.5140370000000 1.0
C      1  0.5313300000000  0.4059970000000  0.4738110000000 1.0
C      1  0.5070160000000  0.4059980000000  0.5402280000000 1.0
C      1  0.4616540000000  0.4059970000000  0.4859630000000 1.0
C      1  0.5284910000000  0.5654730000000  0.4238980000000 1.0
C      1  0.4198480000000  0.5654740000000  0.5133760000000 1.0
C      1  0.5516600000000  0.5654740000000  0.5627250000000 1.0
C      1  0.5284910000000  0.4345270000000  0.5761020000000 1.0
C      1  0.4198480000000  0.4345260000000  0.4866230000000 1.0
C      1  0.5516610000000  0.4345260000000  0.4372750000000 1.0
C      1  0.4928300000000  0.4194840000000  0.4008690000000 1.0
C      1  0.4177350000000  0.4194850000000  0.5557760000000 1.0
C      1  0.5894350000000  0.4194850000000  0.5433560000000 1.0
C      1  0.4928290000000  0.5805160000000  0.5991310000000 1.0
C      1  0.4177350000000  0.5805150000000  0.4442240000000 1.0
C      1  0.5894350000000  0.5805150000000  0.4566440000000 1.0
C      1  0.5834120000000  0.5342950000000  0.4419180000000 1.0
C      1  0.4079940000000  0.5342950000000  0.4568040000000 1.0
C      1  0.5085940000000  0.5342960000000  0.6012770000000 1.0
C      1  0.5834120000000  0.4657050000000  0.5580820000000 1.0
C      1  0.4079940000000  0.4657050000000  0.5431960000000 1.0
C      1  0.5085940000000  0.4657040000000  0.3987230000000 1.0
C      1  0.4532200000000  0.5150590000000  0.4258060000000 1.0
C      1  0.4591370000000  0.5150600000000  0.5776100000000 1.0
C      1  0.5876440000000  0.5150590000000  0.4965840000000 1.0
C      1  0.4532190000000  0.4849410000000  0.5741930000000 1.0
C      1  0.4591370000000  0.4849400000000  0.4223900000000 1.0
C      1  0.5876440000000  0.4849410000000  0.5034170000000 1.0
C      1  0.4269710000000  0.4313570000000  0.4562110000000 1.0
C      1  0.4985920000000  0.4313570000000  0.5851400000000 1.0
C      1  0.5744370000000  0.4313570000000  0.4586500000000 1.0
C      1  0.4269710000000  0.5686430000000  0.5437890000000 1.0
C      1  0.4985920000000  0.5686430000000  0.4148600000000 1.0
C      1  0.5744370000000  0.5686430000000  0.5413500000000 1.0
C      1  0.4444770000000  0.4066190000000  0.4590280000000 1.0
C      1  0.4922780000000  0.4066200000000  0.5685710000000 1.0
C      1  0.5632450000000  0.4066190000000  0.4724030000000 1.0
C      1  0.4444770000000  0.5933810000000  0.5409720000000 1.0
C      1  0.4922780000000  0.5933800000000  0.4314290000000 1.0
C      1  0.5632450000000  0.5933810000000  0.5275980000000 1.0
C      1  0.4801240000000  0.5677660000000  0.5544630000000 1.0
C      1  0.5571040000000  0.5677660000000  0.4899810000000 1.0
C      1  0.4627710000000  0.5677650000000  0.4555550000000 1.0
C      1  0.4801240000000  0.4322340000000  0.4455370000000 1.0
C      1  0.5571040000000  0.4322340000000  0.5100190000000 1.0
C      1  0.4627710000000  0.4322350000000  0.5444450000000 1.0
C      1  0.5073210000000  0.5604750000000  0.6134670000000 1.0
C      1  0.5946050000000  0.5604740000000  0.4369260000000 1.0
C      1  0.3980740000000  0.5604740000000  0.4496060000000 1.0
C      1  0.5073220000000  0.4395250000000  0.3865330000000 1.0
C      1  0.5946050000000  0.4395260000000  0.5630750000000 1.0
C      1  0.3980730000000  0.4395260000000  0.5503930000000 1.0
C      1  0.5156020000000  0.6163510000000  0.5138730000000 1.0
C      1  0.5042130000000  0.6163510000000  0.4795510000000 1.0
C      1  0.4801840000000  0.6163510000000  0.5065750000000 1.0
C      1  0.5156020000000  0.3836490000000  0.4861280000000 1.0
C      1  0.5042130000000  0.3836490000000  0.5204490000000 1.0
C      1  0.4801840000000  0.3836490000000  0.4934250000000 1.0
C      1  0.6296350000000  0.5149190000000  0.4964320000000 1.0
C      1  0.4320920000000  0.5149190000000  0.3895170000000 1.0
C      1  0.4382730000000  0.5149200000000  0.6140510000000 1.0
C      1  0.6296350000000  0.4850810000000  0.5035690000000 1.0
C      1  0.4320920000000  0.4850810000000  0.6104830000000 1.0
C      1  0.4382730000000  0.4850800000000  0.3859480000000 1.0
C      1  0.4943500000000  0.4871360000000  0.3801130000000 1.0
C      1  0.3990000000000  0.4871370000000  0.5648360000000 1.0
C      1  0.6066500000000  0.4871370000000  0.5550510000000 1.0
C      1  0.4943500000000  0.5128640000000  0.6198870000000 1.0
C      1  0.3990000000000  0.5128630000000  0.4351630000000 1.0
C      1  0.6066500000000  0.5128640000000  0.4449500000000 1.0
C      1  0.5714170000000  0.4743790000000  0.5279730000000 1.0
C      1  0.4885160000000  0.4743780000000  0.4241650000000 1.0
C      1  0.4400660000000  0.4743790000000  0.5478630000000 1.0
C      1  0.5714170000000  0.5256210000000  0.4720280000000 1.0
C      1  0.4885160000000  0.5256220000000  0.5758350000000 1.0
C      1  0.4400660000000  0.5256210000000  0.4521370000000 1.0
C      1  0.5862080000000  0.5404970000000  0.5221840000000 1.0
C      1  0.4761080000000  0.5404960000000  0.4142500000000 1.0
C      1  0.4376840000000  0.5404970000000  0.5635660000000 1.0
C      1  0.5862080000000  0.4595030000000  0.4778170000000 1.0
C      1  0.4761070000000  0.4595040000000  0.5857500000000 1.0
C      1  0.4376850000000  0.4595030000000  0.4364340000000 1.0
C      1  0.5846600000000  0.5054290000000  0.5716400000000 1.0
C      1  0.5197130000000  0.5054280000000  0.3908620000000 1.0
C      1  0.3956280000000  0.5054290000000  0.5374970000000 1.0
C      1  0.5846600000000  0.4945710000000  0.4283600000000 1.0
C      1  0.5197120000000  0.4945720000000  0.6091380000000 1.0
C      1  0.3956280000000  0.4945710000000  0.4625020000000 1.0
C      1  0.4893110000000  0.5703260000000  0.4664010000000 1.0
C      1  0.4762480000000  0.5703270000000  0.5260560000000 1.0
C      1  0.5344410000000  0.5703270000000  0.5075420000000 1.0
C      1  0.4893110000000  0.4296740000000  0.5335980000000 1.0
C      1  0.4762480000000  0.4296730000000  0.4739440000000 1.0
C      1  0.5344410000000  0.4296730000000  0.4924580000000 1.0
C      1  0.4659100000000  0.4701020000000  0.3837780000000 1.0
C      1  0.4163940000000  0.4701030000000  0.5876340000000 1.0
C      1  0.6176970000000  0.4701030000000  0.5285880000000 1.0
C      1  0.4659090000000  0.5298980000000  0.6162220000000 1.0
C      1  0.4163940000000  0.5298970000000  0.4123650000000 1.0
C      1  0.6176970000000  0.5298970000000  0.4714120000000 1.0
C      1  0.5718160000000  0.4931820000000  0.5977620000000 1.0
C      1  0.5487570000000  0.4931800000000  0.3889250000000 1.0
C      1  0.3794280000000  0.4931810000000  0.5133130000000 1.0
C      1  0.5718160000000  0.5068180000000  0.4022380000000 1.0
C      1  0.5487560000000  0.5068200000000  0.6110760000000 1.0
C      1  0.3794280000000  0.5068190000000  0.4866860000000 1.0
C      1  0.5372280000000  0.5307860000000  0.5971340000000 1.0
C      1  0.5655070000000  0.5307850000000  0.4191930000000 1.0
C      1  0.3972660000000  0.5307850000000  0.4836730000000 1.0
C      1  0.5372280000000  0.4692140000000  0.4028660000000 1.0
C      1  0.5655060000000  0.4692150000000  0.5808080000000 1.0
C      1  0.3972660000000  0.4692150000000  0.5163270000000 1.0
END
