TITL C-862133-5440-480 0.0242352543129583 125000 -926.690317814607 0 0 165 (C1) n - 1
REM
REM in /home/nfs/bkarasulu/CARBON/AIRSS/Generating-Clusters/TERSOFF/Higher-Symm/FIRE-HFTN
REM
REM
REM
REM
REM
REM ./C.cell (b20cbc046b6831c77cfcea5457e17084)
REM AIRSS Version 0.9.1 bugfix July 2018 build 013d7b7c2542+ Fri, 06 Jul 2018 19:26:36 +0100
REM compiler GCC version 9.2.1 20190827 (Red Hat 9.2.1-1)
REM options -cpp -mtune=generic -march=x86-64 -g -O0 -fpre-include=/usr/include/finclude/math-vector-fortran.h
REM seed 1692061807 928285584 -877849499 1485100638 -482060252 -1086613958 1954518983 190174245 113006670 1655987692 865317008 -1926894216 1152650130 522268014 313170910 -962809636 588757959 1972842533 1852517201 -1409464238 -200006082 906834267 1993044043 908475980 1527374538 -1287530111 282652697 -1490290438 -2076103051 1715317949 -77423516 1598212371 -1973555935
REM
CELL 1.54180   50.00000   50.00000   50.00000   90.00000   90.00000   90.00000
LATT -1
SFAC C  
C      1  0.5339260000000  0.6032620000000  0.4816160000000 1.0
C      1  0.5415760000000  0.6018910000000  0.5122860000000 1.0
C      1  0.5223600000000  0.6001660000000  0.5378540000000 1.0
C      1  0.4907960000000  0.6038070000000  0.5381610000000 1.0
C      1  0.4722860000000  0.6080860000000  0.5130140000000 1.0
C      1  0.4778760000000  0.6081420000000  0.4822700000000 1.0
C      1  0.5060280000000  0.6086600000000  0.4687580000000 1.0
C      1  0.4850800000000  0.5346020000000  0.3965130000000 1.0
C      1  0.5681840000000  0.5342250000000  0.4255140000000 1.0
C      1  0.6003770000000  0.5363170000000  0.5092420000000 1.0
C      1  0.5544550000000  0.5334480000000  0.5851390000000 1.0
C      1  0.4656570000000  0.5360150000000  0.5977710000000 1.0
C      1  0.4028420000000  0.5388940000000  0.5335790000000 1.0
C      1  0.4084800000000  0.5378790000000  0.4467730000000 1.0
C      1  0.4301840000000  0.5848320000000  0.4421410000000 1.0
C      1  0.4978700000000  0.5823540000000  0.4097320000000 1.0
C      1  0.5656510000000  0.5826660000000  0.4430320000000 1.0
C      1  0.5813440000000  0.5826640000000  0.5190000000000 1.0
C      1  0.5365670000000  0.5817770000000  0.5782290000000 1.0
C      1  0.4618000000000  0.5832310000000  0.5778600000000 1.0
C      1  0.4144470000000  0.5872270000000  0.5206950000000 1.0
C      1  0.4816770000000  0.5719410000000  0.5339010000000 1.0
C      1  0.4629240000000  0.5757790000000  0.5044710000000 1.0
C      1  0.4626730000000  0.5823030000000  0.4686050000000 1.0
C      1  0.4954690000000  0.5782670000000  0.4556720000000 1.0
C      1  0.5251800000000  0.5716710000000  0.4741490000000 1.0
C      1  0.5335970000000  0.5699040000000  0.5071160000000 1.0
C      1  0.5143380000000  0.5681470000000  0.5332800000000 1.0
C      1  0.5087920000000  0.5181670000000  0.5878900000000 1.0
C      1  0.4367390000000  0.5194260000000  0.5623040000000 1.0
C      1  0.4128170000000  0.5257190000000  0.4880780000000 1.0
C      1  0.4503560000000  0.5191530000000  0.4278990000000 1.0
C      1  0.5254800000000  0.5177340000000  0.4170640000000 1.0
C      1  0.5790230000000  0.5196600000000  0.4691580000000 1.0
C      1  0.5729160000000  0.5169560000000  0.5444870000000 1.0
C      1  0.4645990000000  0.4825510000000  0.4509560000000 1.0
C      1  0.5117720000000  0.4709560000000  0.4391760000000 1.0
C      1  0.5568200000000  0.4826230000000  0.4750490000000 1.0
C      1  0.5569630000000  0.4698780000000  0.5266070000000 1.0
C      1  0.5092860000000  0.4837520000000  0.5631630000000 1.0
C      1  0.4553890000000  0.4832280000000  0.5448470000000 1.0
C      1  0.4429840000000  0.4926450000000  0.4962350000000 1.0
C      1  0.4101440000000  0.4709350000000  0.5266300000000 1.0
C      1  0.4225310000000  0.4726960000000  0.4486650000000 1.0
C      1  0.4913790000000  0.4756990000000  0.4028580000000 1.0
C      1  0.5691540000000  0.4736820000000  0.4356610000000 1.0
C      1  0.5965580000000  0.4765830000000  0.5145010000000 1.0
C      1  0.5467210000000  0.4718730000000  0.5837380000000 1.0
C      1  0.4640240000000  0.4710210000000  0.5877450000000 1.0
C      1  0.5237250000000  0.4679080000000  0.4059120000000 1.0
C      1  0.5843190000000  0.4678780000000  0.4628840000000 1.0
C      1  0.5862490000000  0.4674990000000  0.5455680000000 1.0
C      1  0.5163120000000  0.4660330000000  0.5899380000000 1.0
C      1  0.4402180000000  0.4668840000000  0.5680670000000 1.0
C      1  0.4174820000000  0.4742650000000  0.4971680000000 1.0
C      1  0.4458880000000  0.4671540000000  0.4285760000000 1.0
C      1  0.4793710000000  0.3679050000000  0.5268920000000 1.0
C      1  0.4672170000000  0.3684780000000  0.4993570000000 1.0
C      1  0.4812450000000  0.3709150000000  0.4729480000000 1.0
C      1  0.5107530000000  0.3702800000000  0.4671210000000 1.0
C      1  0.5336550000000  0.3711170000000  0.4866080000000 1.0
C      1  0.5326180000000  0.3698940000000  0.5165590000000 1.0
C      1  0.5084790000000  0.3687680000000  0.5344920000000 1.0
C      1  0.4636200000000  0.3867560000000  0.5452820000000 1.0
C      1  0.4432400000000  0.3876040000000  0.4994600000000 1.0
C      1  0.4675500000000  0.3920600000000  0.4556480000000 1.0
C      1  0.5164360000000  0.3912870000000  0.4455910000000 1.0
C      1  0.5535640000000  0.3928000000000  0.4779510000000 1.0
C      1  0.5516900000000  0.3910290000000  0.5275740000000 1.0
C      1  0.5123240000000  0.3888640000000  0.5572800000000 1.0
C      1  0.5918430000000  0.5658420000000  0.4958190000000 1.0
C      1  0.5598830000000  0.5638220000000  0.5713900000000 1.0
C      1  0.4812020000000  0.5651730000000  0.5927230000000 1.0
C      1  0.4152060000000  0.5678090000000  0.5440720000000 1.0
C      1  0.4116270000000  0.5688170000000  0.4603600000000 1.0
C      1  0.4735050000000  0.5645400000000  0.4054470000000 1.0
C      1  0.5544680000000  0.5643770000000  0.4217100000000 1.0
C      1  0.4262210000000  0.4514800000000  0.5427420000000 1.0
C      1  0.4218120000000  0.4549030000000  0.4731200000000 1.0
C      1  0.4743750000000  0.4560760000000  0.4187970000000 1.0
C      1  0.5483840000000  0.4537890000000  0.4280890000000 1.0
C      1  0.5865290000000  0.4569830000000  0.4934620000000 1.0
C      1  0.5595050000000  0.4526790000000  0.5647600000000 1.0
C      1  0.4871320000000  0.4517730000000  0.5848670000000 1.0
C      1  0.5592260000000  0.5022220000000  0.4364820000000 1.0
C      1  0.5885100000000  0.5051780000000  0.5073620000000 1.0
C      1  0.5488000000000  0.5008550000000  0.5747730000000 1.0
C      1  0.4698070000000  0.5026140000000  0.5883980000000 1.0
C      1  0.4115520000000  0.5048370000000  0.5321080000000 1.0
C      1  0.4200630000000  0.5042750000000  0.4528360000000 1.0
C      1  0.4860170000000  0.5047330000000  0.4112630000000 1.0
C      1  0.4439030000000  0.4047740000000  0.4724970000000 1.0
C      1  0.4906930000000  0.4068300000000  0.4392490000000 1.0
C      1  0.5424050000000  0.4061300000000  0.4519660000000 1.0
C      1  0.5635940000000  0.4073160000000  0.5042080000000 1.0
C      1  0.5392050000000  0.4044430000000  0.5521390000000 1.0
C      1  0.4847440000000  0.4021420000000  0.5634520000000 1.0
C      1  0.4405370000000  0.4003710000000  0.5280850000000 1.0
C      1  0.5094310000000  0.5424260000000  0.4156940000000 1.0
C      1  0.5675250000000  0.5428510000000  0.4562650000000 1.0
C      1  0.5752710000000  0.5415130000000  0.5283720000000 1.0
C      1  0.5243140000000  0.5408860000000  0.5789530000000 1.0
C      1  0.4519440000000  0.5431450000000  0.5701220000000 1.0
C      1  0.4159620000000  0.5478290000000  0.5062630000000 1.0
C      1  0.4385870000000  0.5439020000000  0.4379740000000 1.0
C      1  0.5232800000000  0.5431030000000  0.5479360000000 1.0
C      1  0.4756230000000  0.5464910000000  0.5502720000000 1.0
C      1  0.4457500000000  0.5510820000000  0.5126950000000 1.0
C      1  0.4523590000000  0.5529520000000  0.4642740000000 1.0
C      1  0.4963290000000  0.5492390000000  0.4430750000000 1.0
C      1  0.5376890000000  0.5456960000000  0.4637840000000 1.0
C      1  0.5506030000000  0.5448970000000  0.5094270000000 1.0
C      1  0.4386360000000  0.5139260000000  0.4772140000000 1.0
C      1  0.4757030000000  0.5079770000000  0.4404720000000 1.0
C      1  0.5291940000000  0.5025210000000  0.4434360000000 1.0
C      1  0.5633630000000  0.5064840000000  0.4904540000000 1.0
C      1  0.5475420000000  0.5006090000000  0.5441300000000 1.0
C      1  0.4913950000000  0.5063580000000  0.5673500000000 1.0
C      1  0.4427160000000  0.5082710000000  0.5352110000000 1.0
C      1  0.5182610000000  0.4952130000000  0.6039660000000 1.0
C      1  0.4295810000000  0.4955680000000  0.5786340000000 1.0
C      1  0.3989080000000  0.4994330000000  0.4924520000000 1.0
C      1  0.4370730000000  0.4954470000000  0.4155050000000 1.0
C      1  0.5281980000000  0.4973990000000  0.3960600000000 1.0
C      1  0.5955540000000  0.4982340000000  0.4571780000000 1.0
C      1  0.5942030000000  0.4977680000000  0.5507710000000 1.0
C      1  0.5208930000000  0.5200480000000  0.4674960000000 1.0
C      1  0.5373830000000  0.5194860000000  0.4993000000000 1.0
C      1  0.5237910000000  0.5163190000000  0.5307240000000 1.0
C      1  0.4889690000000  0.5202240000000  0.5401350000000 1.0
C      1  0.4618870000000  0.5252830000000  0.5167470000000 1.0
C      1  0.4646370000000  0.5305890000000  0.4809090000000 1.0
C      1  0.4895820000000  0.5258170000000  0.4608560000000 1.0
C      1  0.4785190000000  0.4735510000000  0.5291130000000 1.0
C      1  0.4726840000000  0.4872560000000  0.5027320000000 1.0
C      1  0.4760750000000  0.4716520000000  0.4778080000000 1.0
C      1  0.5036280000000  0.4799170000000  0.4678410000000 1.0
C      1  0.5288450000000  0.4735340000000  0.4829820000000 1.0
C      1  0.5310870000000  0.4795300000000  0.5118750000000 1.0
C      1  0.5105140000000  0.4759710000000  0.5342750000000 1.0
C      1  0.5384560000000  0.4339680000000  0.5514980000000 1.0
C      1  0.4839610000000  0.4315370000000  0.5619710000000 1.0
C      1  0.4415050000000  0.4299290000000  0.5264000000000 1.0
C      1  0.4446240000000  0.4344350000000  0.4746510000000 1.0
C      1  0.4929160000000  0.4394800000000  0.4392870000000 1.0
C      1  0.5405040000000  0.4353740000000  0.4517750000000 1.0
C      1  0.5629100000000  0.4396740000000  0.5063190000000 1.0
C      1  0.5262090000000  0.5676320000000  0.4090970000000 1.0
C      1  0.5820820000000  0.5685440000000  0.4659160000000 1.0
C      1  0.5765190000000  0.5667490000000  0.5456400000000 1.0
C      1  0.5121460000000  0.5668430000000  0.5902270000000 1.0
C      1  0.4355160000000  0.5692620000000  0.5674380000000 1.0
C      1  0.4076550000000  0.5744010000000  0.4918730000000 1.0
C      1  0.4457290000000  0.5683570000000  0.4195980000000 1.0
C      1  0.4948820000000  0.4323850000000  0.4722640000000 1.0
C      1  0.5256680000000  0.4451430000000  0.4758390000000 1.0
C      1  0.5303160000000  0.4328880000000  0.5042920000000 1.0
C      1  0.5193180000000  0.4437990000000  0.5304690000000 1.0
C      1  0.4877030000000  0.4410740000000  0.5347480000000 1.0
C      1  0.4671860000000  0.4359750000000  0.5143130000000 1.0
C      1  0.4704450000000  0.4433880000000  0.4853240000000 1.0
C      1  0.4893700000000  0.5619700000000  0.4938330000000 1.0
C      1  0.4998580000000  0.5375840000000  0.5036940000000 1.0
C      1  0.5104380000000  0.4093600000000  0.4914210000000 1.0
C      1  0.4953280000000  0.5078750000000  0.4983290000000 1.0
END
