TITL C-862134-6730-832 107952.166617567 125000 -604.595676910357 0 0 111 (C1) n - 1
REM
REM in /home/nfs/bkarasulu/CARBON/AIRSS/Generating-Clusters/TERSOFF/Higher-Symm/FIRE-HFTN
REM
REM
REM
REM
REM
REM ./C.cell (b20cbc046b6831c77cfcea5457e17084)
REM AIRSS Version 0.9.1 bugfix July 2018 build 013d7b7c2542+ Fri, 06 Jul 2018 19:26:36 +0100
REM compiler GCC version 9.2.1 20190827 (Red Hat 9.2.1-1)
REM options -cpp -mtune=generic -march=x86-64 -g -O0 -fpre-include=/usr/include/finclude/math-vector-fortran.h
REM seed 373676396 1583532300 186982137 632560693 120226593 1328110287 762383127 1826590411 345152383 188904094 536217389 333897189 921864461 1951640286 1604313863 1182526831 87303364 -748546478 -1337410604 2009527740 -1042307007 -1236146379 1047178348 1418220817 -1989534946 445653633 1667470431 2038964684 1558440598 -1001739647 61029615 1271803230 -1829047696
REM
CELL 1.54180   50.00000   50.00000   50.00000   90.00000   90.00000   90.00000
LATT -1
SFAC C  
C      1  0.5566320000000  0.4770940000000  0.4363810000000 1.0
C      1  0.4915680000000  0.5566060000000  0.4399930000000 1.0
C      1  0.4560500000000  0.4654350000000  0.4414570000000 1.0
C      1  0.5182740000000  0.5427410000000  0.5354820000000 1.0
C      1  0.4547900000000  0.4937520000000  0.5374160000000 1.0
C      1  0.5251030000000  0.4591920000000  0.5366830000000 1.0
C      1  0.5456600000000  0.4971630000000  0.5806090000000 1.0
C      1  0.4817460000000  0.5380330000000  0.5794250000000 1.0
C      1  0.4755340000000  0.4624960000000  0.5798170000000 1.0
C      1  0.4465230000000  0.4313740000000  0.4987050000000 1.0
C      1  0.5984190000000  0.4903960000000  0.4877530000000 1.0
C      1  0.4655170000000  0.5806010000000  0.4984760000000 1.0
C      1  0.5759840000000  0.4413460000000  0.4693190000000 1.0
C      1  0.5084870000000  0.5929840000000  0.4709760000000 1.0
C      1  0.4156010000000  0.4620770000000  0.4722460000000 1.0
C      1  0.5118540000000  0.4329510000000  0.4883610000000 1.0
C      1  0.5538200000000  0.5432240000000  0.4856830000000 1.0
C      1  0.4392920000000  0.5220900000000  0.4884460000000 1.0
C      1  0.5281070000000  0.4335690000000  0.4551310000000 1.0
C      1  0.5427470000000  0.5584420000000  0.4548940000000 1.0
C      1  0.4297460000000  0.5077860000000  0.4567950000000 1.0
C      1  0.5750720000000  0.5806100000000  0.4952530000000 1.0
C      1  0.3956650000000  0.5273680000000  0.4958200000000 1.0
C      1  0.5267380000000  0.3941100000000  0.4944420000000 1.0
C      1  0.4495570000000  0.5699970000000  0.4753630000000 1.0
C      1  0.4637830000000  0.4226170000000  0.4757560000000 1.0
C      1  0.5905000000000  0.5116870000000  0.4691580000000 1.0
C      1  0.4886480000000  0.4276140000000  0.5363810000000 1.0
C      1  0.5658920000000  0.5318730000000  0.5353040000000 1.0
C      1  0.4433530000000  0.5423720000000  0.5377090000000 1.0
C      1  0.5178300000000  0.5240260000000  0.4562220000000 1.0
C      1  0.4774600000000  0.5004670000000  0.4592080000000 1.0
C      1  0.5187370000000  0.4746860000000  0.4584310000000 1.0
C      1  0.4328160000000  0.4478170000000  0.5448510000000 1.0
C      1  0.5543050000000  0.4891220000000  0.5400600000000 1.0
C      1  0.4874640000000  0.5823920000000  0.5441270000000 1.0
C      1  0.5097890000000  0.4077820000000  0.5408490000000 1.0
C      1  0.5722310000000  0.5594140000000  0.5413450000000 1.0
C      1  0.4155970000000  0.5345810000000  0.5421700000000 1.0
C      1  0.4645390000000  0.5517460000000  0.4537110000000 1.0
C      1  0.4735620000000  0.4442910000000  0.4548540000000 1.0
C      1  0.5670100000000  0.5053260000000  0.4489110000000 1.0
C      1  0.5232150000000  0.4730260000000  0.5661030000000 1.0
C      1  0.5100440000000  0.5319380000000  0.5643140000000 1.0
C      1  0.4688680000000  0.4905540000000  0.5648340000000 1.0
C      1  0.5040330000000  0.4588600000000  0.5843500000000 1.0
C      1  0.5334130000000  0.5240790000000  0.5819630000000 1.0
C      1  0.4654830000000  0.5142050000000  0.5833560000000 1.0
C      1  0.5426750000000  0.5292300000000  0.5170830000000 1.0
C      1  0.4566560000000  0.5211730000000  0.5202250000000 1.0
C      1  0.5010410000000  0.4494010000000  0.5187440000000 1.0
C      1  0.5835900000000  0.5375290000000  0.4817470000000 1.0
C      1  0.4291570000000  0.5507560000000  0.4852970000000 1.0
C      1  0.4899340000000  0.4118630000000  0.4847720000000 1.0
C      1  0.5571620000000  0.4490430000000  0.4478480000000 1.0
C      1  0.5133190000000  0.5715950000000  0.4519030000000 1.0
C      1  0.4321710000000  0.4767080000000  0.4532160000000 1.0
C      1  0.5797920000000  0.5064970000000  0.5451560000000 1.0
C      1  0.4564860000000  0.5701150000000  0.5473180000000 1.0
C      1  0.4580870000000  0.4258600000000  0.5472500000000 1.0
C      1  0.5651520000000  0.4207660000000  0.4872550000000 1.0
C      1  0.5317200000000  0.5971940000000  0.4878860000000 1.0
C      1  0.4005110000000  0.4807870000000  0.4889660000000 1.0
C      1  0.4600780000000  0.4386070000000  0.5754230000000 1.0
C      1  0.5753110000000  0.4980770000000  0.5752770000000 1.0
C      1  0.4674540000000  0.5627450000000  0.5753780000000 1.0
C      1  0.4015880000000  0.5170740000000  0.5231550000000 1.0
C      1  0.5321760000000  0.4047610000000  0.5217530000000 1.0
C      1  0.5631720000000  0.5803200000000  0.5227120000000 1.0
C      1  0.5557420000000  0.5844680000000  0.4731440000000 1.0
C      1  0.4007190000000  0.5080630000000  0.4739740000000 1.0
C      1  0.5414080000000  0.4076270000000  0.4726230000000 1.0
C      1  0.4964210000000  0.4573990000000  0.4748170000000 1.0
C      1  0.5457160000000  0.5158620000000  0.4707260000000 1.0
C      1  0.4675520000000  0.5265930000000  0.4733570000000 1.0
C      1  0.4439510000000  0.4139110000000  0.5220830000000 1.0
C      1  0.5982760000000  0.4927310000000  0.5239590000000 1.0
C      1  0.4515690000000  0.5890340000000  0.5228840000000 1.0
C      1  0.5280640000000  0.4844780000000  0.4274250000000 1.0
C      1  0.5000540000000  0.5305750000000  0.4272700000000 1.0
C      1  0.4753350000000  0.4857920000000  0.4305740000000 1.0
C      1  0.5557370000000  0.4263710000000  0.5162440000000 1.0
C      1  0.5321380000000  0.5875010000000  0.5168520000000 1.0
C      1  0.4086670000000  0.4861830000000  0.5180090000000 1.0
C      1  0.5446270000000  0.4976690000000  0.4996810000000 1.0
C      1  0.4846120000000  0.5317580000000  0.4999590000000 1.0
C      1  0.4800200000000  0.4718220000000  0.5031330000000 1.0
C      1  0.4723850000000  0.5143690000000  0.4168240000000 1.0
C      1  0.5015480000000  0.4688770000000  0.4181470000000 1.0
C      1  0.5271570000000  0.5159400000000  0.4161020000000 1.0
C      1  0.5016150000000  0.4410860000000  0.4365420000000 1.0
C      1  0.5514860000000  0.5317520000000  0.4323710000000 1.0
C      1  0.4480290000000  0.5276630000000  0.4362610000000 1.0
C      1  0.5414880000000  0.4745800000000  0.4771660000000 1.0
C      1  0.5091400000000  0.5401300000000  0.4793880000000 1.0
C      1  0.4646240000000  0.4845390000000  0.4786620000000 1.0
C      1  0.4521540000000  0.4585720000000  0.5091550000000 1.0
C      1  0.5729380000000  0.4758840000000  0.5048840000000 1.0
C      1  0.4868880000000  0.5622740000000  0.5072500000000 1.0
C      1  0.4340750000000  0.4732390000000  0.5285260000000 1.0
C      1  0.5544400000000  0.4565900000000  0.5259660000000 1.0
C      1  0.5088740000000  0.5702030000000  0.5267470000000 1.0
C      1  0.4927110000000  0.5005820000000  0.5138980000000 1.0
C      1  0.5003420000000  0.4986900000000  0.5658100000000 1.0
C      1  0.5038870000000  0.4986870000000  0.5976790000000 1.0
C      1  0.4823690000000  0.4950780000000  0.6167180000000 1.0
C      1  0.5129750000000  0.5007320000000  0.4934100000000 1.0
C      1  0.5000680000000  0.4991760000000  0.3994110000000 1.0
C      1  0.4997270000000  0.4980380000000  0.3702800000000 1.0
C      1  0.5053220000000  0.4997540000000  0.4656840000000 1.0
C      1  0.5099420000000  0.5001270000000  0.5368970000000 1.0
END
