TITL C-862128-1543-992 -1.09183914145188e-06 125000 -864.783421426858 0 0 136 (T23) n - 1
REM
REM in /home/nfs/bkarasulu/CARBON/AIRSS/Generating-Clusters/TERSOFF/Higher-Symm/FIRE-HFTN
REM
REM
REM
REM
REM
REM ./C.cell (b20cbc046b6831c77cfcea5457e17084)
REM AIRSS Version 0.9.1 bugfix July 2018 build 013d7b7c2542+ Fri, 06 Jul 2018 19:26:36 +0100
REM compiler GCC version 9.2.1 20190827 (Red Hat 9.2.1-1)
REM options -cpp -mtune=generic -march=x86-64 -g -O0 -fpre-include=/usr/include/finclude/math-vector-fortran.h
REM seed -1323489043 -1607696196 103082310 -1794899419 -1970080398 2041873513 1281440889 -281285646 -238008707 1664275045 1312717730 1101729863 -339621150 -454961527 298065319 1756865657 694128479 286706482 -2015168376 1970633111 -107178347 1284976395 930624715 1284520032 -130390274 -1810090091 -1866804889 -1449737276 -1068111061 -1848893408 -1382249630 257146605 861885098
REM
CELL 1.54180   50.00000   50.00000   50.00000   90.00000   90.00000   90.00000
LATT -1
SFAC C  
C      1  0.5277150000000  0.4442810000000  0.5955870000000 1.0
C      1  0.5956020000000  0.5272630000000  0.4447390000000 1.0
C      1  0.4447420000000  0.5951390000000  0.5277100000000 1.0
C      1  0.5277220000000  0.5557410000000  0.4053330000000 1.0
C      1  0.4732170000000  0.5557320000000  0.5955900000000 1.0
C      1  0.4732260000000  0.4442900000000  0.4053260000000 1.0
C      1  0.5955980000000  0.4727610000000  0.5561870000000 1.0
C      1  0.4053430000000  0.4727640000000  0.4447290000000 1.0
C      1  0.4053380000000  0.5272560000000  0.5561820000000 1.0
C      1  0.4447470000000  0.4048820000000  0.4732040000000 1.0
C      1  0.5561960000000  0.4048810000000  0.5277050000000 1.0
C      1  0.5561950000000  0.5951430000000  0.4732170000000 1.0
C      1  0.5148580000000  0.5042160000000  0.3847710000000 1.0
C      1  0.3847810000000  0.5143920000000  0.5046540000000 1.0
C      1  0.5046700000000  0.3843220000000  0.5148370000000 1.0
C      1  0.5148490000000  0.4958060000000  0.6161480000000 1.0
C      1  0.4860920000000  0.4958170000000  0.3847700000000 1.0
C      1  0.4860820000000  0.5042040000000  0.6161470000000 1.0
C      1  0.3847820000000  0.4856270000000  0.4962550000000 1.0
C      1  0.6161590000000  0.4856290000000  0.5046620000000 1.0
C      1  0.6161590000000  0.5143960000000  0.4962650000000 1.0
C      1  0.5046680000000  0.6157000000000  0.4860820000000 1.0
C      1  0.4962690000000  0.6156990000000  0.5148480000000 1.0
C      1  0.4962730000000  0.3843230000000  0.4860700000000 1.0
C      1  0.5804660000000  0.5055780000000  0.4327430000000 1.0
C      1  0.4327490000000  0.5800040000000  0.5060230000000 1.0
C      1  0.5060310000000  0.4322870000000  0.5804500000000 1.0
C      1  0.5804610000000  0.4944460000000  0.5681820000000 1.0
C      1  0.4204790000000  0.4944500000000  0.4327360000000 1.0
C      1  0.4204740000000  0.5055700000000  0.5681760000000 1.0
C      1  0.4327510000000  0.4200170000000  0.4948900000000 1.0
C      1  0.5681910000000  0.4200180000000  0.5060210000000 1.0
C      1  0.5681890000000  0.5800060000000  0.4949030000000 1.0
C      1  0.5060350000000  0.5677350000000  0.4204690000000 1.0
C      1  0.4949030000000  0.5677270000000  0.5804560000000 1.0
C      1  0.4949110000000  0.4322950000000  0.4204620000000 1.0
C      1  0.5581030000000  0.5866640000000  0.5215390000000 1.0
C      1  0.5215390000000  0.5576420000000  0.5871160000000 1.0
C      1  0.5871210000000  0.5210830000000  0.5580990000000 1.0
C      1  0.5581070000000  0.4133590000000  0.4793840000000 1.0
C      1  0.4428350000000  0.4133560000000  0.5215260000000 1.0
C      1  0.4428350000000  0.5866650000000  0.4793870000000 1.0
C      1  0.5215480000000  0.4423800000000  0.4138040000000 1.0
C      1  0.4793940000000  0.4423710000000  0.5871090000000 1.0
C      1  0.4793990000000  0.5576500000000  0.4138080000000 1.0
C      1  0.5871260000000  0.4789410000000  0.4428260000000 1.0
C      1  0.4138150000000  0.4789340000000  0.5580900000000 1.0
C      1  0.4138190000000  0.5210860000000  0.4428220000000 1.0
C      1  0.4740380000000  0.5468380000000  0.5073330000000 1.0
C      1  0.5073410000000  0.4735770000000  0.5472850000000 1.0
C      1  0.5472980000000  0.5068850000000  0.4740300000000 1.0
C      1  0.4740390000000  0.4531840000000  0.4935830000000 1.0
C      1  0.5269020000000  0.4531840000000  0.5073300000000 1.0
C      1  0.5269010000000  0.5468390000000  0.4935900000000 1.0
C      1  0.5073440000000  0.5264450000000  0.4536330000000 1.0
C      1  0.4935960000000  0.5264400000000  0.5472880000000 1.0
C      1  0.4936000000000  0.4735820000000  0.4536300000000 1.0
C      1  0.5472970000000  0.4931380000000  0.5268920000000 1.0
C      1  0.4536440000000  0.4931390000000  0.4740250000000 1.0
C      1  0.4536420000000  0.5068820000000  0.5268890000000 1.0
C      1  0.5507520000000  0.4864910000000  0.5770620000000 1.0
C      1  0.5770720000000  0.5502970000000  0.4869480000000 1.0
C      1  0.4869500000000  0.5766100000000  0.5507470000000 1.0
C      1  0.5507570000000  0.5135320000000  0.4238600000000 1.0
C      1  0.4501820000000  0.5135240000000  0.5770600000000 1.0
C      1  0.4501890000000  0.4864970000000  0.4238540000000 1.0
C      1  0.5770720000000  0.4497270000000  0.5139770000000 1.0
C      1  0.4238690000000  0.4497260000000  0.4869370000000 1.0
C      1  0.4238670000000  0.5502940000000  0.5139750000000 1.0
C      1  0.4869560000000  0.4234110000000  0.4501700000000 1.0
C      1  0.5139860000000  0.4234070000000  0.5507400000000 1.0
C      1  0.5139880000000  0.5766160000000  0.4501790000000 1.0
C      1  0.5308950000000  0.5085590000000  0.4499300000000 1.0
C      1  0.4499390000000  0.5304330000000  0.5090040000000 1.0
C      1  0.5090150000000  0.4494790000000  0.5308800000000 1.0
C      1  0.5308910000000  0.4914630000000  0.5509900000000 1.0
C      1  0.4700490000000  0.4914680000000  0.4499270000000 1.0
C      1  0.4700450000000  0.5085540000000  0.5509890000000 1.0
C      1  0.4499400000000  0.4695880000000  0.4919100000000 1.0
C      1  0.5510000000000  0.4695880000000  0.5090050000000 1.0
C      1  0.5510000000000  0.5304350000000  0.4919170000000 1.0
C      1  0.5090160000000  0.5505430000000  0.4700390000000 1.0
C      1  0.4919230000000  0.5505400000000  0.5308840000000 1.0
C      1  0.4919260000000  0.4494820000000  0.4700330000000 1.0
C      1  0.4186350000000  0.5496790000000  0.5441760000000 1.0
C      1  0.5441870000000  0.4181770000000  0.5501280000000 1.0
C      1  0.5501430000000  0.5437330000000  0.4186310000000 1.0
C      1  0.4186400000000  0.4503410000000  0.4567360000000 1.0
C      1  0.5823010000000  0.4503390000000  0.5441770000000 1.0
C      1  0.5823040000000  0.5496850000000  0.4567470000000 1.0
C      1  0.5441890000000  0.5818460000000  0.4507940000000 1.0
C      1  0.4567500000000  0.5818410000000  0.5501320000000 1.0
C      1  0.4567550000000  0.4181800000000  0.4507830000000 1.0
C      1  0.5501380000000  0.4562900000000  0.5822910000000 1.0
C      1  0.4508030000000  0.4562970000000  0.4186230000000 1.0
C      1  0.4507960000000  0.5437240000000  0.5822920000000 1.0
C      1  0.5302080000000  0.5306990000000  0.5805280000000 1.0
C      1  0.5805350000000  0.5297520000000  0.5311550000000 1.0
C      1  0.5311590000000  0.5800760000000  0.5302050000000 1.0
C      1  0.5302150000000  0.4693240000000  0.4203920000000 1.0
C      1  0.4707260000000  0.4693150000000  0.5805230000000 1.0
C      1  0.4707320000000  0.5307060000000  0.4203930000000 1.0
C      1  0.5805380000000  0.4702720000000  0.4697690000000 1.0
C      1  0.4204030000000  0.4702670000000  0.5311460000000 1.0
C      1  0.4204050000000  0.5297530000000  0.4697660000000 1.0
C      1  0.5311640000000  0.4199460000000  0.4707150000000 1.0
C      1  0.4697790000000  0.4199430000000  0.5301950000000 1.0
C      1  0.4697790000000  0.5800780000000  0.4707210000000 1.0
C      1  0.4820070000000  0.4435390000000  0.5195680000000 1.0
C      1  0.5195850000000  0.4815510000000  0.4439880000000 1.0
C      1  0.4440000000000  0.5191240000000  0.4819950000000 1.0
C      1  0.4820070000000  0.5564830000000  0.4813490000000 1.0
C      1  0.5189320000000  0.5564810000000  0.5195750000000 1.0
C      1  0.5189350000000  0.4435410000000  0.4813450000000 1.0
C      1  0.5195800000000  0.5184720000000  0.5569320000000 1.0
C      1  0.4813600000000  0.5184770000000  0.4439880000000 1.0
C      1  0.4813560000000  0.4815450000000  0.5569280000000 1.0
C      1  0.4439990000000  0.4808970000000  0.5189190000000 1.0
C      1  0.5569420000000  0.4809000000000  0.4819970000000 1.0
C      1  0.5569400000000  0.5191230000000  0.5189250000000 1.0
C      1  0.4940100000000  0.4025480000000  0.5360690000000 1.0
C      1  0.5360890000000  0.4935570000000  0.4029990000000 1.0
C      1  0.4030080000000  0.5356250000000  0.4939970000000 1.0
C      1  0.4940110000000  0.5974740000000  0.4648480000000 1.0
C      1  0.5069270000000  0.5974710000000  0.5360790000000 1.0
C      1  0.5069320000000  0.4025510000000  0.4648390000000 1.0
C      1  0.5360810000000  0.5064660000000  0.5979220000000 1.0
C      1  0.4648590000000  0.5064750000000  0.4029970000000 1.0
C      1  0.4648510000000  0.4935460000000  0.5979190000000 1.0
C      1  0.4030090000000  0.4643940000000  0.5069130000000 1.0
C      1  0.5979320000000  0.4643970000000  0.4940020000000 1.0
C      1  0.5979310000000  0.5356270000000  0.5069240000000 1.0
C      1  0.5614160000000  0.5609590000000  0.4395200000000 1.0
C      1  0.4395230000000  0.5609510000000  0.5614040000000 1.0
C      1  0.5614120000000  0.4390650000000  0.5614030000000 1.0
C      1  0.4395290000000  0.4390690000000  0.4395100000000 1.0
END
