TITL C-862128-1543-1422 -0.000184482446598148 125000 -518.280573533277 0 0 96 (C1) n - 1
REM
REM in /home/nfs/bkarasulu/CARBON/AIRSS/Generating-Clusters/TERSOFF/Higher-Symm/FIRE-HFTN
REM
REM
REM
REM
REM
REM ./C.cell (b20cbc046b6831c77cfcea5457e17084)
REM AIRSS Version 0.9.1 bugfix July 2018 build 013d7b7c2542+ Fri, 06 Jul 2018 19:26:36 +0100
REM compiler GCC version 9.2.1 20190827 (Red Hat 9.2.1-1)
REM options -cpp -mtune=generic -march=x86-64 -g -O0 -fpre-include=/usr/include/finclude/math-vector-fortran.h
REM seed -1015836944 -56194903 1116979137 -279307473 1559613465 1335924841 1753877790 -1362611260 -1512112654 -389954816 -2132704118 1030908599 1189447221 715511123 1317143639 198184455 1044430554 1496571254 -38100028 -1873959548 -576340756 803278861 2039250201 115175364 1775300048 210623529 1519239083 999660388 -680316875 1871394873 1922688838 -1207223445 -1759765621
REM
CELL 1.54180   50.00000   50.00000   50.00000   90.00000   90.00000   90.00000
LATT -1
SFAC C  
C      1  0.4836500000000  0.5224980000000  0.5886380000000 1.0
C      1  0.5157040000000  0.4777760000000  0.5887030000000 1.0
C      1  0.4831000000000  0.5125260000000  0.4149940000000 1.0
C      1  0.5164140000000  0.4870080000000  0.4150480000000 1.0
C      1  0.5161350000000  0.5131610000000  0.5860140000000 1.0
C      1  0.4832180000000  0.4870960000000  0.5860240000000 1.0
C      1  0.5153880000000  0.5221330000000  0.4120540000000 1.0
C      1  0.4840710000000  0.4773820000000  0.4122160000000 1.0
C      1  0.5269830000000  0.5599450000000  0.5476880000000 1.0
C      1  0.4724160000000  0.4397320000000  0.5478620000000 1.0
C      1  0.5273950000000  0.5589280000000  0.4548710000000 1.0
C      1  0.4721500000000  0.4415940000000  0.4553780000000 1.0
C      1  0.4719180000000  0.5606570000000  0.5450000000000 1.0
C      1  0.5276090000000  0.4387700000000  0.5452000000000 1.0
C      1  0.4724440000000  0.5582340000000  0.4519580000000 1.0
C      1  0.5269290000000  0.4422520000000  0.4522210000000 1.0
C      1  0.4294760000000  0.5288430000000  0.5352000000000 1.0
C      1  0.5700520000000  0.4715020000000  0.5353630000000 1.0
C      1  0.4296930000000  0.5265770000000  0.4616990000000 1.0
C      1  0.5698230000000  0.4730340000000  0.4618320000000 1.0
C      1  0.5700760000000  0.5266700000000  0.5368970000000 1.0
C      1  0.4292230000000  0.4737090000000  0.5370350000000 1.0
C      1  0.5698400000000  0.5286130000000  0.4636010000000 1.0
C      1  0.4295440000000  0.4710330000000  0.4638000000000 1.0
C      1  0.4541020000000  0.5224690000000  0.4151150000000 1.0
C      1  0.5454710000000  0.4771740000000  0.4151190000000 1.0
C      1  0.4530620000000  0.5266770000000  0.5827340000000 1.0
C      1  0.5462800000000  0.4735420000000  0.5827450000000 1.0
C      1  0.5460450000000  0.5262830000000  0.4167610000000 1.0
C      1  0.4533750000000  0.4733420000000  0.4168740000000 1.0
C      1  0.5455550000000  0.5228460000000  0.5841310000000 1.0
C      1  0.4538590000000  0.4773800000000  0.5841650000000 1.0
C      1  0.4702800000000  0.5511990000000  0.5151560000000 1.0
C      1  0.5292360000000  0.4493260000000  0.5157010000000 1.0
C      1  0.4665850000000  0.5502190000000  0.4818210000000 1.0
C      1  0.5327290000000  0.4492110000000  0.4823180000000 1.0
C      1  0.5294100000000  0.5491760000000  0.5183960000000 1.0
C      1  0.4699650000000  0.4513510000000  0.5189180000000 1.0
C      1  0.5323150000000  0.5526950000000  0.4852540000000 1.0
C      1  0.4673320000000  0.4467320000000  0.4859110000000 1.0
C      1  0.4493760000000  0.5373950000000  0.4397300000000 1.0
C      1  0.5501990000000  0.4622260000000  0.4397200000000 1.0
C      1  0.4487020000000  0.5405860000000  0.5575750000000 1.0
C      1  0.5507010000000  0.4596480000000  0.5575930000000 1.0
C      1  0.5503240000000  0.5396850000000  0.4421010000000 1.0
C      1  0.4490770000000  0.4599790000000  0.4422440000000 1.0
C      1  0.5504400000000  0.5381970000000  0.5597300000000 1.0
C      1  0.4489950000000  0.4621140000000  0.5597170000000 1.0
C      1  0.5153590000000  0.5228870000000  0.5216660000000 1.0
C      1  0.4840870000000  0.4774540000000  0.5219230000000 1.0
C      1  0.5162570000000  0.5256330000000  0.4797740000000 1.0
C      1  0.4832580000000  0.4740180000000  0.4800800000000 1.0
C      1  0.4838270000000  0.5244610000000  0.5207450000000 1.0
C      1  0.5156450000000  0.4758870000000  0.5210080000000 1.0
C      1  0.4828800000000  0.5236760000000  0.4787720000000 1.0
C      1  0.5165080000000  0.4759780000000  0.4790260000000 1.0
C      1  0.5169630000000  0.5139010000000  0.5524830000000 1.0
C      1  0.4826530000000  0.4867700000000  0.5525940000000 1.0
C      1  0.5148110000000  0.5180680000000  0.4479280000000 1.0
C      1  0.4847160000000  0.4813670000000  0.4481150000000 1.0
C      1  0.4839960000000  0.5183290000000  0.5528660000000 1.0
C      1  0.5156540000000  0.4823210000000  0.5529890000000 1.0
C      1  0.4824450000000  0.5130160000000  0.4483950000000 1.0
C      1  0.5170280000000  0.4864110000000  0.4485120000000 1.0
C      1  0.4394750000000  0.5468970000000  0.5136910000000 1.0
C      1  0.5599880000000  0.4533900000000  0.5139570000000 1.0
C      1  0.4338090000000  0.5471270000000  0.4833540000000 1.0
C      1  0.5655190000000  0.4526070000000  0.4835800000000 1.0
C      1  0.5597160000000  0.5453760000000  0.5162020000000 1.0
C      1  0.4397440000000  0.4550000000000  0.5164500000000 1.0
C      1  0.5654910000000  0.5482180000000  0.4860560000000 1.0
C      1  0.4340590000000  0.4515560000000  0.4863400000000 1.0
C      1  0.5004470000000  0.5988020000000  0.5263330000000 1.0
C      1  0.4988760000000  0.5969020000000  0.4734260000000 1.0
C      1  0.5005480000000  0.4026070000000  0.4709370000000 1.0
C      1  0.4986020000000  0.4018920000000  0.5238640000000 1.0
C      1  0.4998510000000  0.5739150000000  0.4540190000000 1.0
C      1  0.4997810000000  0.4237370000000  0.5444960000000 1.0
C      1  0.4994780000000  0.4266000000000  0.4528040000000 1.0
C      1  0.4995190000000  0.5759240000000  0.5458030000000 1.0
C      1  0.5786630000000  0.5006070000000  0.4729250000000 1.0
C      1  0.4202390000000  0.5010060000000  0.5255580000000 1.0
C      1  0.5791590000000  0.4992950000000  0.5255600000000 1.0
C      1  0.4207720000000  0.4991220000000  0.4729500000000 1.0
C      1  0.4381420000000  0.5020010000000  0.5881880000000 1.0
C      1  0.5610480000000  0.5018000000000  0.4107830000000 1.0
C      1  0.5612320000000  0.4982090000000  0.5881770000000 1.0
C      1  0.4384590000000  0.4978630000000  0.4108270000000 1.0
C      1  0.5131260000000  0.4022560000000  0.4979040000000 1.0
C      1  0.5132120000000  0.5977360000000  0.4994840000000 1.0
C      1  0.4746760000000  0.4999460000000  0.5002440000000 1.0
C      1  0.5247830000000  0.5000620000000  0.5002280000000 1.0
C      1  0.6228950000000  0.4998020000000  0.4988730000000 1.0
C      1  0.3765220000000  0.5003740000000  0.4988470000000 1.0
C      1  0.4056180000000  0.5001700000000  0.4991370000000 1.0
C      1  0.5937980000000  0.4999000000000  0.4991380000000 1.0
END
