TITL C-862504-1170-269 6.02548024495495e-06 125000 -643.978011819588 0 0 102 (C4h) n - 1
REM
REM in /home/nfs/bkarasulu/CARBON/AIRSS/Generating-Clusters/TERSOFF/Higher-Symm/FIRE-HFTN
REM
REM
REM
REM
REM
REM ./C.cell (b20cbc046b6831c77cfcea5457e17084)
REM AIRSS Version 0.9.1 bugfix July 2018 build 013d7b7c2542+ Fri, 06 Jul 2018 19:26:36 +0100
REM compiler GCC version 9.2.1 20190827 (Red Hat 9.2.1-1)
REM options -cpp -mtune=generic -march=x86-64 -g -O0 -fpre-include=/usr/include/finclude/math-vector-fortran.h
REM seed 1450693466 -367414769 1797230646 1648728359 -1168985972 -1245128394 -648228451 1828388383 41682581 -2072286745 -1603861411 -612096841 859468741 746619841 2006261118 -1200706977 1259780383 391248658 -1643197270 1631217490 1592421539 720025738 -935442073 -1248405780 1340128270 1937631716 874042927 -1079062319 -1449604065 1130133595 445265044 1682082520 288628019
REM
CELL 1.54180   50.00000   50.00000   50.00000   90.00000   90.00000   90.00000
LATT -1
SFAC C  
C      1  0.5697260000000  0.5263740000000  0.4560520000000 1.0
C      1  0.5236550000000  0.4528440000000  0.5698540000000 1.0
C      1  0.4520780000000  0.5686920000000  0.5242150000000 1.0
C      1  0.4303980000000  0.5262310000000  0.5443750000000 1.0
C      1  0.4342120000000  0.4742690000000  0.4509320000000 1.0
C      1  0.5660890000000  0.4745980000000  0.5496050000000 1.0
C      1  0.4767190000000  0.4526160000000  0.4307290000000 1.0
C      1  0.4720360000000  0.5467490000000  0.5659880000000 1.0
C      1  0.5280180000000  0.5467050000000  0.4343950000000 1.0
C      1  0.5479010000000  0.5688040000000  0.4761210000000 1.0
C      1  0.5454090000000  0.4329070000000  0.5277500000000 1.0
C      1  0.4550340000000  0.4326950000000  0.4728760000000 1.0
C      1  0.4507260000000  0.5263530000000  0.5661520000000 1.0
C      1  0.5659810000000  0.4542150000000  0.5282810000000 1.0
C      1  0.5274280000000  0.5679970000000  0.4549810000000 1.0
C      1  0.5493980000000  0.5263800000000  0.4342750000000 1.0
C      1  0.4559890000000  0.4743480000000  0.4306050000000 1.0
C      1  0.5443110000000  0.4746470000000  0.5699320000000 1.0
C      1  0.4343890000000  0.4539310000000  0.4722990000000 1.0
C      1  0.5695870000000  0.5481640000000  0.4767220000000 1.0
C      1  0.4304620000000  0.5479770000000  0.5236580000000 1.0
C      1  0.4725540000000  0.5680000000000  0.5453560000000 1.0
C      1  0.5242700000000  0.4321440000000  0.5482250000000 1.0
C      1  0.4761750000000  0.4319600000000  0.4524030000000 1.0
C      1  0.4802880000000  0.5413960000000  0.5093090000000 1.0
C      1  0.5293750000000  0.5004100000000  0.4628360000000 1.0
C      1  0.5174230000000  0.4794870000000  0.5380590000000 1.0
C      1  0.5197840000000  0.5414440000000  0.4910850000000 1.0
C      1  0.5199230000000  0.4594040000000  0.4911730000000 1.0
C      1  0.4804280000000  0.4593560000000  0.5093960000000 1.0
C      1  0.4708370000000  0.5003900000000  0.5376450000000 1.0
C      1  0.4496240000000  0.5003100000000  0.4967700000000 1.0
C      1  0.5505880000000  0.5004900000000  0.5037120000000 1.0
C      1  0.4828610000000  0.4793480000000  0.4624670000000 1.0
C      1  0.5173510000000  0.5214520000000  0.5380140000000 1.0
C      1  0.4827890000000  0.5213130000000  0.4624230000000 1.0
C      1  0.4909240000000  0.5413830000000  0.4804490000000 1.0
C      1  0.4966350000000  0.5004480000000  0.5507230000000 1.0
C      1  0.5379370000000  0.4794630000000  0.4829820000000 1.0
C      1  0.5091480000000  0.5414560000000  0.5199450000000 1.0
C      1  0.5092870000000  0.4594170000000  0.5200320000000 1.0
C      1  0.4910640000000  0.4593440000000  0.4805370000000 1.0
C      1  0.5035770000000  0.5003520000000  0.4497590000000 1.0
C      1  0.4627020000000  0.5003050000000  0.4709720000000 1.0
C      1  0.5375100000000  0.5004950000000  0.5295100000000 1.0
C      1  0.4623460000000  0.4793720000000  0.5175440000000 1.0
C      1  0.5378660000000  0.5214280000000  0.4829370000000 1.0
C      1  0.4622750000000  0.5213360000000  0.5175000000000 1.0
C      1  0.4230940000000  0.5356350000000  0.4973820000000 1.0
C      1  0.5394870000000  0.5003840000000  0.4221180000000 1.0
C      1  0.4987450000000  0.4219960000000  0.5357470000000 1.0
C      1  0.5769970000000  0.5359030000000  0.5030250000000 1.0
C      1  0.5771170000000  0.4651650000000  0.5031000000000 1.0
C      1  0.4232150000000  0.4648970000000  0.4974570000000 1.0
C      1  0.4607240000000  0.5004160000000  0.5783640000000 1.0
C      1  0.4681650000000  0.5002620000000  0.4220860000000 1.0
C      1  0.5320460000000  0.5005380000000  0.5783960000000 1.0
C      1  0.5017340000000  0.4219260000000  0.4649020000000 1.0
C      1  0.4984780000000  0.5788740000000  0.5355800000000 1.0
C      1  0.5014670000000  0.5788030000000  0.4647350000000 1.0
C      1  0.5028670000000  0.5356910000000  0.4232520000000 1.0
C      1  0.4219510000000  0.5003010000000  0.5321820000000 1.0
C      1  0.5356620000000  0.4220230000000  0.5018190000000 1.0
C      1  0.4972240000000  0.5358460000000  0.5771550000000 1.0
C      1  0.4973440000000  0.4651080000000  0.5772300000000 1.0
C      1  0.5029880000000  0.4649540000000  0.4233270000000 1.0
C      1  0.5782610000000  0.5004990000000  0.4683000000000 1.0
C      1  0.4219830000000  0.5002250000000  0.4608590000000 1.0
C      1  0.5782290000000  0.5005750000000  0.5396220000000 1.0
C      1  0.4648170000000  0.4218990000000  0.4988300000000 1.0
C      1  0.5353950000000  0.5789010000000  0.5016520000000 1.0
C      1  0.4645500000000  0.5787770000000  0.4986630000000 1.0
C      1  0.5234930000000  0.5481840000000  0.5697520000000 1.0
C      1  0.5451780000000  0.5681050000000  0.5276060000000 1.0
C      1  0.5660000000000  0.5265310000000  0.5495490000000 1.0
C      1  0.4765570000000  0.5479560000000  0.4306280000000 1.0
C      1  0.4721940000000  0.4540950000000  0.5660870000000 1.0
C      1  0.5281760000000  0.4540500000000  0.4344940000000 1.0
C      1  0.4548030000000  0.5678930000000  0.4727320000000 1.0
C      1  0.4523110000000  0.4319960000000  0.5243610000000 1.0
C      1  0.5481330000000  0.4321080000000  0.4762660000000 1.0
C      1  0.4341230000000  0.5262020000000  0.4508770000000 1.0
C      1  0.4304860000000  0.4744260000000  0.5444300000000 1.0
C      1  0.5698140000000  0.4745690000000  0.4561070000000 1.0
C      1  0.5658230000000  0.5468690000000  0.5281820000000 1.0
C      1  0.5240370000000  0.5688400000000  0.5480790000000 1.0
C      1  0.5442230000000  0.5264520000000  0.5698770000000 1.0
C      1  0.4342310000000  0.5465850000000  0.4722010000000 1.0
C      1  0.5697490000000  0.4528230000000  0.4768240000000 1.0
C      1  0.4306250000000  0.4526360000000  0.5237600000000 1.0
C      1  0.4759420000000  0.5686560000000  0.4522570000000 1.0
C      1  0.5276580000000  0.4328000000000  0.4551250000000 1.0
C      1  0.4727840000000  0.4328030000000  0.5455000000000 1.0
C      1  0.4559010000000  0.5261530000000  0.4305490000000 1.0
C      1  0.5494860000000  0.4744470000000  0.4343300000000 1.0
C      1  0.4508140000000  0.4744200000000  0.5662070000000 1.0
C      1  0.5036700000000  0.5003180000000  0.4174190000000 1.0
C      1  0.4965420000000  0.5004820000000  0.5830620000000 1.0
C      1  0.4999610000000  0.5854460000000  0.5001500000000 1.0
C      1  0.5002510000000  0.4153540000000  0.5003310000000 1.0
C      1  0.5829270000000  0.5005450000000  0.5038040000000 1.0
C      1  0.4172850000000  0.5002550000000  0.4966770000000 1.0
END
