TITL C-862130-1496-439 12.8192064695117 125000 -1072.31340650762 0 0 187 (C1) n - 1
REM
REM in /home/nfs/bkarasulu/CARBON/AIRSS/Generating-Clusters/TERSOFF/Higher-Symm/FIRE-HFTN
REM
REM
REM
REM
REM
REM ./C.cell (b20cbc046b6831c77cfcea5457e17084)
REM AIRSS Version 0.9.1 bugfix July 2018 build 013d7b7c2542+ Fri, 06 Jul 2018 19:26:36 +0100
REM compiler GCC version 9.2.1 20190827 (Red Hat 9.2.1-1)
REM options -cpp -mtune=generic -march=x86-64 -g -O0 -fpre-include=/usr/include/finclude/math-vector-fortran.h
REM seed 1927893335 -1897945870 -1320113813 -633272681 -1291580294 204876973 938610256 1936358768 -390408374 500198546 1136139912 -561656629 -1643151652 -244131144 445985580 -1247384693 1500381081 -862752478 -1243453974 74637917 -1420461087 -3560843 1330911734 1341822862 1865870877 -1662805522 -116392199 709911377 -1487696265 -950671278 -421649046 2119542346 -278608317
REM
CELL 1.54180   50.00000   50.00000   50.00000   90.00000   90.00000   90.00000
LATT -1
SFAC C  
C      1  0.6069330000000  0.4516290000000  0.4542650000000 1.0
C      1  0.5289220000000  0.5172390000000  0.5159910000000 1.0
C      1  0.4777720000000  0.5932790000000  0.5167350000000 1.0
C      1  0.4289770000000  0.5135340000000  0.6013120000000 1.0
C      1  0.5328490000000  0.4340580000000  0.5546310000000 1.0
C      1  0.5481050000000  0.4247150000000  0.5074090000000 1.0
C      1  0.4791620000000  0.5685220000000  0.4804670000000 1.0
C      1  0.4608660000000  0.5255840000000  0.5943160000000 1.0
C      1  0.5055950000000  0.3838420000000  0.5001990000000 1.0
C      1  0.6157800000000  0.4523660000000  0.5297260000000 1.0
C      1  0.4636860000000  0.4728480000000  0.5859810000000 1.0
C      1  0.4992680000000  0.4976680000000  0.4507990000000 1.0
C      1  0.5601100000000  0.3981150000000  0.5127340000000 1.0
C      1  0.6082870000000  0.5200490000000  0.4894840000000 1.0
C      1  0.4028690000000  0.4525580000000  0.5442110000000 1.0
C      1  0.5057920000000  0.5056980000000  0.5808390000000 1.0
C      1  0.4471770000000  0.6128570000000  0.5628130000000 1.0
C      1  0.5199940000000  0.4269120000000  0.6007410000000 1.0
C      1  0.5028700000000  0.5684390000000  0.3881560000000 1.0
C      1  0.4708120000000  0.4427160000000  0.5870970000000 1.0
C      1  0.5440230000000  0.4318820000000  0.4804800000000 1.0
C      1  0.4849770000000  0.5096670000000  0.5357010000000 1.0
C      1  0.5491460000000  0.5236620000000  0.4533830000000 1.0
C      1  0.4067400000000  0.4692390000000  0.4514030000000 1.0
C      1  0.5506750000000  0.5589560000000  0.4760740000000 1.0
C      1  0.4387370000000  0.4355720000000  0.5226790000000 1.0
C      1  0.5340990000000  0.5510590000000  0.5730220000000 1.0
C      1  0.4117710000000  0.4593560000000  0.5968020000000 1.0
C      1  0.5476850000000  0.5962460000000  0.5339890000000 1.0
C      1  0.5321520000000  0.5461960000000  0.5224200000000 1.0
C      1  0.4593560000000  0.3968150000000  0.4597440000000 1.0
C      1  0.4509860000000  0.5724820000000  0.4166040000000 1.0
C      1  0.4702270000000  0.5044460000000  0.3688900000000 1.0
C      1  0.4063770000000  0.4853790000000  0.4751960000000 1.0
C      1  0.4930920000000  0.5415620000000  0.6301850000000 1.0
C      1  0.6024160000000  0.4202850000000  0.5005270000000 1.0
C      1  0.5150380000000  0.5215840000000  0.4157710000000 1.0
C      1  0.4303890000000  0.4628490000000  0.4363130000000 1.0
C      1  0.4733600000000  0.5165580000000  0.5079390000000 1.0
C      1  0.4672380000000  0.5620550000000  0.5712760000000 1.0
C      1  0.5554970000000  0.5010310000000  0.4147490000000 1.0
C      1  0.5466950000000  0.4754480000000  0.3710440000000 1.0
C      1  0.4851610000000  0.4914040000000  0.5964820000000 1.0
C      1  0.4993500000000  0.4148640000000  0.4624690000000 1.0
C      1  0.4246690000000  0.5073780000000  0.4806300000000 1.0
C      1  0.5638490000000  0.4518990000000  0.4702770000000 1.0
C      1  0.4440970000000  0.5045400000000  0.5032850000000 1.0
C      1  0.4906570000000  0.4302670000000  0.6057990000000 1.0
C      1  0.4643420000000  0.4388330000000  0.4162010000000 1.0
C      1  0.4401900000000  0.4351040000000  0.4332290000000 1.0
C      1  0.4527720000000  0.5527510000000  0.3938760000000 1.0
C      1  0.5637730000000  0.4906670000000  0.3886640000000 1.0
C      1  0.4465310000000  0.4783610000000  0.5547000000000 1.0
C      1  0.5267900000000  0.5906730000000  0.4270420000000 1.0
C      1  0.5677750000000  0.5742120000000  0.5349860000000 1.0
C      1  0.4312840000000  0.5672910000000  0.4384660000000 1.0
C      1  0.5992730000000  0.5715060000000  0.4654180000000 1.0
C      1  0.5193030000000  0.4476580000000  0.4013990000000 1.0
C      1  0.4297540000000  0.5783270000000  0.4687940000000 1.0
C      1  0.4868690000000  0.5382930000000  0.6583250000000 1.0
C      1  0.4845400000000  0.5191780000000  0.4179110000000 1.0
C      1  0.5350370000000  0.3863790000000  0.5520250000000 1.0
C      1  0.5058320000000  0.4541210000000  0.4280790000000 1.0
C      1  0.5146830000000  0.5610770000000  0.5502790000000 1.0
C      1  0.4544570000000  0.5875780000000  0.4822750000000 1.0
C      1  0.4388150000000  0.5553810000000  0.5715030000000 1.0
C      1  0.5803080000000  0.4714930000000  0.4952170000000 1.0
C      1  0.3980780000000  0.5001790000000  0.5582160000000 1.0
C      1  0.5621560000000  0.3905790000000  0.5398110000000 1.0
C      1  0.4437570000000  0.5104320000000  0.5529590000000 1.0
C      1  0.4557870000000  0.3922360000000  0.5013400000000 1.0
C      1  0.5666200000000  0.6055680000000  0.4830610000000 1.0
C      1  0.5757850000000  0.5286140000000  0.5548950000000 1.0
C      1  0.4518420000000  0.4549310000000  0.4872230000000 1.0
C      1  0.4923590000000  0.4046700000000  0.5489460000000 1.0
C      1  0.4255900000000  0.5737420000000  0.5361430000000 1.0
C      1  0.5333240000000  0.4017720000000  0.5814700000000 1.0
C      1  0.5560590000000  0.5494670000000  0.5493570000000 1.0
C      1  0.4154870000000  0.5221500000000  0.4203390000000 1.0
C      1  0.5454650000000  0.6026830000000  0.4626830000000 1.0
C      1  0.5790300000000  0.4120930000000  0.5518150000000 1.0
C      1  0.5933090000000  0.5000730000000  0.4674140000000 1.0
C      1  0.5291100000000  0.3846660000000  0.4820360000000 1.0
C      1  0.4741710000000  0.5895280000000  0.4208920000000 1.0
C      1  0.4222100000000  0.5395900000000  0.4418220000000 1.0
C      1  0.4023440000000  0.4426720000000  0.5729810000000 1.0
C      1  0.4336130000000  0.5036150000000  0.4083680000000 1.0
C      1  0.4519090000000  0.6064430000000  0.5095170000000 1.0
C      1  0.4434260000000  0.5530430000000  0.5265140000000 1.0
C      1  0.5631140000000  0.4871060000000  0.5807050000000 1.0
C      1  0.5044800000000  0.6264410000000  0.4867490000000 1.0
C      1  0.5742200000000  0.4139380000000  0.4409100000000 1.0
C      1  0.5126410000000  0.5028760000000  0.5347510000000 1.0
C      1  0.4323260000000  0.4337970000000  0.4812260000000 1.0
C      1  0.4638780000000  0.4047940000000  0.5501900000000 1.0
C      1  0.3874130000000  0.5487340000000  0.5007370000000 1.0
C      1  0.5295950000000  0.5925510000000  0.5110140000000 1.0
C      1  0.4895830000000  0.4888550000000  0.4091150000000 1.0
C      1  0.5072080000000  0.5779860000000  0.4786050000000 1.0
C      1  0.4677910000000  0.4967150000000  0.4491790000000 1.0
C      1  0.5020740000000  0.5777380000000  0.4179430000000 1.0
C      1  0.4548400000000  0.4278370000000  0.5675670000000 1.0
C      1  0.4150780000000  0.4776500000000  0.5494740000000 1.0
C      1  0.4741410000000  0.5770550000000  0.5956250000000 1.0
C      1  0.4730510000000  0.5628300000000  0.5233640000000 1.0
C      1  0.4466970000000  0.4748670000000  0.5081910000000 1.0
C      1  0.5438310000000  0.5706060000000  0.5940490000000 1.0
C      1  0.5667860000000  0.4409970000000  0.5934190000000 1.0
C      1  0.5305900000000  0.5655690000000  0.4968960000000 1.0
C      1  0.5186810000000  0.5465050000000  0.3759370000000 1.0
C      1  0.5154690000000  0.5188010000000  0.4640840000000 1.0
C      1  0.3744950000000  0.5223540000000  0.4914060000000 1.0
C      1  0.4806460000000  0.3960740000000  0.4833240000000 1.0
C      1  0.4245460000000  0.5465470000000  0.5960580000000 1.0
C      1  0.5690870000000  0.5318840000000  0.4802270000000 1.0
C      1  0.5874250000000  0.5850720000000  0.4880080000000 1.0
C      1  0.5084500000000  0.3855820000000  0.5328420000000 1.0
C      1  0.4364770000000  0.6008200000000  0.5364660000000 1.0
C      1  0.6101670000000  0.4808890000000  0.4524370000000 1.0
C      1  0.4702800000000  0.5200700000000  0.5636280000000 1.0
C      1  0.6006000000000  0.5402200000000  0.5129710000000 1.0
C      1  0.5221530000000  0.5282320000000  0.5910560000000 1.0
C      1  0.4852900000000  0.5578440000000  0.5489120000000 1.0
C      1  0.5748810000000  0.4543520000000  0.5203970000000 1.0
C      1  0.5472210000000  0.4037300000000  0.4412320000000 1.0
C      1  0.5255820000000  0.5894280000000  0.5527020000000 1.0
C      1  0.6116350000000  0.4634630000000  0.5011840000000 1.0
C      1  0.4726900000000  0.5482940000000  0.6105620000000 1.0
C      1  0.5374820000000  0.4777450000000  0.5941220000000 1.0
C      1  0.5200430000000  0.5383130000000  0.6199090000000 1.0
C      1  0.5168520000000  0.4779790000000  0.4390950000000 1.0
C      1  0.5894240000000  0.5345120000000  0.4327590000000 1.0
C      1  0.3740520000000  0.4707270000000  0.5053740000000 1.0
C      1  0.3740620000000  0.5003020000000  0.5117620000000 1.0
C      1  0.5614330000000  0.5290570000000  0.4246580000000 1.0
C      1  0.4394960000000  0.5052370000000  0.3798150000000 1.0
C      1  0.5486610000000  0.5761060000000  0.4453130000000 1.0
C      1  0.4951240000000  0.5602440000000  0.4425130000000 1.0
C      1  0.5380880000000  0.5618830000000  0.6213150000000 1.0
C      1  0.5720550000000  0.5041080000000  0.5033800000000 1.0
C      1  0.4793860000000  0.5451340000000  0.5001150000000 1.0
C      1  0.5295030000000  0.4095200000000  0.4640500000000 1.0
C      1  0.5497750000000  0.5560090000000  0.4212040000000 1.0
C      1  0.6162510000000  0.4408670000000  0.4810110000000 1.0
C      1  0.4741070000000  0.4596140000000  0.4678080000000 1.0
C      1  0.5471540000000  0.4382410000000  0.4049040000000 1.0
C      1  0.4129930000000  0.5564450000000  0.4861160000000 1.0
C      1  0.4677820000000  0.4674020000000  0.4071980000000 1.0
C      1  0.5796380000000  0.4429630000000  0.4457020000000 1.0
C      1  0.5216270000000  0.5197500000000  0.3874680000000 1.0
C      1  0.4806160000000  0.5359210000000  0.4413610000000 1.0
C      1  0.5156440000000  0.6050930000000  0.4688420000000 1.0
C      1  0.5331270000000  0.5060430000000  0.4878270000000 1.0
C      1  0.5038900000000  0.6070300000000  0.5099080000000 1.0
C      1  0.5595140000000  0.4922090000000  0.5301040000000 1.0
C      1  0.5458330000000  0.4839320000000  0.4375830000000 1.0
C      1  0.4491810000000  0.4843320000000  0.4258970000000 1.0
C      1  0.4190820000000  0.5330250000000  0.4694790000000 1.0
C      1  0.6004450000000  0.5303120000000  0.5401460000000 1.0
C      1  0.4442930000000  0.4474990000000  0.5485840000000 1.0
C      1  0.5863240000000  0.5680110000000  0.5119610000000 1.0
C      1  0.4667320000000  0.4733840000000  0.3774600000000 1.0
C      1  0.4395530000000  0.4181500000000  0.4569590000000 1.0
C      1  0.5915110000000  0.5443050000000  0.4597980000000 1.0
C      1  0.5679250000000  0.4527340000000  0.4199080000000 1.0
C      1  0.5543420000000  0.3779910000000  0.4934290000000 1.0
C      1  0.3821780000000  0.5136550000000  0.5381310000000 1.0
C      1  0.4369820000000  0.5233620000000  0.5276800000000 1.0
C      1  0.5922230000000  0.4303300000000  0.5295850000000 1.0
C      1  0.4210480000000  0.5134570000000  0.5705870000000 1.0
C      1  0.5819440000000  0.4650350000000  0.5858690000000 1.0
C      1  0.4712460000000  0.5292780000000  0.3930760000000 1.0
C      1  0.5028330000000  0.4946400000000  0.3812920000000 1.0
C      1  0.5589600000000  0.4941930000000  0.4650180000000 1.0
C      1  0.5397340000000  0.4491620000000  0.6051590000000 1.0
C      1  0.4497120000000  0.4080330000000  0.5241840000000 1.0
C      1  0.3874720000000  0.5424020000000  0.5305080000000 1.0
C      1  0.5580690000000  0.4230990000000  0.5713010000000 1.0
C      1  0.5192240000000  0.4687870000000  0.3784860000000 1.0
C      1  0.4063760000000  0.4302860000000  0.4964380000000 1.0
C      1  0.4343440000000  0.4802260000000  0.5967280000000 1.0
C      1  0.3936170000000  0.4502640000000  0.5154570000000 1.0
C      1  0.4527820000000  0.5995220000000  0.5901260000000 1.0
C      1  0.4890890000000  0.4397400000000  0.4501120000000 1.0
C      1  0.5356740000000  0.4411780000000  0.5275710000000 1.0
C      1  0.5060360000000  0.4264080000000  0.5611750000000 1.0
C      1  0.5643000000000  0.5027720000000  0.5563090000000 1.0
END
