TITL C-862128-1543-422 -0.000871013075907108 125000 -260.619883963345 0 0 49 (C1) n - 1
REM
REM in /home/nfs/bkarasulu/CARBON/AIRSS/Generating-Clusters/TERSOFF/Higher-Symm/FIRE-HFTN
REM
REM
REM
REM
REM
REM ./C.cell (b20cbc046b6831c77cfcea5457e17084)
REM AIRSS Version 0.9.1 bugfix July 2018 build 013d7b7c2542+ Fri, 06 Jul 2018 19:26:36 +0100
REM compiler GCC version 9.2.1 20190827 (Red Hat 9.2.1-1)
REM options -cpp -mtune=generic -march=x86-64 -g -O0 -fpre-include=/usr/include/finclude/math-vector-fortran.h
REM seed 1288905825 1460837314 -1159474792 -1577112714 -1927831581 933969238 -1509772864 -1428936209 2115999146 -2067727762 1674620199 1851535805 1930391906 1821247079 -1033509950 -1168939314 -433377499 -1874848028 211454495 -2016005113 -2086728953 1560112299 1520881273 1562956751 834803819 1327314428 1618264289 -908055176 1282674704 -26508006 -273177773 -1568438159 1300043441
REM
CELL 1.54180   50.00000   50.00000   50.00000   90.00000   90.00000   90.00000
LATT -1
SFAC C  
C      1  0.4596060000000  0.5025150000000  0.5543850000000 1.0
C      1  0.5404900000000  0.5062960000000  0.4447600000000 1.0
C      1  0.5395780000000  0.5050630000000  0.5527610000000 1.0
C      1  0.4603990000000  0.5036610000000  0.4442910000000 1.0
C      1  0.5132110000000  0.5464070000000  0.5417400000000 1.0
C      1  0.4876080000000  0.5458180000000  0.4553740000000 1.0
C      1  0.4811860000000  0.5417970000000  0.5351270000000 1.0
C      1  0.5186060000000  0.5425690000000  0.4661460000000 1.0
C      1  0.5544300000000  0.4574150000000  0.5136640000000 1.0
C      1  0.4400790000000  0.4596160000000  0.4833590000000 1.0
C      1  0.4400350000000  0.4593350000000  0.5143920000000 1.0
C      1  0.5544190000000  0.4579470000000  0.4826800000000 1.0
C      1  0.5137730000000  0.5211760000000  0.5185480000000 1.0
C      1  0.4839790000000  0.5218210000000  0.4804870000000 1.0
C      1  0.4823710000000  0.5203960000000  0.5130340000000 1.0
C      1  0.5148920000000  0.5202290000000  0.4864810000000 1.0
C      1  0.5161210000000  0.4969730000000  0.4284540000000 1.0
C      1  0.4871250000000  0.4879490000000  0.5596720000000 1.0
C      1  0.4879070000000  0.4892140000000  0.4386000000000 1.0
C      1  0.5157160000000  0.4950850000000  0.5693120000000 1.0
C      1  0.5116930000000  0.4682780000000  0.4736480000000 1.0
C      1  0.4831080000000  0.4679120000000  0.5229990000000 1.0
C      1  0.4833360000000  0.4686300000000  0.4749040000000 1.0
C      1  0.5115140000000  0.4678380000000  0.5240170000000 1.0
C      1  0.5786160000000  0.5476660000000  0.4849960000000 1.0
C      1  0.4234730000000  0.5442660000000  0.5147440000000 1.0
C      1  0.4390460000000  0.5544230000000  0.4918000000000 1.0
C      1  0.5647160000000  0.5582350000000  0.5084990000000 1.0
C      1  0.4650390000000  0.4442390000000  0.5251700000000 1.0
C      1  0.5290630000000  0.4440880000000  0.4713300000000 1.0
C      1  0.5290160000000  0.4437530000000  0.5246720000000 1.0
C      1  0.4651890000000  0.4451420000000  0.4724390000000 1.0
C      1  0.5645780000000  0.5456600000000  0.5349920000000 1.0
C      1  0.4370290000000  0.5444030000000  0.4639900000000 1.0
C      1  0.4329020000000  0.5439630000000  0.5428080000000 1.0
C      1  0.5676660000000  0.5473420000000  0.4578140000000 1.0
C      1  0.5269530000000  0.4918330000000  0.5149760000000 1.0
C      1  0.4690340000000  0.4931800000000  0.4839610000000 1.0
C      1  0.4683260000000  0.4922090000000  0.5146650000000 1.0
C      1  0.5275020000000  0.4915930000000  0.4831240000000 1.0
C      1  0.4408750000000  0.4887860000000  0.5299720000000 1.0
C      1  0.5545390000000  0.4880130000000  0.4680580000000 1.0
C      1  0.5543810000000  0.4867540000000  0.5295320000000 1.0
C      1  0.4415350000000  0.4891260000000  0.4683220000000 1.0
C      1  0.5421000000000  0.5353980000000  0.4503380000000 1.0
C      1  0.4586430000000  0.5325470000000  0.5517430000000 1.0
C      1  0.4597410000000  0.5333810000000  0.4482480000000 1.0
C      1  0.5409150000000  0.5340490000000  0.5478770000000 1.0
C      1  0.5204570000000  0.4169310000000  0.5179560000000 1.0
END
