TITL C-862133-5440-782 -416.316572184479 125000 -789.194718164688 0 0 143 (S4) n - 1
REM
REM in /home/nfs/bkarasulu/CARBON/AIRSS/Generating-Clusters/TERSOFF/Higher-Symm/FIRE-HFTN
REM
REM
REM
REM
REM
REM ./C.cell (b20cbc046b6831c77cfcea5457e17084)
REM AIRSS Version 0.9.1 bugfix July 2018 build 013d7b7c2542+ Fri, 06 Jul 2018 19:26:36 +0100
REM compiler GCC version 9.2.1 20190827 (Red Hat 9.2.1-1)
REM options -cpp -mtune=generic -march=x86-64 -g -O0 -fpre-include=/usr/include/finclude/math-vector-fortran.h
REM seed -333034673 1162586070 1442584924 -858745893 437899806 1908319770 1731638821 -1729202122 1464514109 -1028031248 -1963155105 73797030 1169552650 -2001708104 2075762353 1678599233 -727190988 -424947388 1909218612 2070813146 1833459750 1845531231 808512409 -1006976473 -1980494860 -1634092240 1931743453 -2032232067 -1470855688 -1982558792 118474947 -895400290 -1422611090
REM
CELL 1.54180   50.00000   50.00000   50.00000   90.00000   90.00000   90.00000
LATT -1
SFAC C  
C      1  0.5224310000000  0.5952500000000  0.5397670000000 1.0
C      1  0.5958050000000  0.4775340000000  0.4601530000000 1.0
C      1  0.4780910000000  0.4041580000000  0.5397670000000 1.0
C      1  0.4047130000000  0.5218740000000  0.4601570000000 1.0
C      1  0.5642650000000  0.5364810000000  0.5908160000000 1.0
C      1  0.5370350000000  0.4357010000000  0.4091040000000 1.0
C      1  0.4362580000000  0.4629280000000  0.5908180000000 1.0
C      1  0.4634820000000  0.5637080000000  0.4091060000000 1.0
C      1  0.5952590000000  0.4572860000000  0.4969440000000 1.0
C      1  0.4578420000000  0.4047060000000  0.5029770000000 1.0
C      1  0.4052610000000  0.5421220000000  0.4969480000000 1.0
C      1  0.5426780000000  0.5947030000000  0.5029750000000 1.0
C      1  0.6032030000000  0.5252070000000  0.5043970000000 1.0
C      1  0.5257630000000  0.3967610000000  0.4955220000000 1.0
C      1  0.3973170000000  0.4742010000000  0.5044010000000 1.0
C      1  0.4747570000000  0.6026470000000  0.4955230000000 1.0
C      1  0.5580360000000  0.4394270000000  0.5046470000000 1.0
C      1  0.4399830000000  0.4419290000000  0.4952750000000 1.0
C      1  0.4424850000000  0.5599820000000  0.5046490000000 1.0
C      1  0.5605370000000  0.5574800000000  0.4952730000000 1.0
C      1  0.5261930000000  0.3916120000000  0.5299310000000 1.0
C      1  0.3921670000000  0.4737720000000  0.4699920000000 1.0
C      1  0.4743280000000  0.6077970000000  0.5299330000000 1.0
C      1  0.6083520000000  0.5256370000000  0.4699880000000 1.0
C      1  0.5043790000000  0.5263070000000  0.3891950000000 1.0
C      1  0.5268650000000  0.4955830000000  0.6107270000000 1.0
C      1  0.4961370000000  0.4731020000000  0.3891950000000 1.0
C      1  0.4736590000000  0.5038250000000  0.6107280000000 1.0
C      1  0.4491150000000  0.4597800000000  0.4466810000000 1.0
C      1  0.4603370000000  0.5508490000000  0.5532430000000 1.0
C      1  0.5514030000000  0.5396290000000  0.4466790000000 1.0
C      1  0.5401850000000  0.4485600000000  0.5532410000000 1.0
C      1  0.4052710000000  0.5493900000000  0.5263250000000 1.0
C      1  0.5499450000000  0.5946940000000  0.4735980000000 1.0
C      1  0.5952500000000  0.4500180000000  0.5263210000000 1.0
C      1  0.4505740000000  0.4047150000000  0.4736000000000 1.0
C      1  0.5551900000000  0.4226210000000  0.5576780000000 1.0
C      1  0.4231760000000  0.4447760000000  0.4422440000000 1.0
C      1  0.4453320000000  0.5767870000000  0.5576800000000 1.0
C      1  0.5773420000000  0.5546330000000  0.4422420000000 1.0
C      1  0.5728040000000  0.5175590000000  0.4908240000000 1.0
C      1  0.5181150000000  0.4271600000000  0.5090960000000 1.0
C      1  0.4277150000000  0.4818500000000  0.4908270000000 1.0
C      1  0.4824050000000  0.5722490000000  0.5090970000000 1.0
C      1  0.5176410000000  0.4591380000000  0.4112170000000 1.0
C      1  0.4596950000000  0.4823220000000  0.5887050000000 1.0
C      1  0.4828760000000  0.5402710000000  0.4112180000000 1.0
C      1  0.5408280000000  0.5170870000000  0.5887040000000 1.0
C      1  0.4699620000000  0.4048530000000  0.4499710000000 1.0
C      1  0.4054090000000  0.5300020000000  0.5499530000000 1.0
C      1  0.5305570000000  0.5945560000000  0.4499710000000 1.0
C      1  0.5951120000000  0.4694070000000  0.5499490000000 1.0
C      1  0.5125650000000  0.5410590000000  0.5530020000000 1.0
C      1  0.5416140000000  0.4874010000000  0.4469200000000 1.0
C      1  0.4879570000000  0.4583490000000  0.5530020000000 1.0
C      1  0.4589040000000  0.5120080000000  0.4469210000000 1.0
C      1  0.4645660000000  0.5179400000000  0.4192530000000 1.0
C      1  0.5184970000000  0.5353970000000  0.5806690000000 1.0
C      1  0.5359510000000  0.4814690000000  0.4192520000000 1.0
C      1  0.4820260000000  0.4640110000000  0.5806700000000 1.0
C      1  0.5541390000000  0.4585800000000  0.5262370000000 1.0
C      1  0.4591350000000  0.4458260000000  0.4736850000000 1.0
C      1  0.4463820000000  0.5408290000000  0.5262390000000 1.0
C      1  0.5413840000000  0.5535830000000  0.4736830000000 1.0
C      1  0.4703890000000  0.4975070000000  0.5439790000000 1.0
C      1  0.4980620000000  0.5295760000000  0.4559440000000 1.0
C      1  0.5301320000000  0.5019020000000  0.5439770000000 1.0
C      1  0.5024570000000  0.4698330000000  0.4559440000000 1.0
C      1  0.4945710000000  0.4243740000000  0.4469330000000 1.0
C      1  0.4249310000000  0.5053920000000  0.5529900000000 1.0
C      1  0.5059470000000  0.5750350000000  0.4469330000000 1.0
C      1  0.5755910000000  0.4940160000000  0.5529870000000 1.0
C      1  0.5542670000000  0.5649470000000  0.5464920000000 1.0
C      1  0.5655020000000  0.4456980000000  0.4534280000000 1.0
C      1  0.4462540000000  0.4344610000000  0.5464930000000 1.0
C      1  0.4350160000000  0.5537110000000  0.4534310000000 1.0
C      1  0.4985810000000  0.5438230000000  0.5997860000000 1.0
C      1  0.5443770000000  0.5013860000000  0.4001350000000 1.0
C      1  0.5019430000000  0.4555850000000  0.5997860000000 1.0
C      1  0.4561390000000  0.4980230000000  0.4001370000000 1.0
C      1  0.4955620000000  0.5851330000000  0.5362200000000 1.0
C      1  0.5856880000000  0.5044030000000  0.4637010000000 1.0
C      1  0.5049590000000  0.4142750000000  0.5362200000000 1.0
C      1  0.4148310000000  0.4950060000000  0.4637040000000 1.0
C      1  0.4957620000000  0.4030070000000  0.4830610000000 1.0
C      1  0.4035630000000  0.5042020000000  0.5168630000000 1.0
C      1  0.5047570000000  0.5964020000000  0.4830610000000 1.0
C      1  0.5969580000000  0.4952060000000  0.5168600000000 1.0
C      1  0.4016110000000  0.4452960000000  0.4620290000000 1.0
C      1  0.4458520000000  0.5983520000000  0.5378960000000 1.0
C      1  0.5989070000000  0.5541130000000  0.4620260000000 1.0
C      1  0.5546690000000  0.4010560000000  0.5378930000000 1.0
C      1  0.4577380000000  0.5307310000000  0.5750340000000 1.0
C      1  0.5312860000000  0.5422270000000  0.4248890000000 1.0
C      1  0.5427840000000  0.4686770000000  0.5750320000000 1.0
C      1  0.4692310000000  0.4571810000000  0.4248900000000 1.0
C      1  0.5289630000000  0.4702410000000  0.4717900000000 1.0
C      1  0.4707970000000  0.4710010000000  0.5281320000000 1.0
C      1  0.4715560000000  0.5291680000000  0.4717910000000 1.0
C      1  0.5297240000000  0.5284070000000  0.5281310000000 1.0
C      1  0.4440770000000  0.5891470000000  0.5076360000000 1.0
C      1  0.5897030000000  0.5558880000000  0.4922860000000 1.0
C      1  0.5564430000000  0.4102610000000  0.5076330000000 1.0
C      1  0.4108170000000  0.4435210000000  0.4922890000000 1.0
C      1  0.5484240000000  0.4960090000000  0.5663410000000 1.0
C      1  0.4965640000000  0.4515420000000  0.4335800000000 1.0
C      1  0.4520990000000  0.5033990000000  0.5663430000000 1.0
C      1  0.5039540000000  0.5478670000000  0.4335800000000 1.0
C      1  0.5320630000000  0.6085330000000  0.5636110000000 1.0
C      1  0.6090770000000  0.4679000000000  0.4363040000000 1.0
C      1  0.4684500000000  0.3909050000000  0.5636250000000 1.0
C      1  0.3915140000000  0.5315330000000  0.4362770000000 1.0
C      1  0.5666570000000  0.4866980000000  0.5239440000000 1.0
C      1  0.4872530000000  0.4333080000000  0.4759770000000 1.0
C      1  0.4338640000000  0.5127110000000  0.5239470000000 1.0
C      1  0.5132660000000  0.5661010000000  0.4759770000000 1.0
C      1  0.4683290000000  0.4718560000000  0.3996520000000 1.0
C      1  0.4724130000000  0.5316330000000  0.6002710000000 1.0
C      1  0.5321870000000  0.5275530000000  0.3996510000000 1.0
C      1  0.5281100000000  0.4677750000000  0.6002700000000 1.0
C      1  0.5071230000000  0.4499640000000  0.4927640000000 1.0
C      1  0.4505200000000  0.4928410000000  0.5071590000000 1.0
C      1  0.4933960000000  0.5494450000000  0.4927650000000 1.0
C      1  0.5500010000000  0.5065680000000  0.5071570000000 1.0
C      1  0.4422120000000  0.5703920000000  0.4295340000000 1.0
C      1  0.5709490000000  0.5577510000000  0.5703880000000 1.0
C      1  0.5583060000000  0.4290170000000  0.4295320000000 1.0
C      1  0.4295740000000  0.4416570000000  0.5703900000000 1.0
C      1  0.4947170000000  0.4724700000000  0.5094600000000 1.0
C      1  0.4730260000000  0.5052470000000  0.4904630000000 1.0
C      1  0.5058030000000  0.5269380000000  0.5094600000000 1.0
C      1  0.5274940000000  0.4941610000000  0.4904620000000 1.0
C      1  0.4896260000000  0.5587140000000  0.5481880000000 1.0
C      1  0.5592690000000  0.5103390000000  0.4517330000000 1.0
C      1  0.5108960000000  0.4406940000000  0.5481880000000 1.0
C      1  0.4412490000000  0.4890700000000  0.4517350000000 1.0
C      1  0.5610380000000  0.5861160000000  0.5259880000000 1.0
C      1  0.5866710000000  0.4389270000000  0.4739320000000 1.0
C      1  0.4394830000000  0.4132920000000  0.5259900000000 1.0
C      1  0.4138480000000  0.5604820000000  0.4739350000000 1.0
C      1  0.5002620000000  0.4997040000000  0.6247610000000 1.0
C      1  0.5002580000000  0.4997050000000  0.3751610000000 1.0
C      1  0.5002600000000  0.4997040000000  0.4999610000000 1.0
END
