TITL C-862501-1041-863 0.00832460453998712 125000 -399.827560482454 0 0 72 (C1) n - 1
REM
REM in /home/nfs/bkarasulu/CARBON/AIRSS/Generating-Clusters/TERSOFF/Higher-Symm/FIRE-HFTN
REM
REM
REM
REM
REM
REM ./C.cell (b20cbc046b6831c77cfcea5457e17084)
REM AIRSS Version 0.9.1 bugfix July 2018 build 013d7b7c2542+ Fri, 06 Jul 2018 19:26:36 +0100
REM compiler GCC version 9.2.1 20190827 (Red Hat 9.2.1-1)
REM options -cpp -mtune=generic -march=x86-64 -g -O0 -fpre-include=/usr/include/finclude/math-vector-fortran.h
REM seed 1853641034 1408899283 1003435543 -1596524470 62513428 1448950341 -825639112 1356729786 -315967633 -315096657 467322930 -1039115871 -707877296 1185841582 614660210 -101176659 224504712 -1091161843 -282791026 -92323061 127493475 312731551 2012155442 1997984082 737961518 34644002 105886488 -4135447 814777182 -302822758 771415674 2013927975 1864117138
REM
CELL 1.54180   50.00000   50.00000   50.00000   90.00000   90.00000   90.00000
LATT -1
SFAC C  
C      1  0.5649730000000  0.5139280000000  0.5297490000000 1.0
C      1  0.4323510000000  0.5290180000000  0.4487860000000 1.0
C      1  0.4306110000000  0.4973350000000  0.5286270000000 1.0
C      1  0.5574540000000  0.4292730000000  0.5113870000000 1.0
C      1  0.5335060000000  0.5065980000000  0.5600580000000 1.0
C      1  0.4705990000000  0.5010870000000  0.5683330000000 1.0
C      1  0.5257500000000  0.5600540000000  0.4587810000000 1.0
C      1  0.4291710000000  0.5253590000000  0.5202280000000 1.0
C      1  0.5104020000000  0.4421220000000  0.5288120000000 1.0
C      1  0.4574710000000  0.4651500000000  0.4464970000000 1.0
C      1  0.4667300000000  0.5057740000000  0.4425440000000 1.0
C      1  0.4456200000000  0.5475490000000  0.4730560000000 1.0
C      1  0.5524270000000  0.5183410000000  0.4596700000000 1.0
C      1  0.5156280000000  0.5266830000000  0.4921510000000 1.0
C      1  0.5596540000000  0.4711860000000  0.4611850000000 1.0
C      1  0.5387320000000  0.5592620000000  0.5286760000000 1.0
C      1  0.5214270000000  0.5026500000000  0.4251240000000 1.0
C      1  0.5097920000000  0.5759010000000  0.4872960000000 1.0
C      1  0.4701570000000  0.4532580000000  0.5000390000000 1.0
C      1  0.4756800000000  0.5305150000000  0.5714940000000 1.0
C      1  0.5089250000000  0.4628030000000  0.5719790000000 1.0
C      1  0.5353840000000  0.4514360000000  0.5612640000000 1.0
C      1  0.4594300000000  0.5555740000000  0.5019350000000 1.0
C      1  0.4744150000000  0.5195440000000  0.4183720000000 1.0
C      1  0.5272210000000  0.4812370000000  0.4996800000000 1.0
C      1  0.4253230000000  0.4984280000000  0.4778640000000 1.0
C      1  0.5458260000000  0.5277800000000  0.4859480000000 1.0
C      1  0.5274050000000  0.5253730000000  0.5817860000000 1.0
C      1  0.4343410000000  0.4561170000000  0.5214800000000 1.0
C      1  0.4370450000000  0.4950110000000  0.4488560000000 1.0
C      1  0.5123180000000  0.4843360000000  0.4671980000000 1.0
C      1  0.4694150000000  0.4483640000000  0.4691400000000 1.0
C      1  0.5550590000000  0.5039110000000  0.5036760000000 1.0
C      1  0.4759660000000  0.5494280000000  0.4638280000000 1.0
C      1  0.4654240000000  0.4989150000000  0.4903500000000 1.0
C      1  0.5471890000000  0.4457120000000  0.4508780000000 1.0
C      1  0.4767720000000  0.4698380000000  0.4232660000000 1.0
C      1  0.4893000000000  0.5664610000000  0.5364070000000 1.0
C      1  0.5012040000000  0.4141160000000  0.4887280000000 1.0
C      1  0.5157700000000  0.5324990000000  0.4448680000000 1.0
C      1  0.5682850000000  0.4765720000000  0.4925120000000 1.0
C      1  0.4758070000000  0.5117680000000  0.5171350000000 1.0
C      1  0.5279990000000  0.4271020000000  0.5062480000000 1.0
C      1  0.5172160000000  0.4500140000000  0.4593460000000 1.0
C      1  0.4258210000000  0.5261430000000  0.4901450000000 1.0
C      1  0.4967000000000  0.5279660000000  0.4681420000000 1.0
C      1  0.5405330000000  0.4944010000000  0.4504180000000 1.0
C      1  0.4552760000000  0.4648700000000  0.5412760000000 1.0
C      1  0.4840670000000  0.5733750000000  0.5060060000000 1.0
C      1  0.4847140000000  0.5008260000000  0.4659070000000 1.0
C      1  0.4563720000000  0.5357460000000  0.5241470000000 1.0
C      1  0.4942010000000  0.4313350000000  0.4638830000000 1.0
C      1  0.5005630000000  0.5374280000000  0.5866920000000 1.0
C      1  0.4366470000000  0.4792030000000  0.4994170000000 1.0
C      1  0.5127920000000  0.4997990000000  0.5406760000000 1.0
C      1  0.4865110000000  0.4301810000000  0.5119490000000 1.0
C      1  0.5009480000000  0.5182870000000  0.4082350000000 1.0
C      1  0.5565890000000  0.4671260000000  0.5452210000000 1.0
C      1  0.5123840000000  0.5483180000000  0.5350550000000 1.0
C      1  0.5495770000000  0.5581310000000  0.4807410000000 1.0
C      1  0.4786130000000  0.4762030000000  0.5228420000000 1.0
C      1  0.5051940000000  0.5223990000000  0.5210500000000 1.0
C      1  0.5596950000000  0.4960900000000  0.5523060000000 1.0
C      1  0.4955990000000  0.4871280000000  0.5611580000000 1.0
C      1  0.5061870000000  0.4743800000000  0.4260730000000 1.0
C      1  0.5626960000000  0.5430180000000  0.5347790000000 1.0
C      1  0.5382820000000  0.5743390000000  0.5035160000000 1.0
C      1  0.5105950000000  0.4733030000000  0.5244640000000 1.0
C      1  0.5290600000000  0.4520880000000  0.4881780000000 1.0
C      1  0.4454070000000  0.4893790000000  0.5560320000000 1.0
C      1  0.5664500000000  0.4563920000000  0.5171850000000 1.0
C      1  0.4673530000000  0.5487640000000  0.5492730000000 1.0
END
