TITL C-862503-991-391 -378483.081866867 125000 -111.286252200015 0 0 28 (C2h) n - 1
REM
REM in /home/nfs/bkarasulu/CARBON/AIRSS/Generating-Clusters/TERSOFF/Higher-Symm/FIRE-HFTN
REM
REM
REM
REM
REM
REM ./C.cell (b20cbc046b6831c77cfcea5457e17084)
REM AIRSS Version 0.9.1 bugfix July 2018 build 013d7b7c2542+ Fri, 06 Jul 2018 19:26:36 +0100
REM compiler GCC version 9.2.1 20190827 (Red Hat 9.2.1-1)
REM options -cpp -mtune=generic -march=x86-64 -g -O0 -fpre-include=/usr/include/finclude/math-vector-fortran.h
REM seed -714653637 -629312579 -1815542159 1813904744 -917278866 -967245783 -1595434996 515475853 -1784009091 -1201239620 1719470574 1438183505 -1990390649 -877002768 905332638 2005808425 671689286 1674823394 -1263096522 -1969359303 1121475666 275680634 1088770288 -283530988 1532716671 101307567 -830599519 1454718966 -1832348221 -307529301 -1264942077 -1319112208 1077074964
REM
CELL 1.54180   50.00000   50.00000   50.00000   90.00000   90.00000   90.00000
LATT -1
SFAC C  
C      1  0.5499840000000  0.4794000000000  0.5242970000000 1.0
C      1  0.4807020000000  0.4491480000000  0.5243620000000 1.0
C      1  0.4500160000000  0.5205980000000  0.5242960000000 1.0
C      1  0.5192980000000  0.5508520000000  0.5243640000000 1.0
C      1  0.5499830000000  0.4793570000000  0.4777990000000 1.0
C      1  0.4807440000000  0.4491530000000  0.4777770000000 1.0
C      1  0.4500180000000  0.5206450000000  0.4777980000000 1.0
C      1  0.5192560000000  0.5508480000000  0.4777790000000 1.0
C      1  0.5189960000000  0.4846910000000  0.5191960000000 1.0
C      1  0.4839730000000  0.4803160000000  0.5192170000000 1.0
C      1  0.4810040000000  0.5153080000000  0.5191950000000 1.0
C      1  0.5160270000000  0.5196830000000  0.5192180000000 1.0
C      1  0.5190010000000  0.4846830000000  0.4828690000000 1.0
C      1  0.4839770000000  0.4803230000000  0.4829590000000 1.0
C      1  0.4809990000000  0.5153180000000  0.4828680000000 1.0
C      1  0.5160230000000  0.5196770000000  0.4829590000000 1.0
C      1  0.5144040000000  0.4649960000000  0.5437770000000 1.0
C      1  0.4633990000000  0.4853260000000  0.5427560000000 1.0
C      1  0.4855940000000  0.5350030000000  0.5437760000000 1.0
C      1  0.5366020000000  0.5146740000000  0.5427550000000 1.0
C      1  0.5143140000000  0.4651070000000  0.4582190000000 1.0
C      1  0.4632890000000  0.4852480000000  0.4594970000000 1.0
C      1  0.4856870000000  0.5348940000000  0.4582170000000 1.0
C      1  0.5367100000000  0.5147520000000  0.4594970000000 1.0
C      1  0.4788310000000  0.4322300000000  0.5010660000000 1.0
C      1  0.4331960000000  0.5233760000000  0.5010490000000 1.0
C      1  0.5211690000000  0.5677700000000  0.5010680000000 1.0
C      1  0.5668040000000  0.4766240000000  0.5010500000000 1.0
END
