TITL C-862507-1800-1401 498270.737421304 125000 -895.552563183692 0 0 161 (C1) n - 1
REM
REM in /home/nfs/bkarasulu/CARBON/AIRSS/Generating-Clusters/TERSOFF/Higher-Symm/FIRE-HFTN
REM
REM
REM
REM
REM
REM ./C.cell (b20cbc046b6831c77cfcea5457e17084)
REM AIRSS Version 0.9.1 bugfix July 2018 build 013d7b7c2542+ Fri, 06 Jul 2018 19:26:36 +0100
REM compiler GCC version 9.2.1 20190827 (Red Hat 9.2.1-1)
REM options -cpp -mtune=generic -march=x86-64 -g -O0 -fpre-include=/usr/include/finclude/math-vector-fortran.h
REM seed -1831158763 -512909871 -378191016 2060997544 -1184161828 -330904465 162630292 -36814737 -1523582532 -974599199 -173434536 -609302212 -83451254 -31547652 122072784 -1539708403 -965945569 -1647518198 -34307412 -1208647783 822501828 -839637544 1070841590 -610818627 -2074754751 935496743 -930334117 370716283 757232935 1017756243 -474684554 2059392910 -1578322980
REM
CELL 1.54180   50.00000   50.00000   50.00000   90.00000   90.00000   90.00000
LATT -1
SFAC C  
C      1  0.5278220000000  0.5219720000000  0.5843830000000 1.0
C      1  0.4718940000000  0.5228900000000  0.5845850000000 1.0
C      1  0.4717050000000  0.5015870000000  0.4892910000000 1.0
C      1  0.5265740000000  0.5077870000000  0.4931750000000 1.0
C      1  0.4826990000000  0.4145330000000  0.4609090000000 1.0
C      1  0.5164590000000  0.4163770000000  0.4606800000000 1.0
C      1  0.4396920000000  0.4598130000000  0.5905190000000 1.0
C      1  0.5602310000000  0.4596380000000  0.5902390000000 1.0
C      1  0.4525490000000  0.4911380000000  0.4367290000000 1.0
C      1  0.5474720000000  0.4933540000000  0.4372860000000 1.0
C      1  0.4602200000000  0.5699820000000  0.4552360000000 1.0
C      1  0.5427470000000  0.5714200000000  0.4540480000000 1.0
C      1  0.5548280000000  0.4488540000000  0.4931670000000 1.0
C      1  0.4446100000000  0.4473190000000  0.4932900000000 1.0
C      1  0.4704090000000  0.6139130000000  0.5113440000000 1.0
C      1  0.5307250000000  0.6141430000000  0.5114610000000 1.0
C      1  0.4838370000000  0.5885350000000  0.4455620000000 1.0
C      1  0.5199580000000  0.5893760000000  0.4429790000000 1.0
C      1  0.4857320000000  0.5427620000000  0.6028210000000 1.0
C      1  0.5147670000000  0.5424500000000  0.6024920000000 1.0
C      1  0.5792520000000  0.4530300000000  0.5691160000000 1.0
C      1  0.4207480000000  0.4528410000000  0.5694330000000 1.0
C      1  0.5549970000000  0.4375820000000  0.5385680000000 1.0
C      1  0.4441760000000  0.4363070000000  0.5388120000000 1.0
C      1  0.4350310000000  0.5678280000000  0.4378740000000 1.0
C      1  0.5680440000000  0.5685070000000  0.4375360000000 1.0
C      1  0.4179480000000  0.5433450000000  0.4372120000000 1.0
C      1  0.5837070000000  0.5432630000000  0.4365540000000 1.0
C      1  0.5139920000000  0.5548620000000  0.4796860000000 1.0
C      1  0.4850210000000  0.5488050000000  0.4816210000000 1.0
C      1  0.5322660000000  0.5800210000000  0.5488600000000 1.0
C      1  0.4686300000000  0.5806320000000  0.5491570000000 1.0
C      1  0.5384360000000  0.5359290000000  0.5273410000000 1.0
C      1  0.4629320000000  0.5351270000000  0.5294510000000 1.0
C      1  0.5999300000000  0.4586920000000  0.4902320000000 1.0
C      1  0.4001450000000  0.4583940000000  0.4899130000000 1.0
C      1  0.4065490000000  0.4647560000000  0.5209040000000 1.0
C      1  0.5930880000000  0.4655920000000  0.5208860000000 1.0
C      1  0.4865320000000  0.5890560000000  0.6236910000000 1.0
C      1  0.5154200000000  0.5887990000000  0.6232520000000 1.0
C      1  0.5181290000000  0.4089450000000  0.5523450000000 1.0
C      1  0.4820390000000  0.4088300000000  0.5523460000000 1.0
C      1  0.5489820000000  0.4170400000000  0.4519880000000 1.0
C      1  0.4505360000000  0.4156740000000  0.4517060000000 1.0
C      1  0.5369820000000  0.4998370000000  0.6043890000000 1.0
C      1  0.4630990000000  0.5001870000000  0.6043570000000 1.0
C      1  0.5615210000000  0.4894490000000  0.5910810000000 1.0
C      1  0.4385360000000  0.4896010000000  0.5911060000000 1.0
C      1  0.5307200000000  0.5127840000000  0.4040750000000 1.0
C      1  0.4688980000000  0.5119960000000  0.4041870000000 1.0
C      1  0.4422150000000  0.3954630000000  0.5057990000000 1.0
C      1  0.5562490000000  0.3968690000000  0.5057510000000 1.0
C      1  0.5498380000000  0.5763500000000  0.4832880000000 1.0
C      1  0.4524370000000  0.5751230000000  0.4841890000000 1.0
C      1  0.5985810000000  0.5199660000000  0.5131930000000 1.0
C      1  0.4013460000000  0.5204860000000  0.5131730000000 1.0
C      1  0.4127730000000  0.4742520000000  0.5505000000000 1.0
C      1  0.5871520000000  0.4747230000000  0.5505070000000 1.0
C      1  0.5578180000000  0.4746720000000  0.4785190000000 1.0
C      1  0.4403950000000  0.4727500000000  0.4780860000000 1.0
C      1  0.5182240000000  0.5902890000000  0.4115910000000 1.0
C      1  0.4855780000000  0.5897340000000  0.4144240000000 1.0
C      1  0.5251720000000  0.4620770000000  0.3945260000000 1.0
C      1  0.4749760000000  0.4615400000000  0.3941980000000 1.0
C      1  0.4522400000000  0.4540820000000  0.4120820000000 1.0
C      1  0.5476630000000  0.4552480000000  0.4127770000000 1.0
C      1  0.4841720000000  0.4756110000000  0.6065690000000 1.0
C      1  0.5158790000000  0.4754330000000  0.6066160000000 1.0
C      1  0.4817990000000  0.5382610000000  0.5568470000000 1.0
C      1  0.5181280000000  0.5367360000000  0.5562100000000 1.0
C      1  0.4376850000000  0.5656860000000  0.5429140000000 1.0
C      1  0.5631640000000  0.5660830000000  0.5426020000000 1.0
C      1  0.4851360000000  0.5667370000000  0.5682770000000 1.0
C      1  0.5157180000000  0.5651680000000  0.5670430000000 1.0
C      1  0.4272720000000  0.5038320000000  0.5600020000000 1.0
C      1  0.5725310000000  0.5041800000000  0.5600970000000 1.0
C      1  0.4696850000000  0.4522100000000  0.5924570000000 1.0
C      1  0.5301230000000  0.4521200000000  0.5922040000000 1.0
C      1  0.5292980000000  0.5654150000000  0.6132680000000 1.0
C      1  0.4719470000000  0.5659410000000  0.6141030000000 1.0
C      1  0.5575030000000  0.5304040000000  0.4760950000000 1.0
C      1  0.4428260000000  0.5295320000000  0.4771820000000 1.0
C      1  0.5302110000000  0.5405030000000  0.4547480000000 1.0
C      1  0.4695290000000  0.5375950000000  0.4552290000000 1.0
C      1  0.5148660000000  0.4907280000000  0.3930640000000 1.0
C      1  0.4849950000000  0.4903900000000  0.3930660000000 1.0
C      1  0.5144600000000  0.4071930000000  0.5086640000000 1.0
C      1  0.4854580000000  0.4055680000000  0.5084070000000 1.0
C      1  0.5179170000000  0.4926790000000  0.4447430000000 1.0
C      1  0.4826410000000  0.4889420000000  0.4420250000000 1.0
C      1  0.4849500000000  0.4865280000000  0.5089290000000 1.0
C      1  0.5145840000000  0.4886290000000  0.5095010000000 1.0
C      1  0.6027990000000  0.4808540000000  0.4698980000000 1.0
C      1  0.3973380000000  0.4808510000000  0.4697170000000 1.0
C      1  0.5472630000000  0.4093750000000  0.5346960000000 1.0
C      1  0.4527380000000  0.4082830000000  0.5345070000000 1.0
C      1  0.5150310000000  0.5147620000000  0.4672840000000 1.0
C      1  0.4846660000000  0.5105200000000  0.4645030000000 1.0
C      1  0.5391500000000  0.4450350000000  0.4400390000000 1.0
C      1  0.4609740000000  0.4432020000000  0.4392640000000 1.0
C      1  0.3978390000000  0.5112580000000  0.4785060000000 1.0
C      1  0.6021530000000  0.5110470000000  0.4784760000000 1.0
C      1  0.4542520000000  0.5067590000000  0.5424500000000 1.0
C      1  0.5452260000000  0.5073920000000  0.5432380000000 1.0
C      1  0.4250120000000  0.5014510000000  0.5128380000000 1.0
C      1  0.5740480000000  0.5021440000000  0.5132050000000 1.0
C      1  0.5790930000000  0.5338000000000  0.5403190000000 1.0
C      1  0.4218720000000  0.5333860000000  0.5399260000000 1.0
C      1  0.4152720000000  0.5597380000000  0.5079080000000 1.0
C      1  0.5861900000000  0.5597360000000  0.5080650000000 1.0
C      1  0.5729060000000  0.4732250000000  0.4106970000000 1.0
C      1  0.4265380000000  0.4720960000000  0.4099140000000 1.0
C      1  0.5182970000000  0.4618670000000  0.4556980000000 1.0
C      1  0.4824890000000  0.4593950000000  0.4549580000000 1.0
C      1  0.5927690000000  0.4720990000000  0.4402870000000 1.0
C      1  0.4065170000000  0.4716260000000  0.4394650000000 1.0
C      1  0.5163650000000  0.5986230000000  0.5309520000000 1.0
C      1  0.4847370000000  0.5988460000000  0.5310660000000 1.0
C      1  0.5504300000000  0.6032540000000  0.4938370000000 1.0
C      1  0.4511070000000  0.6022590000000  0.4939540000000 1.0
C      1  0.4170370000000  0.5300100000000  0.4638190000000 1.0
C      1  0.5832620000000  0.5293280000000  0.4629130000000 1.0
C      1  0.4857960000000  0.5353410000000  0.5097110000000 1.0
C      1  0.5146500000000  0.5473020000000  0.5113440000000 1.0
C      1  0.5140000000000  0.4477910000000  0.5191910000000 1.0
C      1  0.4843500000000  0.4459400000000  0.5196010000000 1.0
C      1  0.4094370000000  0.5225470000000  0.5785510000000 1.0
C      1  0.5893390000000  0.5229380000000  0.5795750000000 1.0
C      1  0.5307800000000  0.4543370000000  0.5435210000000 1.0
C      1  0.4680020000000  0.4537250000000  0.5438250000000 1.0
C      1  0.4200190000000  0.5261640000000  0.4137240000000 1.0
C      1  0.5800610000000  0.5266900000000  0.4128740000000 1.0
C      1  0.5160310000000  0.4415140000000  0.5675480000000 1.0
C      1  0.4834640000000  0.4413620000000  0.5677390000000 1.0
C      1  0.4396090000000  0.5043870000000  0.4107850000000 1.0
C      1  0.5600730000000  0.5052760000000  0.4107220000000 1.0
C      1  0.4043120000000  0.4286780000000  0.4799270000000 1.0
C      1  0.5951790000000  0.4290150000000  0.4805550000000 1.0
C      1  0.5294720000000  0.4840380000000  0.5339090000000 1.0
C      1  0.4697350000000  0.4831350000000  0.5333710000000 1.0
C      1  0.4351520000000  0.4741360000000  0.4509350000000 1.0
C      1  0.5643460000000  0.4765090000000  0.4516500000000 1.0
C      1  0.4295120000000  0.4458780000000  0.5171920000000 1.0
C      1  0.5697120000000  0.4473160000000  0.5170770000000 1.0
C      1  0.5292380000000  0.4238680000000  0.4883430000000 1.0
C      1  0.4697850000000  0.4219070000000  0.4884490000000 1.0
C      1  0.4305240000000  0.4110620000000  0.4778150000000 1.0
C      1  0.5685120000000  0.4121970000000  0.4782580000000 1.0
C      1  0.4816400000000  0.5341800000000  0.4214480000000 1.0
C      1  0.5175850000000  0.5347650000000  0.4214460000000 1.0
C      1  0.4808530000000  0.5608360000000  0.4026120000000 1.0
C      1  0.5130340000000  0.5603470000000  0.4023680000000 1.0
C      1  0.5580880000000  0.5511430000000  0.5009440000000 1.0
C      1  0.4437240000000  0.5501250000000  0.5024790000000 1.0
C      1  0.5553420000000  0.5015670000000  0.4914680000000 1.0
C      1  0.4429140000000  0.4999140000000  0.4903520000000 1.0
C      1  0.5158480000000  0.4635550000000  0.4898350000000 1.0
C      1  0.4837710000000  0.4613440000000  0.4890840000000 1.0
C      1  0.4856130000000  0.4983150000000  0.5690570000000 1.0
C      1  0.5131080000000  0.4974440000000  0.5700180000000 1.0
C      1  0.5002770000000  0.4453840000000  0.3927680000000 1.0
END
