TITL C-862133-5440-919 -0.00551182126719835 125000 -687.419318977046 0 0 128 (C1) n - 1
REM
REM in /home/nfs/bkarasulu/CARBON/AIRSS/Generating-Clusters/TERSOFF/Higher-Symm/FIRE-HFTN
REM
REM
REM
REM
REM
REM ./C.cell (b20cbc046b6831c77cfcea5457e17084)
REM AIRSS Version 0.9.1 bugfix July 2018 build 013d7b7c2542+ Fri, 06 Jul 2018 19:26:36 +0100
REM compiler GCC version 9.2.1 20190827 (Red Hat 9.2.1-1)
REM options -cpp -mtune=generic -march=x86-64 -g -O0 -fpre-include=/usr/include/finclude/math-vector-fortran.h
REM seed -1854825080 165538151 -383170052 -1739665855 -370582543 -1484199520 711221020 -1980756744 -687596405 261832754 1017648439 706572814 75953734 416548002 874811246 -1008431506 -1022893493 1403250754 -1091007513 148227099 1881964651 -807091392 -1162816478 -1800090738 475035445 -161721072 -1313456035 -60237769 -2032287625 -162313711 -651809668 -1277556083 -1657268204
REM
CELL 1.54180   50.00000   50.00000   50.00000   90.00000   90.00000   90.00000
LATT -1
SFAC C  
C      1  0.5160710000000  0.4478180000000  0.5913900000000 1.0
C      1  0.5160660000000  0.5903850000000  0.5511670000000 1.0
C      1  0.5160600000000  0.5523220000000  0.4085780000000 1.0
C      1  0.5161160000000  0.4097460000000  0.4489090000000 1.0
C      1  0.4847680000000  0.4505110000000  0.5900500000000 1.0
C      1  0.4845650000000  0.5900300000000  0.5497670000000 1.0
C      1  0.4847980000000  0.5493650000000  0.4099960000000 1.0
C      1  0.4846050000000  0.4099610000000  0.4501780000000 1.0
C      1  0.5773480000000  0.5060530000000  0.5747640000000 1.0
C      1  0.5745210000000  0.5739990000000  0.4940650000000 1.0
C      1  0.5778450000000  0.4937580000000  0.4250960000000 1.0
C      1  0.5741780000000  0.4260300000000  0.5058150000000 1.0
C      1  0.4249910000000  0.5032020000000  0.5744160000000 1.0
C      1  0.4258410000000  0.5743080000000  0.4962400000000 1.0
C      1  0.4249990000000  0.4968200000000  0.4256310000000 1.0
C      1  0.4257700000000  0.4256550000000  0.5037790000000 1.0
C      1  0.4716250000000  0.4554460000000  0.4352050000000 1.0
C      1  0.4718480000000  0.4345750000000  0.5450630000000 1.0
C      1  0.4716970000000  0.5444820000000  0.5647480000000 1.0
C      1  0.4719870000000  0.5653220000000  0.4549830000000 1.0
C      1  0.5291100000000  0.4557730000000  0.4353430000000 1.0
C      1  0.5288300000000  0.4326650000000  0.5461230000000 1.0
C      1  0.5291370000000  0.5444480000000  0.5648250000000 1.0
C      1  0.5289650000000  0.5673840000000  0.4538730000000 1.0
C      1  0.4458620000000  0.4738540000000  0.4638450000000 1.0
C      1  0.4461220000000  0.4645060000000  0.5256660000000 1.0
C      1  0.4458750000000  0.5260890000000  0.5361670000000 1.0
C      1  0.4461560000000  0.5354480000000  0.4743600000000 1.0
C      1  0.5538460000000  0.4738180000000  0.4642710000000 1.0
C      1  0.5526390000000  0.4652120000000  0.5260840000000 1.0
C      1  0.5536020000000  0.5262200000000  0.5356650000000 1.0
C      1  0.5526730000000  0.5348660000000  0.4739620000000 1.0
C      1  0.4725710000000  0.4885700000000  0.5532160000000 1.0
C      1  0.4732170000000  0.5536670000000  0.5107470000000 1.0
C      1  0.4726500000000  0.5113320000000  0.4468110000000 1.0
C      1  0.4731310000000  0.4462380000000  0.4892470000000 1.0
C      1  0.5305500000000  0.4869390000000  0.5544290000000 1.0
C      1  0.5274670000000  0.5545990000000  0.5108320000000 1.0
C      1  0.5309060000000  0.5131030000000  0.4454010000000 1.0
C      1  0.5271420000000  0.4455400000000  0.4893140000000 1.0
C      1  0.5977890000000  0.5132180000000  0.4808050000000 1.0
C      1  0.5979220000000  0.4815100000000  0.4873510000000 1.0
C      1  0.5977860000000  0.4868410000000  0.5191890000000 1.0
C      1  0.5977970000000  0.5185330000000  0.5126790000000 1.0
C      1  0.4013350000000  0.5134600000000  0.4817060000000 1.0
C      1  0.4011950000000  0.4813320000000  0.4863270000000 1.0
C      1  0.4013220000000  0.4865240000000  0.5183290000000 1.0
C      1  0.4012040000000  0.5186450000000  0.5136920000000 1.0
C      1  0.5161360000000  0.4596560000000  0.5597160000000 1.0
C      1  0.5157290000000  0.5592010000000  0.5392670000000 1.0
C      1  0.5162450000000  0.5403310000000  0.4402740000000 1.0
C      1  0.5156620000000  0.4409200000000  0.4608020000000 1.0
C      1  0.4847190000000  0.4608780000000  0.5589860000000 1.0
C      1  0.4846760000000  0.5589390000000  0.5389050000000 1.0
C      1  0.4847990000000  0.5390130000000  0.4410370000000 1.0
C      1  0.4846250000000  0.4410410000000  0.4610590000000 1.0
C      1  0.4181580000000  0.4331310000000  0.4767570000000 1.0
C      1  0.4179700000000  0.4761620000000  0.5664230000000 1.0
C      1  0.4182000000000  0.5668290000000  0.5232580000000 1.0
C      1  0.4179710000000  0.5238600000000  0.4336240000000 1.0
C      1  0.5811690000000  0.4331600000000  0.4786120000000 1.0
C      1  0.5798770000000  0.4780790000000  0.5669140000000 1.0
C      1  0.5809990000000  0.5668550000000  0.5213900000000 1.0
C      1  0.5797040000000  0.5217870000000  0.4330830000000 1.0
C      1  0.5161610000000  0.5166370000000  0.5810670000000 1.0
C      1  0.5161940000000  0.5828190000000  0.4818850000000 1.0
C      1  0.5160980000000  0.4833580000000  0.4188450000000 1.0
C      1  0.5161000000000  0.4171770000000  0.5182090000000 1.0
C      1  0.4841920000000  0.5175140000000  0.5812810000000 1.0
C      1  0.4841720000000  0.5821160000000  0.4819170000000 1.0
C      1  0.4841370000000  0.4824260000000  0.4186540000000 1.0
C      1  0.4840810000000  0.4178210000000  0.5181130000000 1.0
C      1  0.5783680000000  0.5258780000000  0.4626020000000 1.0
C      1  0.5793890000000  0.4628240000000  0.4742420000000 1.0
C      1  0.5784250000000  0.4740910000000  0.5373730000000 1.0
C      1  0.5792060000000  0.5372040000000  0.5257710000000 1.0
C      1  0.4199990000000  0.5271380000000  0.4634320000000 1.0
C      1  0.4198420000000  0.4629360000000  0.4727160000000 1.0
C      1  0.4199820000000  0.4728480000000  0.5366110000000 1.0
C      1  0.4198640000000  0.5370250000000  0.5272950000000 1.0
C      1  0.5566070000000  0.5339370000000  0.4195290000000 1.0
C      1  0.5571280000000  0.4200930000000  0.4667130000000 1.0
C      1  0.5566650000000  0.4659450000000  0.5803660000000 1.0
C      1  0.5571250000000  0.5800560000000  0.5333320000000 1.0
C      1  0.4430810000000  0.5344160000000  0.4208030000000 1.0
C      1  0.4431490000000  0.4202770000000  0.4659260000000 1.0
C      1  0.4430650000000  0.4656060000000  0.5792800000000 1.0
C      1  0.4432000000000  0.5796450000000  0.5341080000000 1.0
C      1  0.4652430000000  0.4897900000000  0.5944050000000 1.0
C      1  0.4655460000000  0.5948020000000  0.5100760000000 1.0
C      1  0.4651900000000  0.5101990000000  0.4056410000000 1.0
C      1  0.4655040000000  0.4050980000000  0.4899370000000 1.0
C      1  0.5336790000000  0.4889480000000  0.5960660000000 1.0
C      1  0.5343240000000  0.5958580000000  0.5101830000000 1.0
C      1  0.5335860000000  0.5110170000000  0.4037460000000 1.0
C      1  0.5343180000000  0.4043280000000  0.4898810000000 1.0
C      1  0.4643000000000  0.4865990000000  0.4821160000000 1.0
C      1  0.4638650000000  0.4831390000000  0.5125590000000 1.0
C      1  0.4643070000000  0.5133270000000  0.5178960000000 1.0
C      1  0.4638860000000  0.5167950000000  0.4874520000000 1.0
C      1  0.5344500000000  0.4861750000000  0.4820570000000 1.0
C      1  0.5345950000000  0.4834680000000  0.5128280000000 1.0
C      1  0.5342910000000  0.5138310000000  0.5178090000000 1.0
C      1  0.5345550000000  0.5165860000000  0.4870360000000 1.0
C      1  0.5504420000000  0.5683720000000  0.5610020000000 1.0
C      1  0.5506160000000  0.5622300000000  0.4302610000000 1.0
C      1  0.5504200000000  0.4318740000000  0.4390850000000 1.0
C      1  0.5505240000000  0.4377300000000  0.5696210000000 1.0
C      1  0.4506330000000  0.5683050000000  0.5615920000000 1.0
C      1  0.4509320000000  0.5618760000000  0.4314430000000 1.0
C      1  0.4505810000000  0.4315760000000  0.4384150000000 1.0
C      1  0.4508270000000  0.4380910000000  0.5686690000000 1.0
C      1  0.5153950000000  0.4713900000000  0.6126900000000 1.0
C      1  0.5161330000000  0.6121410000000  0.5282050000000 1.0
C      1  0.5152860000000  0.5287190000000  0.3873310000000 1.0
C      1  0.5161780000000  0.3879660000000  0.4718580000000 1.0
C      1  0.4828400000000  0.4728040000000  0.6125460000000 1.0
C      1  0.4835160000000  0.6124290000000  0.5272830000000 1.0
C      1  0.4827520000000  0.5271430000000  0.3874250000000 1.0
C      1  0.4835500000000  0.3876130000000  0.4726820000000 1.0
C      1  0.4495750000000  0.4403880000000  0.5101350000000 1.0
C      1  0.4489260000000  0.5097120000000  0.5598730000000 1.0
C      1  0.4496450000000  0.5595720000000  0.4898770000000 1.0
C      1  0.4489320000000  0.4902540000000  0.4401520000000 1.0
C      1  0.5500130000000  0.4408750000000  0.5110120000000 1.0
C      1  0.5523430000000  0.5100450000000  0.5595590000000 1.0
C      1  0.5502180000000  0.5592430000000  0.4889570000000 1.0
C      1  0.5527170000000  0.4899410000000  0.4403600000000 1.0
END
