TITL C-862501-1041-1093 0.00476937948213677 125000 -243.642932645117 0 0 57 (Cs) n - 1
REM
REM in /home/nfs/bkarasulu/CARBON/AIRSS/Generating-Clusters/TERSOFF/Higher-Symm/FIRE-HFTN
REM
REM
REM
REM
REM
REM ./C.cell (b20cbc046b6831c77cfcea5457e17084)
REM AIRSS Version 0.9.1 bugfix July 2018 build 013d7b7c2542+ Fri, 06 Jul 2018 19:26:36 +0100
REM compiler GCC version 9.2.1 20190827 (Red Hat 9.2.1-1)
REM options -cpp -mtune=generic -march=x86-64 -g -O0 -fpre-include=/usr/include/finclude/math-vector-fortran.h
REM seed 1235047086 1700635333 -842349736 1150581123 -649698621 121835623 464651955 1046501191 174982593 -1897669660 -1298822336 1696986901 -1684080264 13325738 1046663351 141617002 -61913384 -1725594404 -21730100 -400499578 636423453 -1783528007 -1860094644 -1201125620 -354447256 -487314809 -532657392 353279225 -544605834 -826341129 687793179 -317218659 483203176
REM
CELL 1.54180   50.00000   50.00000   50.00000   90.00000   90.00000   90.00000
LATT -1
SFAC C  
C      1  0.5696060000000  0.4807650000000  0.5181280000000 1.0
C      1  0.4475270000000  0.4505470000000  0.5182940000000 1.0
C      1  0.4813050000000  0.5686650000000  0.5178370000000 1.0
C      1  0.5696060000000  0.4807650000000  0.4824520000000 1.0
C      1  0.4475280000000  0.4505470000000  0.4822830000000 1.0
C      1  0.4813050000000  0.5686650000000  0.4827430000000 1.0
C      1  0.4309320000000  0.4821460000000  0.5178250000000 1.0
C      1  0.5521410000000  0.4497290000000  0.5182940000000 1.0
C      1  0.5170730000000  0.5696450000000  0.5182380000000 1.0
C      1  0.4309320000000  0.4821460000000  0.4827530000000 1.0
C      1  0.5521410000000  0.4497290000000  0.4822850000000 1.0
C      1  0.5170740000000  0.5696450000000  0.4823420000000 1.0
C      1  0.5394020000000  0.4950660000000  0.5212640000000 1.0
C      1  0.4773780000000  0.4665570000000  0.5212680000000 1.0
C      1  0.4854000000000  0.5356630000000  0.5212700000000 1.0
C      1  0.5394020000000  0.4950660000000  0.4793150000000 1.0
C      1  0.4773790000000  0.4665570000000  0.4793100000000 1.0
C      1  0.4854000000000  0.5356630000000  0.4793090000000 1.0
C      1  0.4617760000000  0.4945050000000  0.5212690000000 1.0
C      1  0.5233370000000  0.4671800000000  0.5212640000000 1.0
C      1  0.5173010000000  0.5358240000000  0.5212700000000 1.0
C      1  0.4617770000000  0.4945050000000  0.4793100000000 1.0
C      1  0.5233370000000  0.4671800000000  0.4793140000000 1.0
C      1  0.5173010000000  0.5358250000000  0.4793100000000 1.0
C      1  0.5160880000000  0.4702450000000  0.5537610000000 1.0
C      1  0.4670210000000  0.5009910000000  0.5530380000000 1.0
C      1  0.5180480000000  0.5286000000000  0.5542610000000 1.0
C      1  0.5160890000000  0.4702460000000  0.4468180000000 1.0
C      1  0.4670220000000  0.5009910000000  0.4475400000000 1.0
C      1  0.5180490000000  0.5286010000000  0.4463180000000 1.0
C      1  0.4839530000000  0.4699930000000  0.5542650000000 1.0
C      1  0.5334640000000  0.5007430000000  0.5532480000000 1.0
C      1  0.4826350000000  0.5280390000000  0.5531940000000 1.0
C      1  0.4839540000000  0.4699940000000  0.4463130000000 1.0
C      1  0.5334650000000  0.5007440000000  0.4473310000000 1.0
C      1  0.4826360000000  0.5280400000000  0.4473850000000 1.0
C      1  0.4352040000000  0.4869310000000  0.4477530000000 1.0
C      1  0.5125880000000  0.5633480000000  0.4480660000000 1.0
C      1  0.5480000000000  0.4554120000000  0.4475430000000 1.0
C      1  0.4352030000000  0.4869310000000  0.5528240000000 1.0
C      1  0.5125870000000  0.5633470000000  0.5525150000000 1.0
C      1  0.5479990000000  0.4554110000000  0.5530360000000 1.0
C      1  0.5641740000000  0.4839650000000  0.4473640000000 1.0
C      1  0.4798820000000  0.5627460000000  0.4477640000000 1.0
C      1  0.4507600000000  0.4581340000000  0.4480670000000 1.0
C      1  0.5641730000000  0.4839640000000  0.5532160000000 1.0
C      1  0.4798810000000  0.5627450000000  0.5528160000000 1.0
C      1  0.4507590000000  0.4581330000000  0.5525100000000 1.0
C      1  0.5008340000000  0.4317190000000  0.4792900000000 1.0
C      1  0.4435350000000  0.5323340000000  0.4792910000000 1.0
C      1  0.5008340000000  0.4317180000000  0.5212880000000 1.0
C      1  0.4435340000000  0.5323340000000  0.5212880000000 1.0
C      1  0.5591380000000  0.5321390000000  0.4792910000000 1.0
C      1  0.5591370000000  0.5321390000000  0.5212890000000 1.0
C      1  0.4666940000000  0.5190790000000  0.5002890000000 1.0
C      1  0.5359340000000  0.5197980000000  0.5002900000000 1.0
C      1  0.5003720000000  0.4578600000000  0.5002890000000 1.0
END
