TITL C-862129-6180-799 0.0931933928836344 125000 -173.234312811551 0 0 30 (Cs) n - 1
REM
REM in /home/nfs/bkarasulu/CARBON/AIRSS/Generating-Clusters/TERSOFF/Higher-Symm/FIRE-HFTN
REM
REM
REM
REM
REM
REM ./C.cell (b20cbc046b6831c77cfcea5457e17084)
REM AIRSS Version 0.9.1 bugfix July 2018 build 013d7b7c2542+ Fri, 06 Jul 2018 19:26:36 +0100
REM compiler GCC version 9.2.1 20190827 (Red Hat 9.2.1-1)
REM options -cpp -mtune=generic -march=x86-64 -g -O0 -fpre-include=/usr/include/finclude/math-vector-fortran.h
REM seed 1360613542 -2053231852 -497334336 -1675975039 -1499811106 2036864929 1853629555 291082007 -771510180 1353660790 -1214259886 -1545942471 1027932552 1881470896 -219694016 1005411576 -1923367194 -1062936000 1595635040 1556873496 878281195 -727159856 562939504 -1899332291 858731150 -1633504350 1284088434 -974071278 250305152 -414124878 -1664687517 -682737527 374813209
REM
CELL 1.54180   50.00000   50.00000   50.00000   90.00000   90.00000   90.00000
LATT -1
SFAC C  
C      1  0.5416260000000  0.5102430000000  0.5506320000000 1.0
C      1  0.5416260000000  0.5102430000000  0.4493680000000 1.0
C      1  0.3930990000000  0.5379460000000  0.4856000000000 1.0
C      1  0.3930990000000  0.5379460000000  0.5144000000000 1.0
C      1  0.5374660000000  0.4585940000000  0.5507500000000 1.0
C      1  0.5374660000000  0.4585940000000  0.4492500000000 1.0
C      1  0.5568420000000  0.5544390000000  0.5311030000000 1.0
C      1  0.5568420000000  0.5544390000000  0.4688970000000 1.0
C      1  0.4917030000000  0.5090290000000  0.5172320000000 1.0
C      1  0.4917030000000  0.5090290000000  0.4827680000000 1.0
C      1  0.5139760000000  0.5322350000000  0.4845790000000 1.0
C      1  0.5139760000000  0.5322350000000  0.5154210000000 1.0
C      1  0.5257100000000  0.4860560000000  0.5495080000000 1.0
C      1  0.5257100000000  0.4860560000000  0.4504920000000 1.0
C      1  0.5054100000000  0.4583420000000  0.4853280000000 1.0
C      1  0.5054100000000  0.4583420000000  0.5146720000000 1.0
C      1  0.5036500000000  0.4844680000000  0.5292760000000 1.0
C      1  0.5036500000000  0.4844680000000  0.4707240000000 1.0
C      1  0.5412430000000  0.4218540000000  0.4856030000000 1.0
C      1  0.5412430000000  0.4218540000000  0.5143970000000 1.0
C      1  0.4662370000000  0.5175540000000  0.5295120000000 1.0
C      1  0.4662370000000  0.5175540000000  0.4704880000000 1.0
C      1  0.4173290000000  0.5311910000000  0.4713600000000 1.0
C      1  0.4173290000000  0.5311910000000  0.5286400000000 1.0
C      1  0.4421880000000  0.5242590000000  0.4852320000000 1.0
C      1  0.4421880000000  0.5242590000000  0.5147680000000 1.0
C      1  0.5257560000000  0.4411960000000  0.5294230000000 1.0
C      1  0.5257560000000  0.4411960000000  0.4705770000000 1.0
C      1  0.5377660000000  0.5325930000000  0.5323930000000 1.0
C      1  0.5377660000000  0.5325930000000  0.4676070000000 1.0
END
