TITL C-862133-5440-650 -0.000252562199728913 125000 -552.6895531837 0 0 96 (C4h) n - 1
REM
REM in /home/nfs/bkarasulu/CARBON/AIRSS/Generating-Clusters/TERSOFF/Higher-Symm/FIRE-HFTN
REM
REM
REM
REM
REM
REM ./C.cell (b20cbc046b6831c77cfcea5457e17084)
REM AIRSS Version 0.9.1 bugfix July 2018 build 013d7b7c2542+ Fri, 06 Jul 2018 19:26:36 +0100
REM compiler GCC version 9.2.1 20190827 (Red Hat 9.2.1-1)
REM options -cpp -mtune=generic -march=x86-64 -g -O0 -fpre-include=/usr/include/finclude/math-vector-fortran.h
REM seed 621556688 919267802 1731606167 -1204333401 -2001984341 256714197 1887551253 -1589011588 -1970567608 2006201231 -495588926 1703333553 421419700 1802404585 -19882745 1453476635 -1237809347 -343708023 1101603522 -1108206520 1704571651 -1162139443 940472583 1490190162 456867787 -167914036 -468217144 -441837528 -1380797563 -1957614493 -791211866 1828158598 1271820410
REM
CELL 1.54180   50.00000   50.00000   50.00000   90.00000   90.00000   90.00000
LATT -1
SFAC C  
C      1  0.4361800000000  0.5225860000000  0.4584020000000 1.0
C      1  0.4361800000000  0.5415980000000  0.5225860000000 1.0
C      1  0.4361800000000  0.4774140000000  0.5415980000000 1.0
C      1  0.4361800000000  0.4584020000000  0.4774140000000 1.0
C      1  0.5638200000000  0.5225860000000  0.4584020000000 1.0
C      1  0.5638200000000  0.5415980000000  0.5225860000000 1.0
C      1  0.5638200000000  0.4774140000000  0.5415980000000 1.0
C      1  0.5638200000000  0.4584020000000  0.4774140000000 1.0
C      1  0.5159160000000  0.4196940000000  0.4590670000000 1.0
C      1  0.5159160000000  0.5409330000000  0.4196940000000 1.0
C      1  0.5159160000000  0.5803060000000  0.5409330000000 1.0
C      1  0.5159160000000  0.4590670000000  0.5803060000000 1.0
C      1  0.4840840000000  0.4196940000000  0.4590670000000 1.0
C      1  0.4840840000000  0.5409330000000  0.4196940000000 1.0
C      1  0.4840840000000  0.5803060000000  0.5409330000000 1.0
C      1  0.4840840000000  0.4590670000000  0.5803060000000 1.0
C      1  0.4847670000000  0.4211680000000  0.5359330000000 1.0
C      1  0.4847670000000  0.4640670000000  0.4211680000000 1.0
C      1  0.4847670000000  0.5788320000000  0.4640670000000 1.0
C      1  0.4847670000000  0.5359330000000  0.5788320000000 1.0
C      1  0.5152330000000  0.4211680000000  0.5359330000000 1.0
C      1  0.5152330000000  0.4640670000000  0.4211680000000 1.0
C      1  0.5152330000000  0.5788320000000  0.4640670000000 1.0
C      1  0.5152330000000  0.5359330000000  0.5788320000000 1.0
C      1  0.5476560000000  0.5222060000000  0.5070710000000 1.0
C      1  0.5476560000000  0.4929290000000  0.5222060000000 1.0
C      1  0.5476560000000  0.4777940000000  0.4929290000000 1.0
C      1  0.5476560000000  0.5070710000000  0.4777940000000 1.0
C      1  0.4523440000000  0.5222060000000  0.5070710000000 1.0
C      1  0.4523440000000  0.4929290000000  0.5222060000000 1.0
C      1  0.4523440000000  0.4777940000000  0.4929290000000 1.0
C      1  0.4523440000000  0.5070710000000  0.4777940000000 1.0
C      1  0.5146270000000  0.5333270000000  0.5329440000000 1.0
C      1  0.5146270000000  0.4670560000000  0.5333270000000 1.0
C      1  0.5146270000000  0.4666730000000  0.4670560000000 1.0
C      1  0.5146270000000  0.5329440000000  0.4666730000000 1.0
C      1  0.4853730000000  0.5333270000000  0.5329440000000 1.0
C      1  0.4853730000000  0.4670560000000  0.5333270000000 1.0
C      1  0.4853730000000  0.4666730000000  0.4670560000000 1.0
C      1  0.4853730000000  0.5329440000000  0.4666730000000 1.0
C      1  0.4275000000000  0.4298950000000  0.5171440000000 1.0
C      1  0.4275000000000  0.4828560000000  0.4298950000000 1.0
C      1  0.4275000000000  0.5701050000000  0.4828560000000 1.0
C      1  0.4275000000000  0.5171440000000  0.5701050000000 1.0
C      1  0.5725000000000  0.4298950000000  0.5171440000000 1.0
C      1  0.5725000000000  0.4828560000000  0.4298950000000 1.0
C      1  0.5725000000000  0.5701050000000  0.4828560000000 1.0
C      1  0.5725000000000  0.5171440000000  0.5701050000000 1.0
C      1  0.4380760000000  0.5690170000000  0.5112250000000 1.0
C      1  0.4380760000000  0.4887750000000  0.5690170000000 1.0
C      1  0.4380760000000  0.4309830000000  0.4887750000000 1.0
C      1  0.4380760000000  0.5112250000000  0.4309830000000 1.0
C      1  0.5619240000000  0.5690170000000  0.5112250000000 1.0
C      1  0.5619240000000  0.4887750000000  0.5690170000000 1.0
C      1  0.5619240000000  0.4309830000000  0.4887750000000 1.0
C      1  0.5619240000000  0.5112250000000  0.4309830000000 1.0
C      1  0.5254240000000  0.5071510000000  0.5393430000000 1.0
C      1  0.5254240000000  0.4606570000000  0.5071510000000 1.0
C      1  0.5254240000000  0.4928490000000  0.4606570000000 1.0
C      1  0.5254240000000  0.5393430000000  0.4928490000000 1.0
C      1  0.4745760000000  0.5071510000000  0.5393430000000 1.0
C      1  0.4745760000000  0.4606570000000  0.5071510000000 1.0
C      1  0.4745760000000  0.4928490000000  0.4606570000000 1.0
C      1  0.4745760000000  0.5393430000000  0.4928490000000 1.0
C      1  0.4191120000000  0.5461240000000  0.4662300000000 1.0
C      1  0.4191120000000  0.5337700000000  0.5461240000000 1.0
C      1  0.4191120000000  0.4538760000000  0.5337700000000 1.0
C      1  0.4191120000000  0.4662300000000  0.4538760000000 1.0
C      1  0.5808880000000  0.5461240000000  0.4662300000000 1.0
C      1  0.5808880000000  0.5337700000000  0.5461240000000 1.0
C      1  0.5808880000000  0.4538760000000  0.5337700000000 1.0
C      1  0.5808880000000  0.4662300000000  0.4538760000000 1.0
C      1  0.5248350000000  0.4466890000000  0.5539660000000 1.0
C      1  0.5248350000000  0.4460340000000  0.4466890000000 1.0
C      1  0.5248350000000  0.5533110000000  0.4460340000000 1.0
C      1  0.5248350000000  0.5539660000000  0.5533110000000 1.0
C      1  0.4751650000000  0.4466890000000  0.5539660000000 1.0
C      1  0.4751650000000  0.4460340000000  0.4466890000000 1.0
C      1  0.4751650000000  0.5533110000000  0.4460340000000 1.0
C      1  0.4751650000000  0.5539660000000  0.5533110000000 1.0
C      1  0.5333420000000  0.4841810000000  0.5846410000000 1.0
C      1  0.5333420000000  0.4153590000000  0.4841810000000 1.0
C      1  0.5333420000000  0.5158190000000  0.4153590000000 1.0
C      1  0.5333420000000  0.5846410000000  0.5158190000000 1.0
C      1  0.4666580000000  0.4841810000000  0.5846410000000 1.0
C      1  0.4666580000000  0.4153590000000  0.4841810000000 1.0
C      1  0.4666580000000  0.5158190000000  0.4153590000000 1.0
C      1  0.4666580000000  0.5846410000000  0.5158190000000 1.0
C      1  0.4753210000000  0.5081780000000  0.5687390000000 1.0
C      1  0.4753210000000  0.4312610000000  0.5081780000000 1.0
C      1  0.4753210000000  0.4918220000000  0.4312610000000 1.0
C      1  0.4753210000000  0.5687390000000  0.4918220000000 1.0
C      1  0.5246790000000  0.5081780000000  0.5687390000000 1.0
C      1  0.5246790000000  0.4312610000000  0.5081780000000 1.0
C      1  0.5246790000000  0.4918220000000  0.4312610000000 1.0
C      1  0.5246790000000  0.5687390000000  0.4918220000000 1.0
END
