TITL C-862501-1041-871 -0.00796028238347544 125000 -379.802614217382 0 0 69 (C1) n - 1
REM
REM in /home/nfs/bkarasulu/CARBON/AIRSS/Generating-Clusters/TERSOFF/Higher-Symm/FIRE-HFTN
REM
REM
REM
REM
REM
REM ./C.cell (b20cbc046b6831c77cfcea5457e17084)
REM AIRSS Version 0.9.1 bugfix July 2018 build 013d7b7c2542+ Fri, 06 Jul 2018 19:26:36 +0100
REM compiler GCC version 9.2.1 20190827 (Red Hat 9.2.1-1)
REM options -cpp -mtune=generic -march=x86-64 -g -O0 -fpre-include=/usr/include/finclude/math-vector-fortran.h
REM seed -1862040469 -1673584478 1477781890 -365513916 -1175665857 -1732379530 -1364364515 -1384120925 1642831998 -357419150 17299001 276677521 1704569701 134175081 1998721914 -1356095046 -1854811155 -1881996861 -1880856728 -1717499427 2029008209 -26767586 -548685592 -746858000 -502961757 1786013968 2084105264 1067671793 333553022 -543276675 -663381810 -92221983 -1294643377
REM
CELL 1.54180   50.00000   50.00000   50.00000   90.00000   90.00000   90.00000
LATT -1
SFAC C  
C      1  0.4305800000000  0.4516600000000  0.5326590000000 1.0
C      1  0.4687770000000  0.4304900000000  0.4886210000000 1.0
C      1  0.4448320000000  0.5072580000000  0.4757750000000 1.0
C      1  0.4384930000000  0.5258190000000  0.4530090000000 1.0
C      1  0.5452470000000  0.5091140000000  0.4563640000000 1.0
C      1  0.5164210000000  0.5097860000000  0.4671910000000 1.0
C      1  0.5067790000000  0.4492990000000  0.5167190000000 1.0
C      1  0.4305510000000  0.5354900000000  0.5054610000000 1.0
C      1  0.5869600000000  0.5189710000000  0.5364360000000 1.0
C      1  0.5027230000000  0.5243840000000  0.5176010000000 1.0
C      1  0.5671010000000  0.5086700000000  0.4789770000000 1.0
C      1  0.4996040000000  0.5351020000000  0.5653060000000 1.0
C      1  0.4278800000000  0.4851780000000  0.4842960000000 1.0
C      1  0.5700500000000  0.5354180000000  0.4924750000000 1.0
C      1  0.5203890000000  0.4769510000000  0.5467900000000 1.0
C      1  0.5519520000000  0.5097810000000  0.5684840000000 1.0
C      1  0.5307260000000  0.5515630000000  0.4289840000000 1.0
C      1  0.4733430000000  0.5107450000000  0.4824740000000 1.0
C      1  0.5306180000000  0.5233190000000  0.5523680000000 1.0
C      1  0.4729340000000  0.5187320000000  0.5692090000000 1.0
C      1  0.4892610000000  0.4739450000000  0.4258340000000 1.0
C      1  0.5700380000000  0.5379760000000  0.5217570000000 1.0
C      1  0.5686400000000  0.4717480000000  0.5416740000000 1.0
C      1  0.4860190000000  0.4771920000000  0.5071660000000 1.0
C      1  0.4832670000000  0.4844450000000  0.4660170000000 1.0
C      1  0.4995680000000  0.4310950000000  0.4942120000000 1.0
C      1  0.4827880000000  0.5450960000000  0.4762250000000 1.0
C      1  0.5267650000000  0.5560250000000  0.4858250000000 1.0
C      1  0.5103570000000  0.4368420000000  0.4662960000000 1.0
C      1  0.5536090000000  0.5535140000000  0.4749620000000 1.0
C      1  0.5750250000000  0.4985360000000  0.5535710000000 1.0
C      1  0.5247650000000  0.5686190000000  0.5306560000000 1.0
C      1  0.5145250000000  0.4912640000000  0.4947430000000 1.0
C      1  0.4577510000000  0.5347320000000  0.5224820000000 1.0
C      1  0.5236790000000  0.5017030000000  0.5283380000000 1.0
C      1  0.4616800000000  0.4624110000000  0.4943930000000 1.0
C      1  0.4857850000000  0.5681330000000  0.4982730000000 1.0
C      1  0.5088910000000  0.5326770000000  0.4867620000000 1.0
C      1  0.5007350000000  0.5499630000000  0.5377080000000 1.0
C      1  0.5485800000000  0.5394030000000  0.4483740000000 1.0
C      1  0.4729890000000  0.4305850000000  0.5520920000000 1.0
C      1  0.4767310000000  0.5039240000000  0.5236790000000 1.0
C      1  0.4574560000000  0.4650880000000  0.4611450000000 1.0
C      1  0.5133680000000  0.4659890000000  0.4612510000000 1.0
C      1  0.4539240000000  0.4150350000000  0.5087660000000 1.0
C      1  0.4264500000000  0.4653460000000  0.4623070000000 1.0
C      1  0.5601420000000  0.4702940000000  0.5127200000000 1.0
C      1  0.4493660000000  0.4287450000000  0.5341750000000 1.0
C      1  0.5404620000000  0.4777610000000  0.4535930000000 1.0
C      1  0.5166420000000  0.5779560000000  0.5025630000000 1.0
C      1  0.4955780000000  0.4751980000000  0.5605350000000 1.0
C      1  0.4751250000000  0.5583310000000  0.5239300000000 1.0
C      1  0.4833430000000  0.5570130000000  0.4489910000000 1.0
C      1  0.5756940000000  0.4808970000000  0.4896840000000 1.0
C      1  0.4343030000000  0.4755110000000  0.5137690000000 1.0
C      1  0.4908810000000  0.5034670000000  0.4419580000000 1.0
C      1  0.5072140000000  0.5673900000000  0.4357380000000 1.0
C      1  0.4462140000000  0.5237360000000  0.5509100000000 1.0
C      1  0.4759520000000  0.4941660000000  0.5528300000000 1.0
C      1  0.4282000000000  0.5457410000000  0.4761100000000 1.0
C      1  0.4279080000000  0.5054800000000  0.5255090000000 1.0
C      1  0.5652990000000  0.4659060000000  0.4652990000000 1.0
C      1  0.4821290000000  0.4281720000000  0.4552270000000 1.0
C      1  0.5439340000000  0.4620290000000  0.5544660000000 1.0
C      1  0.5444710000000  0.5456940000000  0.5366730000000 1.0
C      1  0.4650510000000  0.5220100000000  0.4347920000000 1.0
C      1  0.5003790000000  0.4372960000000  0.5431330000000 1.0
C      1  0.4718730000000  0.4512170000000  0.4377280000000 1.0
C      1  0.5312330000000  0.4669760000000  0.5059590000000 1.0
END
