TITL C-862507-1800-1008 0.00229591368451454 125000 -437.277589216815 0 0 76 (Cs) n - 1
REM
REM in /home/nfs/bkarasulu/CARBON/AIRSS/Generating-Clusters/TERSOFF/Higher-Symm/FIRE-HFTN
REM
REM
REM
REM
REM
REM ./C.cell (b20cbc046b6831c77cfcea5457e17084)
REM AIRSS Version 0.9.1 bugfix July 2018 build 013d7b7c2542+ Fri, 06 Jul 2018 19:26:36 +0100
REM compiler GCC version 9.2.1 20190827 (Red Hat 9.2.1-1)
REM options -cpp -mtune=generic -march=x86-64 -g -O0 -fpre-include=/usr/include/finclude/math-vector-fortran.h
REM seed 828537163 -1573565370 1455011439 -1924478949 -2026872444 1526446761 1059419900 95425413 1634858985 151294206 -29393430 499665867 -1695633079 -1136998954 1082148481 -1212385059 835079622 -2075702450 557009670 -727429681 574922810 -509316450 237885089 721855832 1555008649 -143658212 671569335 269684086 1985318811 -1814589075 -153817500 -187782831 -472516979
REM
CELL 1.54180   50.00000   50.00000   50.00000   90.00000   90.00000   90.00000
LATT -1
SFAC C  
C      1  0.4526090000000  0.4123910000000  0.5158140000000 1.0
C      1  0.5822440000000  0.5095710000000  0.5157460000000 1.0
C      1  0.4465520000000  0.5459780000000  0.5156600000000 1.0
C      1  0.4526090000000  0.4123910000000  0.4862540000000 1.0
C      1  0.5822440000000  0.5095710000000  0.4863210000000 1.0
C      1  0.4465520000000  0.5459780000000  0.4864080000000 1.0
C      1  0.5504550000000  0.5623040000000  0.4709320000000 1.0
C      1  0.4290000000000  0.5048430000000  0.4742820000000 1.0
C      1  0.5177080000000  0.4437660000000  0.4737490000000 1.0
C      1  0.5504550000000  0.5623040000000  0.5311360000000 1.0
C      1  0.4290000000000  0.5048430000000  0.5277860000000 1.0
C      1  0.5177080000000  0.4437660000000  0.5283180000000 1.0
C      1  0.5413060000000  0.4326830000000  0.5159490000000 1.0
C      1  0.5342090000000  0.5824210000000  0.5171450000000 1.0
C      1  0.4066980000000  0.4873520000000  0.5180350000000 1.0
C      1  0.5413060000000  0.4326830000000  0.4861190000000 1.0
C      1  0.5342090000000  0.5824210000000  0.4849230000000 1.0
C      1  0.4066980000000  0.4873520000000  0.4840330000000 1.0
C      1  0.4300020000000  0.4640830000000  0.5177130000000 1.0
C      1  0.5654420000000  0.4519580000000  0.5196120000000 1.0
C      1  0.5028750000000  0.5780110000000  0.5192270000000 1.0
C      1  0.4300020000000  0.4640830000000  0.4843550000000 1.0
C      1  0.5654420000000  0.4519580000000  0.4824560000000 1.0
C      1  0.5028750000000  0.5780110000000  0.4828400000000 1.0
C      1  0.5307610000000  0.5150660000000  0.4735950000000 1.0
C      1  0.4778810000000  0.5078440000000  0.4712530000000 1.0
C      1  0.5046260000000  0.4946720000000  0.4715690000000 1.0
C      1  0.5307610000000  0.5150660000000  0.5284730000000 1.0
C      1  0.4778810000000  0.5078440000000  0.5308150000000 1.0
C      1  0.5046260000000  0.4946720000000  0.5304990000000 1.0
C      1  0.5511880000000  0.5377980000000  0.5160240000000 1.0
C      1  0.4545230000000  0.4981120000000  0.5155670000000 1.0
C      1  0.5073750000000  0.4688490000000  0.5157130000000 1.0
C      1  0.5511880000000  0.5377980000000  0.4860440000000 1.0
C      1  0.4545230000000  0.4981120000000  0.4865010000000 1.0
C      1  0.5073750000000  0.4688490000000  0.4863550000000 1.0
C      1  0.4549320000000  0.4599250000000  0.5369570000000 1.0
C      1  0.5583670000000  0.4752560000000  0.5461370000000 1.0
C      1  0.4892710000000  0.5577900000000  0.5398530000000 1.0
C      1  0.4549320000000  0.4599250000000  0.4651100000000 1.0
C      1  0.5583670000000  0.4752560000000  0.4559300000000 1.0
C      1  0.4892710000000  0.5577900000000  0.4622150000000 1.0
C      1  0.4975830000000  0.5424920000000  0.5648200000000 1.0
C      1  0.4660630000000  0.4792490000000  0.5624530000000 1.0
C      1  0.5358870000000  0.4822070000000  0.5680310000000 1.0
C      1  0.4975830000000  0.5424920000000  0.4372480000000 1.0
C      1  0.4660630000000  0.4792490000000  0.4396140000000 1.0
C      1  0.5358870000000  0.4822070000000  0.4340370000000 1.0
C      1  0.5352890000000  0.5097300000000  0.5813160000000 1.0
C      1  0.4757970000000  0.5274910000000  0.5795750000000 1.0
C      1  0.4872920000000  0.4705220000000  0.5809460000000 1.0
C      1  0.5352890000000  0.5097300000000  0.4207520000000 1.0
C      1  0.4757970000000  0.5274910000000  0.4224930000000 1.0
C      1  0.4872920000000  0.4705220000000  0.4211210000000 1.0
C      1  0.5262680000000  0.5362640000000  0.4328720000000 1.0
C      1  0.4569510000000  0.5071680000000  0.4348600000000 1.0
C      1  0.5138400000000  0.4624350000000  0.4291800000000 1.0
C      1  0.5262680000000  0.5362640000000  0.5691960000000 1.0
C      1  0.4569510000000  0.5071680000000  0.5672080000000 1.0
C      1  0.5138400000000  0.4624350000000  0.5728880000000 1.0
C      1  0.5566200000000  0.4971140000000  0.5266460000000 1.0
C      1  0.4737300000000  0.5380980000000  0.5257970000000 1.0
C      1  0.4694600000000  0.4352350000000  0.5277710000000 1.0
C      1  0.5566200000000  0.4971140000000  0.4754220000000 1.0
C      1  0.4737300000000  0.5380980000000  0.4762710000000 1.0
C      1  0.4694600000000  0.4352350000000  0.4742960000000 1.0
C      1  0.5142270000000  0.4398580000000  0.4460780000000 1.0
C      1  0.5458220000000  0.5563890000000  0.4424220000000 1.0
C      1  0.4319460000000  0.5146670000000  0.4474120000000 1.0
C      1  0.5142270000000  0.4398580000000  0.5559900000000 1.0
C      1  0.5458220000000  0.5563890000000  0.5596460000000 1.0
C      1  0.4319450000000  0.5146670000000  0.5546550000000 1.0
C      1  0.4892660000000  0.5351780000000  0.5010340000000 1.0
C      1  0.4843740000000  0.4369630000000  0.5010340000000 1.0
C      1  0.5478540000000  0.4852430000000  0.5010340000000 1.0
C      1  0.5150430000000  0.5226810000000  0.5010340000000 1.0
END
