TITL C-862132-7359-508 151574.346032812 125000 -1067.23821381033 0 0 191 (C1) n - 1
REM
REM in /home/nfs/bkarasulu/CARBON/AIRSS/Generating-Clusters/TERSOFF/Higher-Symm/FIRE-HFTN
REM
REM
REM
REM
REM
REM ./C.cell (b20cbc046b6831c77cfcea5457e17084)
REM AIRSS Version 0.9.1 bugfix July 2018 build 013d7b7c2542+ Fri, 06 Jul 2018 19:26:36 +0100
REM compiler GCC version 9.2.1 20190827 (Red Hat 9.2.1-1)
REM options -cpp -mtune=generic -march=x86-64 -g -O0 -fpre-include=/usr/include/finclude/math-vector-fortran.h
REM seed -1307815388 237971641 -2114758333 1206745514 998980038 -1164560652 853982046 1843384561 -1040789937 1447812739 -1221729024 -450982875 521895465 601019157 -2006845671 1464411461 -1477626394 -197288559 -1189542768 -1911341263 1554084612 1668927894 671771888 -13978153 -1547800577 -620619577 -343318100 1337054604 -968593316 1084401195 -1228218099 1040324672 -1077485457
REM
CELL 1.54180   50.00000   50.00000   50.00000   90.00000   90.00000   90.00000
LATT -1
SFAC C  
C      1  0.4243660000000  0.4229710000000  0.5171600000000 1.0
C      1  0.4252950000000  0.5546170000000  0.5561670000000 1.0
C      1  0.4244280000000  0.5213960000000  0.4276440000000 1.0
C      1  0.5376870000000  0.5665670000000  0.4457200000000 1.0
C      1  0.5382140000000  0.4194700000000  0.4692280000000 1.0
C      1  0.5372400000000  0.5139090000000  0.5846290000000 1.0
C      1  0.5167580000000  0.4847540000000  0.4202370000000 1.0
C      1  0.5161590000000  0.4391750000000  0.5520400000000 1.0
C      1  0.5171380000000  0.5763310000000  0.5262160000000 1.0
C      1  0.3845200000000  0.5520310000000  0.4581290000000 1.0
C      1  0.3846930000000  0.4306490000000  0.4757830000000 1.0
C      1  0.3834800000000  0.5098200000000  0.5636830000000 1.0
C      1  0.5989990000000  0.4958730000000  0.4361680000000 1.0
C      1  0.5986440000000  0.4471460000000  0.5354460000000 1.0
C      1  0.5989310000000  0.5573220000000  0.5281470000000 1.0
C      1  0.5543500000000  0.4908330000000  0.4025740000000 1.0
C      1  0.5536640000000  0.4208410000000  0.5565150000000 1.0
C      1  0.5544980000000  0.5890090000000  0.5405650000000 1.0
C      1  0.6125920000000  0.4706750000000  0.4826040000000 1.0
C      1  0.6123500000000  0.4997300000000  0.5342150000000 1.0
C      1  0.6126020000000  0.5297630000000  0.4831350000000 1.0
C      1  0.6152190000000  0.5617140000000  0.4896870000000 1.0
C      1  0.6150830000000  0.4602710000000  0.4515820000000 1.0
C      1  0.6145220000000  0.4781820000000  0.5588650000000 1.0
C      1  0.5971190000000  0.4517870000000  0.5641030000000 1.0
C      1  0.5978050000000  0.5797430000000  0.5096650000000 1.0
C      1  0.5977690000000  0.4687110000000  0.4258550000000 1.0
C      1  0.4203810000000  0.5079030000000  0.5437310000000 1.0
C      1  0.4196280000000  0.5363470000000  0.4749920000000 1.0
C      1  0.4187340000000  0.4546310000000  0.4811610000000 1.0
C      1  0.5514280000000  0.4729990000000  0.5602790000000 1.0
C      1  0.5519040000000  0.5659700000000  0.4933880000000 1.0
C      1  0.5520970000000  0.4610660000000  0.4458190000000 1.0
C      1  0.4981640000000  0.5206720000000  0.3972910000000 1.0
C      1  0.4983430000000  0.4007810000000  0.5328950000000 1.0
C      1  0.4986350000000  0.5795630000000  0.5694310000000 1.0
C      1  0.5540580000000  0.4421390000000  0.5124490000000 1.0
C      1  0.5540350000000  0.5402450000000  0.5438710000000 1.0
C      1  0.5541470000000  0.5180030000000  0.4434180000000 1.0
C      1  0.5614680000000  0.4751680000000  0.4712610000000 1.0
C      1  0.5610780000000  0.4879680000000  0.5353230000000 1.0
C      1  0.5614280000000  0.5368350000000  0.4928300000000 1.0
C      1  0.4292580000000  0.5798430000000  0.5306460000000 1.0
C      1  0.4288040000000  0.4868150000000  0.4182410000000 1.0
C      1  0.4286560000000  0.4345440000000  0.5509980000000 1.0
C      1  0.5499870000000  0.5147820000000  0.5566600000000 1.0
C      1  0.5502830000000  0.5419040000000  0.4590420000000 1.0
C      1  0.5504120000000  0.4435160000000  0.4839090000000 1.0
C      1  0.4751840000000  0.6111590000000  0.5362900000000 1.0
C      1  0.4745100000000  0.4764250000000  0.3867350000000 1.0
C      1  0.4739380000000  0.4139780000000  0.5762490000000 1.0
C      1  0.4011230000000  0.5244240000000  0.4510710000000 1.0
C      1  0.4007420000000  0.4399080000000  0.5027850000000 1.0
C      1  0.3997940000000  0.5335940000000  0.5490230000000 1.0
C      1  0.5014800000000  0.6059330000000  0.4927860000000 1.0
C      1  0.5019640000000  0.4406540000000  0.4109230000000 1.0
C      1  0.5002470000000  0.4536570000000  0.5941600000000 1.0
C      1  0.4413940000000  0.4715430000000  0.5274970000000 1.0
C      1  0.4397490000000  0.5434320000000  0.5125370000000 1.0
C      1  0.4418600000000  0.4849330000000  0.4627030000000 1.0
C      1  0.5761070000000  0.5554610000000  0.5761990000000 1.0
C      1  0.5761140000000  0.5383140000000  0.4139440000000 1.0
C      1  0.5763480000000  0.4066100000000  0.5102840000000 1.0
C      1  0.5004390000000  0.4939850000000  0.3826550000000 1.0
C      1  0.5001810000000  0.4016890000000  0.5635010000000 1.0
C      1  0.5012820000000  0.6054710000000  0.5532830000000 1.0
C      1  0.5267050000000  0.4154790000000  0.5693470000000 1.0
C      1  0.5276170000000  0.6029160000000  0.5383720000000 1.0
C      1  0.5274830000000  0.4823340000000  0.3909410000000 1.0
C      1  0.4550830000000  0.4402140000000  0.4155100000000 1.0
C      1  0.4533960000000  0.4569760000000  0.5917370000000 1.0
C      1  0.4546550000000  0.6035220000000  0.4909950000000 1.0
C      1  0.4012450000000  0.5709140000000  0.5197510000000 1.0
C      1  0.4021080000000  0.4810720000000  0.4341060000000 1.0
C      1  0.4052390000000  0.4555700000000  0.5474220000000 1.0
C      1  0.4953520000000  0.3888630000000  0.4479650000000 1.0
C      1  0.4927360000000  0.5105540000000  0.6209950000000 1.0
C      1  0.4936570000000  0.5995120000000  0.4293470000000 1.0
C      1  0.4789800000000  0.3964620000000  0.4257110000000 1.0
C      1  0.4753500000000  0.4881510000000  0.6254530000000 1.0
C      1  0.4772350000000  0.6152330000000  0.4467860000000 1.0
C      1  0.4164440000000  0.5263570000000  0.5037190000000 1.0
C      1  0.4183860000000  0.4840510000000  0.4812080000000 1.0
C      1  0.4211430000000  0.4945150000000  0.5127590000000 1.0
C      1  0.5226520000000  0.4812910000000  0.5625620000000 1.0
C      1  0.5231250000000  0.5641640000000  0.4850360000000 1.0
C      1  0.5234350000000  0.4544600000000  0.4513140000000 1.0
C      1  0.6328530000000  0.5237340000000  0.4615100000000 1.0
C      1  0.6327340000000  0.4549350000000  0.4987760000000 1.0
C      1  0.6326480000000  0.5214120000000  0.5398950000000 1.0
C      1  0.5116530000000  0.5469770000000  0.5414850000000 1.0
C      1  0.5116250000000  0.5121910000000  0.4386440000000 1.0
C      1  0.5117450000000  0.4406870000000  0.5189970000000 1.0
C      1  0.4763890000000  0.4475070000000  0.3966190000000 1.0
C      1  0.4751210000000  0.4374350000000  0.5957700000000 1.0
C      1  0.4766370000000  0.6163470000000  0.5059820000000 1.0
C      1  0.5128950000000  0.4989050000000  0.5403390000000 1.0
C      1  0.5130740000000  0.5363090000000  0.4810390000000 1.0
C      1  0.5131370000000  0.4643700000000  0.4777910000000 1.0
C      1  0.5214040000000  0.5617010000000  0.4205000000000 1.0
C      1  0.5222890000000  0.3996630000000  0.4860520000000 1.0
C      1  0.5211840000000  0.5383580000000  0.5932810000000 1.0
C      1  0.5145730000000  0.4731360000000  0.6114720000000 1.0
C      1  0.5159460000000  0.6108960000000  0.4672910000000 1.0
C      1  0.5160650000000  0.4160420000000  0.4202280000000 1.0
C      1  0.4444650000000  0.4633860000000  0.5602320000000 1.0
C      1  0.4453110000000  0.5739940000000  0.5016770000000 1.0
C      1  0.4451300000000  0.4640120000000  0.4361870000000 1.0
C      1  0.5249620000000  0.4010200000000  0.5157730000000 1.0
C      1  0.5246230000000  0.5637030000000  0.5776910000000 1.0
C      1  0.5246080000000  0.5356100000000  0.4063740000000 1.0
C      1  0.5392920000000  0.5943250000000  0.4576010000000 1.0
C      1  0.5395780000000  0.4161510000000  0.4392170000000 1.0
C      1  0.5382840000000  0.4895090000000  0.6024150000000 1.0
C      1  0.4169040000000  0.3940180000000  0.5181420000000 1.0
C      1  0.4181010000000  0.5692570000000  0.5814080000000 1.0
C      1  0.4152790000000  0.5360790000000  0.4031460000000 1.0
C      1  0.3984090000000  0.4945730000000  0.4604810000000 1.0
C      1  0.4002010000000  0.4672780000000  0.5206860000000 1.0
C      1  0.3956990000000  0.5418900000000  0.5200150000000 1.0
C      1  0.6240050000000  0.4414290000000  0.5224660000000 1.0
C      1  0.6241310000000  0.5487380000000  0.5397740000000 1.0
C      1  0.6242520000000  0.5101280000000  0.4378450000000 1.0
C      1  0.4825850000000  0.4476420000000  0.5283250000000 1.0
C      1  0.4826340000000  0.5530350000000  0.5314310000000 1.0
C      1  0.4826950000000  0.5003740000000  0.4391240000000 1.0
C      1  0.5345620000000  0.4837290000000  0.4871350000000 1.0
C      1  0.5345170000000  0.4972050000000  0.5194720000000 1.0
C      1  0.5346610000000  0.5185630000000  0.4922440000000 1.0
C      1  0.4917600000000  0.3993100000000  0.4762350000000 1.0
C      1  0.4903280000000  0.5297750000000  0.5976510000000 1.0
C      1  0.4906920000000  0.5695210000000  0.4253800000000 1.0
C      1  0.3737190000000  0.4303030000000  0.5163220000000 1.0
C      1  0.3814050000000  0.5515880000000  0.5675720000000 1.0
C      1  0.3750820000000  0.5199220000000  0.4327550000000 1.0
C      1  0.5514190000000  0.5197130000000  0.4131430000000 1.0
C      1  0.5513650000000  0.4151710000000  0.5263050000000 1.0
C      1  0.5514740000000  0.5655830000000  0.5605380000000 1.0
C      1  0.4708370000000  0.5156500000000  0.4157340000000 1.0
C      1  0.4714810000000  0.4193750000000  0.5275100000000 1.0
C      1  0.4712800000000  0.5665150000000  0.5561880000000 1.0
C      1  0.4563110000000  0.4137050000000  0.4286160000000 1.0
C      1  0.4535430000000  0.4817570000000  0.6079610000000 1.0
C      1  0.4552430000000  0.6040320000000  0.4612850000000 1.0
C      1  0.4939840000000  0.5404970000000  0.4440780000000 1.0
C      1  0.4939790000000  0.4300000000000  0.4919840000000 1.0
C      1  0.4937110000000  0.5281050000000  0.5633290000000 1.0
C      1  0.5030910000000  0.4604430000000  0.5666590000000 1.0
C      1  0.5036820000000  0.5786990000000  0.5007020000000 1.0
C      1  0.5041410000000  0.4610330000000  0.4308300000000 1.0
C      1  0.4444140000000  0.4159430000000  0.4550970000000 1.0
C      1  0.4428740000000  0.5031570000000  0.5912880000000 1.0
C      1  0.4439430000000  0.5788610000000  0.4514650000000 1.0
C      1  0.4772780000000  0.4713880000000  0.4447320000000 1.0
C      1  0.4765340000000  0.4675060000000  0.5500620000000 1.0
C      1  0.4765140000000  0.5613960000000  0.5031310000000 1.0
C      1  0.4592280000000  0.5614620000000  0.4333440000000 1.0
C      1  0.4598800000000  0.4090500000000  0.4792780000000 1.0
C      1  0.4587320000000  0.5277090000000  0.5865470000000 1.0
C      1  0.3985990000000  0.4332660000000  0.4504420000000 1.0
C      1  0.3986070000000  0.4876570000000  0.5743100000000 1.0
C      1  0.3990720000000  0.5734090000000  0.4710090000000 1.0
C      1  0.5669520000000  0.5836040000000  0.5124970000000 1.0
C      1  0.5669320000000  0.4690250000000  0.4209870000000 1.0
C      1  0.5662650000000  0.4475930000000  0.5660400000000 1.0
C      1  0.5897880000000  0.4541250000000  0.4939220000000 1.0
C      1  0.5895320000000  0.5178270000000  0.5428640000000 1.0
C      1  0.5897750000000  0.5282380000000  0.4631530000000 1.0
C      1  0.5761320000000  0.5010910000000  0.4559370000000 1.0
C      1  0.5758730000000  0.4616270000000  0.5208530000000 1.0
C      1  0.5760000000000  0.5376590000000  0.5229730000000 1.0
C      1  0.4824880000000  0.4663310000000  0.4743560000000 1.0
C      1  0.4821980000000  0.4955760000000  0.5394120000000 1.0
C      1  0.4824040000000  0.5376190000000  0.4843430000000 1.0
C      1  0.5891010000000  0.5297530000000  0.5700880000000 1.0
C      1  0.5892920000000  0.5458370000000  0.4391930000000 1.0
C      1  0.5895540000000  0.4245460000000  0.4910290000000 1.0
C      1  0.4552720000000  0.5898960000000  0.5460430000000 1.0
C      1  0.4545110000000  0.4951660000000  0.4008650000000 1.0
C      1  0.4551870000000  0.4169810000000  0.5524610000000 1.0
C      1  0.4608200000000  0.5178810000000  0.5383430000000 1.0
C      1  0.4614440000000  0.5244160000000  0.4661740000000 1.0
C      1  0.4606440000000  0.4562170000000  0.4936070000000 1.0
C      1  0.4284400000000  0.5667710000000  0.4741560000000 1.0
C      1  0.4276000000000  0.4408770000000  0.4548020000000 1.0
C      1  0.4281070000000  0.4900880000000  0.5682430000000 1.0
C      1  0.4536910000000  0.5402810000000  0.5602040000000 1.0
C      1  0.4535730000000  0.5323520000000  0.4363110000000 1.0
C      1  0.4536220000000  0.4262360000000  0.5027730000000 1.0
C      1  0.6122220000000  0.5000770000000  0.4999610000000 1.0
C      1  0.4508030000000  0.5024030000000  0.5006070000000 1.0
END
