TITL C-862500-986-411 -0.000346055449287837 125000 -435.701619207142 0 0 86 (C3) n - 1
REM
REM in /home/nfs/bkarasulu/CARBON/AIRSS/Generating-Clusters/TERSOFF/Higher-Symm/FIRE-HFTN
REM
REM
REM
REM
REM
REM ./C.cell (b20cbc046b6831c77cfcea5457e17084)
REM AIRSS Version 0.9.1 bugfix July 2018 build 013d7b7c2542+ Fri, 06 Jul 2018 19:26:36 +0100
REM compiler GCC version 9.2.1 20190827 (Red Hat 9.2.1-1)
REM options -cpp -mtune=generic -march=x86-64 -g -O0 -fpre-include=/usr/include/finclude/math-vector-fortran.h
REM seed -203543840 2146676563 -1597501376 1343032290 1092453061 1162063808 669727934 192071888 -2099766807 -847759980 -1310872568 -18136016 -1212166444 1709335161 -2024747800 462086054 687385174 -1380882339 370716291 1913839188 -2036920112 1165098961 -1486037001 872220400 1918592829 -212306920 -1649939530 1863391319 -1689738516 -609303253 -333473450 1751611460 -598122732
REM
CELL 1.54180   50.00000   50.00000   50.00000   90.00000   90.00000   90.00000
LATT -1
SFAC C  
C      1  0.4763370000000  0.4270160000000  0.4604190000000 1.0
C      1  0.5451780000000  0.4270160000000  0.4978870000000 1.0
C      1  0.4783100000000  0.4270160000000  0.5387710000000 1.0
C      1  0.4229590000000  0.5236180000000  0.5090020000000 1.0
C      1  0.5297930000000  0.5236180000000  0.4273690000000 1.0
C      1  0.5470720000000  0.5236180000000  0.5607060000000 1.0
C      1  0.4826490000000  0.5539310000000  0.4357510000000 1.0
C      1  0.5633850000000  0.5539310000000  0.5156870000000 1.0
C      1  0.4537900000000  0.5539310000000  0.5456390000000 1.0
C      1  0.4802100000000  0.4958620000000  0.4712160000000 1.0
C      1  0.5338900000000  0.4958620000000  0.4958420000000 1.0
C      1  0.4857230000000  0.4958620000000  0.5300180000000 1.0
C      1  0.4383620000000  0.5609880000000  0.4847520000000 1.0
C      1  0.5430920000000  0.5609880000000  0.4528330000000 1.0
C      1  0.5183700000000  0.5609880000000  0.5594920000000 1.0
C      1  0.5588380000000  0.5219260000000  0.5170600000000 1.0
C      1  0.4548750000000  0.5219260000000  0.5410150000000 1.0
C      1  0.4861110000000  0.5219260000000  0.4390020000000 1.0
C      1  0.4834830000000  0.4928130000000  0.5787570000000 1.0
C      1  0.4391210000000  0.4928130000000  0.4449070000000 1.0
C      1  0.5772190000000  0.4928130000000  0.4734130000000 1.0
C      1  0.4411820000000  0.4759830000000  0.5463330000000 1.0
C      1  0.4883520000000  0.4759830000000  0.4244850000000 1.0
C      1  0.5702900000000  0.4759830000000  0.5262590000000 1.0
C      1  0.5203110000000  0.5740720000000  0.5186930000000 1.0
C      1  0.4727240000000  0.5740720000000  0.5068320000000 1.0
C      1  0.5067890000000  0.5740720000000  0.4715510000000 1.0
C      1  0.4172200000000  0.4659650000000  0.4923560000000 1.0
C      1  0.5470780000000  0.4659650000000  0.4307220000000 1.0
C      1  0.5355260000000  0.4659650000000  0.5739990000000 1.0
C      1  0.5008620000000  0.5212480000000  0.5367910000000 1.0
C      1  0.4667750000000  0.5212480000000  0.4809400000000 1.0
C      1  0.5321870000000  0.5212480000000  0.4793460000000 1.0
C      1  0.5158900000000  0.4310750000000  0.5112560000000 1.0
C      1  0.4813750000000  0.4310750000000  0.5067230000000 1.0
C      1  0.5025590000000  0.4310750000000  0.4790980000000 1.0
C      1  0.4549460000000  0.4510130000000  0.5325270000000 1.0
C      1  0.4934260000000  0.4510130000000  0.4433070000000 1.0
C      1  0.5514520000000  0.4510130000000  0.5212420000000 1.0
C      1  0.5241320000000  0.5322620000000  0.5190540000000 1.0
C      1  0.4705010000000  0.5322620000000  0.5099610000000 1.0
C      1  0.5051910000000  0.5322620000000  0.4680620000000 1.0
C      1  0.5707240000000  0.4600780000000  0.4706310000000 1.0
C      1  0.4891400000000  0.4600780000000  0.5745230000000 1.0
C      1  0.4399590000000  0.4600780000000  0.4519230000000 1.0
C      1  0.5111810000000  0.4996910000000  0.4320680000000 1.0
C      1  0.5523080000000  0.4996910000000  0.5422380000000 1.0
C      1  0.4363350000000  0.4996910000000  0.5227710000000 1.0
C      1  0.4926980000000  0.5696190000000  0.5274560000000 1.0
C      1  0.4789410000000  0.5696190000000  0.4785380000000 1.0
C      1  0.5281840000000  0.5696190000000  0.4910830000000 1.0
C      1  0.5117050000000  0.4629840000000  0.5278130000000 1.0
C      1  0.4691290000000  0.4629840000000  0.4948190000000 1.0
C      1  0.5189900000000  0.4629840000000  0.4744440000000 1.0
C      1  0.4641310000000  0.4908390000000  0.5100430000000 1.0
C      1  0.5083050000000  0.4908390000000  0.4625040000000 1.0
C      1  0.5273880000000  0.4908390000000  0.5245300000000 1.0
C      1  0.5750150000000  0.4981310000000  0.5040520000000 1.0
C      1  0.4580510000000  0.4981310000000  0.5615290000000 1.0
C      1  0.4667570000000  0.4981310000000  0.4314960000000 1.0
C      1  0.5012540000000  0.4329340000000  0.5587230000000 1.0
C      1  0.4475850000000  0.4329330000000  0.4703140000000 1.0
C      1  0.5509850000000  0.4329340000000  0.4680390000000 1.0
C      1  0.4409040000000  0.4481490000000  0.4994710000000 1.0
C      1  0.5290740000000  0.4481490000000  0.4476750000000 1.0
C      1  0.5298460000000  0.4481490000000  0.5499310000000 1.0
C      1  0.4878050000000  0.5476820000000  0.5540020000000 1.0
C      1  0.4583990000000  0.5476820000000  0.4610270000000 1.0
C      1  0.5536200000000  0.5476820000000  0.4820480000000 1.0
C      1  0.5460660000000  0.4682480000000  0.4900590000000 1.0
C      1  0.4846440000000  0.4682480000000  0.5434540000000 1.0
C      1  0.4691140000000  0.4682480000000  0.4635640000000 1.0
C      1  0.5280410000000  0.5179910000000  0.5819930000000 1.0
C      1  0.4140390000000  0.5179910000000  0.4818770000000 1.0
C      1  0.5577440000000  0.5179910000000  0.4332070000000 1.0
C      1  0.5634090000000  0.4890340000000  0.4411090000000 1.0
C      1  0.5183650000000  0.4890340000000  0.5829490000000 1.0
C      1  0.4180500000000  0.4890340000000  0.4730190000000 1.0
C      1  0.4396420000000  0.5490200000000  0.5127930000000 1.0
C      1  0.5181680000000  0.5490200000000  0.4399210000000 1.0
C      1  0.5420140000000  0.5490200000000  0.5443620000000 1.0
C      1  0.4325770000000  0.5249880000000  0.4569130000000 1.0
C      1  0.5700940000000  0.5249880000000  0.4617420000000 1.0
C      1  0.4971530000000  0.5249880000000  0.5784210000000 1.0
C      1  0.4999410000000  0.5395650000000  0.4990260000000 1.0
C      1  0.4999410000000  0.4679030000000  0.4990260000000 1.0
END
