TITL C-862502-1143-220 0.0159162186064617 125000 -356.770084877004 0 0 62 (C2) n - 1
REM
REM in /home/nfs/bkarasulu/CARBON/AIRSS/Generating-Clusters/TERSOFF/Higher-Symm/FIRE-HFTN
REM
REM
REM
REM
REM
REM ./C.cell (b20cbc046b6831c77cfcea5457e17084)
REM AIRSS Version 0.9.1 bugfix July 2018 build 013d7b7c2542+ Fri, 06 Jul 2018 19:26:36 +0100
REM compiler GCC version 9.2.1 20190827 (Red Hat 9.2.1-1)
REM options -cpp -mtune=generic -march=x86-64 -g -O0 -fpre-include=/usr/include/finclude/math-vector-fortran.h
REM seed -1300538923 1988797752 1617749397 -1097672427 1386779597 -1218900526 1350188865 623969948 -611919974 689468765 -1682658416 -2071022455 2027388370 1880735626 -1012008852 -1576316198 1007034248 -974283740 764278501 -1919403192 1910212934 -91988642 -2132608513 -93113334 -1761091073 -772353425 733816528 1898612826 -755546162 160917800 233223551 1547433768 1895220449
REM
CELL 1.54180   50.00000   50.00000   50.00000   90.00000   90.00000   90.00000
LATT -1
SFAC C  
C      1  0.5266660000000  0.4429920000000  0.4586880000000 1.0
C      1  0.5266660000000  0.5570080000000  0.5413120000000 1.0
C      1  0.4620270000000  0.4483420000000  0.4549520000000 1.0
C      1  0.4620270000000  0.5516580000000  0.5450480000000 1.0
C      1  0.4602970000000  0.4448790000000  0.4837700000000 1.0
C      1  0.4602970000000  0.5551210000000  0.5162290000000 1.0
C      1  0.5286700000000  0.4483190000000  0.4874650000000 1.0
C      1  0.5286700000000  0.5516810000000  0.5125350000000 1.0
C      1  0.5602850000000  0.4542580000000  0.5289180000000 1.0
C      1  0.5602850000000  0.5457420000000  0.4710820000000 1.0
C      1  0.4412240000000  0.4557270000000  0.5307460000000 1.0
C      1  0.4412240000000  0.5442730000000  0.4692540000000 1.0
C      1  0.5198550000000  0.5020940000000  0.4184620000000 1.0
C      1  0.5198550000000  0.4979060000000  0.5815380000000 1.0
C      1  0.4903120000000  0.5009740000000  0.4220760000000 1.0
C      1  0.4903120000000  0.4990260000000  0.5779240000000 1.0
C      1  0.4405090000000  0.4610090000000  0.5002240000000 1.0
C      1  0.4405090000000  0.5389910000000  0.4997760000000 1.0
C      1  0.5536030000000  0.4618230000000  0.4997060000000 1.0
C      1  0.5536030000000  0.5381770000000  0.5002940000000 1.0
C      1  0.4487880000000  0.4797980000000  0.5498190000000 1.0
C      1  0.4487880000000  0.5202020000000  0.4501810000000 1.0
C      1  0.5588500000000  0.4771240000000  0.5510140000000 1.0
C      1  0.5588500000000  0.5228760000000  0.4489860000000 1.0
C      1  0.5367540000000  0.4740230000000  0.5744730000000 1.0
C      1  0.5367540000000  0.5259770000000  0.4255270000000 1.0
C      1  0.4736510000000  0.4759480000000  0.5689550000000 1.0
C      1  0.4736510000000  0.5240520000000  0.4310450000000 1.0
C      1  0.5108480000000  0.4587290000000  0.4395730000000 1.0
C      1  0.5108480000000  0.5412710000000  0.5604270000000 1.0
C      1  0.4819710000000  0.4646060000000  0.4413460000000 1.0
C      1  0.4819710000000  0.5353940000000  0.5586540000000 1.0
C      1  0.4885740000000  0.5310110000000  0.4723110000000 1.0
C      1  0.4885740000000  0.4689890000000  0.5276890000000 1.0
C      1  0.5146560000000  0.5307860000000  0.4608880000000 1.0
C      1  0.5146560000000  0.4692140000000  0.5391120000000 1.0
C      1  0.4809720000000  0.5712820000000  0.5032760000000 1.0
C      1  0.4809720000000  0.4287180000000  0.4967240000000 1.0
C      1  0.5071130000000  0.5612850000000  0.4947380000000 1.0
C      1  0.5071130000000  0.4387150000000  0.5052620000000 1.0
C      1  0.5529300000000  0.4960950000000  0.4627400000000 1.0
C      1  0.5529300000000  0.5039050000000  0.5372600000000 1.0
C      1  0.4527680000000  0.4959600000000  0.4676570000000 1.0
C      1  0.4527680000000  0.5040400000000  0.5323430000000 1.0
C      1  0.4893220000000  0.4506620000000  0.5706660000000 1.0
C      1  0.4893220000000  0.5493380000000  0.4293340000000 1.0
C      1  0.5185760000000  0.4498710000000  0.5765590000000 1.0
C      1  0.5185760000000  0.5501290000000  0.4234410000000 1.0
C      1  0.5613270000000  0.4889300000000  0.4899800000000 1.0
C      1  0.5613270000000  0.5110700000000  0.5100200000000 1.0
C      1  0.4350870000000  0.4888310000000  0.4900110000000 1.0
C      1  0.4350870000000  0.5111690000000  0.5099890000000 1.0
C      1  0.4799810000000  0.4975190000000  0.5233840000000 1.0
C      1  0.4799820000000  0.5024810000000  0.4766160000000 1.0
C      1  0.5240230000000  0.4980290000000  0.5397500000000 1.0
C      1  0.5240230000000  0.5019710000000  0.4602500000000 1.0
C      1  0.5329970000000  0.4470320000000  0.5372420000000 1.0
C      1  0.5329970000000  0.5529680000000  0.4627580000000 1.0
C      1  0.4697890000000  0.4478750000000  0.5323880000000 1.0
C      1  0.4697890000000  0.5521250000000  0.4676120000000 1.0
C      1  0.5030090000000  0.4847470000000  0.4715960000000 1.0
C      1  0.5030090000000  0.5152530000000  0.5284040000000 1.0
END
