TITL C-862132-7359-272 0.000530725561559938 125000 -183.491229736457 0 0 33 (C1) n - 1
REM
REM in /home/nfs/bkarasulu/CARBON/AIRSS/Generating-Clusters/TERSOFF/Higher-Symm/FIRE-HFTN
REM
REM
REM
REM
REM
REM ./C.cell (b20cbc046b6831c77cfcea5457e17084)
REM AIRSS Version 0.9.1 bugfix July 2018 build 013d7b7c2542+ Fri, 06 Jul 2018 19:26:36 +0100
REM compiler GCC version 9.2.1 20190827 (Red Hat 9.2.1-1)
REM options -cpp -mtune=generic -march=x86-64 -g -O0 -fpre-include=/usr/include/finclude/math-vector-fortran.h
REM seed 1324079104 -1656387680 257095208 -837530040 -469641961 -1819613576 224832922 -44639349 -1818961984 227431894 1118361804 358258226 -999634286 2122041660 -1376105201 690810762 -1004338808 -1885533202 -1527085704 -1604264272 1276586214 1440192239 715159141 -91266705 -778906429 684395448 -1276840813 544529627 -375213033 -953153446 -1337897793 1608960715 956736469
REM
CELL 1.54180   50.00000   50.00000   50.00000   90.00000   90.00000   90.00000
LATT -1
SFAC C  
C      1  0.4597050000000  0.4793570000000  0.4962160000000 1.0
C      1  0.5103180000000  0.5552250000000  0.4994180000000 1.0
C      1  0.5019190000000  0.4446300000000  0.5098910000000 1.0
C      1  0.4543440000000  0.5293990000000  0.5258360000000 1.0
C      1  0.4686630000000  0.5053310000000  0.5396850000000 1.0
C      1  0.5051880000000  0.5499770000000  0.4532960000000 1.0
C      1  0.5435420000000  0.4843580000000  0.4694220000000 1.0
C      1  0.4665640000000  0.4784790000000  0.5273910000000 1.0
C      1  0.5496160000000  0.4509830000000  0.5303680000000 1.0
C      1  0.4652620000000  0.5068990000000  0.4520750000000 1.0
C      1  0.4950310000000  0.5127690000000  0.5528780000000 1.0
C      1  0.5423380000000  0.5038950000000  0.5265670000000 1.0
C      1  0.5205840000000  0.4977720000000  0.5490860000000 1.0
C      1  0.5051710000000  0.4679460000000  0.4740790000000 1.0
C      1  0.4534810000000  0.5309520000000  0.4954020000000 1.0
C      1  0.4554540000000  0.5058230000000  0.4803330000000 1.0
C      1  0.5344700000000  0.5119850000000  0.4728790000000 1.0
C      1  0.4468670000000  0.4554530000000  0.4852050000000 1.0
C      1  0.5132950000000  0.5223850000000  0.4532390000000 1.0
C      1  0.5503710000000  0.4669420000000  0.4915630000000 1.0
C      1  0.4932750000000  0.5609840000000  0.4769130000000 1.0
C      1  0.4905410000000  0.4600920000000  0.5322840000000 1.0
C      1  0.5035160000000  0.4753910000000  0.4465200000000 1.0
C      1  0.4936070000000  0.5025670000000  0.4437660000000 1.0
C      1  0.4642150000000  0.5557000000000  0.4820670000000 1.0
C      1  0.5110940000000  0.4699380000000  0.5507010000000 1.0
C      1  0.5014240000000  0.5358190000000  0.5183610000000 1.0
C      1  0.4780980000000  0.5457080000000  0.5330940000000 1.0
C      1  0.4903580000000  0.4838230000000  0.4932580000000 1.0
C      1  0.5030000000000  0.5044130000000  0.5116230000000 1.0
C      1  0.5392040000000  0.5229140000000  0.5013320000000 1.0
C      1  0.5585210000000  0.4795380000000  0.5198780000000 1.0
C      1  0.5309620000000  0.4425530000000  0.5053730000000 1.0
END
