TITL C-862130-1496-1075 -0.00163613145500007 125000 -662.618784893636 0 0 127 (C3h) n - 1
REM
REM in /home/nfs/bkarasulu/CARBON/AIRSS/Generating-Clusters/TERSOFF/Higher-Symm/FIRE-HFTN
REM
REM
REM
REM
REM
REM ./C.cell (b20cbc046b6831c77cfcea5457e17084)
REM AIRSS Version 0.9.1 bugfix July 2018 build 013d7b7c2542+ Fri, 06 Jul 2018 19:26:36 +0100
REM compiler GCC version 9.2.1 20190827 (Red Hat 9.2.1-1)
REM options -cpp -mtune=generic -march=x86-64 -g -O0 -fpre-include=/usr/include/finclude/math-vector-fortran.h
REM seed 702433692 -931618259 872833740 -252490413 2143697956 664066605 813870407 -1246299596 -224653269 2025839389 892131711 2041046689 -203591371 -1568944070 -2096750244 1069783495 136998636 1082334221 -74004978 -1789682562 -1743804705 -939149117 -1818321604 631872865 369516583 -1146100699 1041045548 1672671248 1436541723 -1159611110 1572501909 550578385 -1931689998
REM
CELL 1.54180   50.00000   50.00000   50.00000   90.00000   90.00000   90.00000
LATT -1
SFAC C  
C      1  0.4826160000000  0.4501350000000  0.5308260000000 1.0
C      1  0.4822220000000  0.4501350000000  0.4688670000000 1.0
C      1  0.5360770000000  0.4501350000000  0.4995060000000 1.0
C      1  0.4826160000000  0.5494860000000  0.5308260000000 1.0
C      1  0.4822230000000  0.5494860000000  0.4688670000000 1.0
C      1  0.5360770000000  0.5494860000000  0.4995060000000 1.0
C      1  0.5299350000000  0.4346660000000  0.4761260000000 1.0
C      1  0.5059350000000  0.4346660000000  0.5371970000000 1.0
C      1  0.4650450000000  0.4346660000000  0.4858760000000 1.0
C      1  0.5299350000000  0.5649550000000  0.4761260000000 1.0
C      1  0.5059350000000  0.5649540000000  0.5371980000000 1.0
C      1  0.4650450000000  0.5649550000000  0.4858770000000 1.0
C      1  0.4687630000000  0.4735660000000  0.4537570000000 1.0
C      1  0.5558930000000  0.4735650000000  0.4954050000000 1.0
C      1  0.4762590000000  0.4735650000000  0.5500380000000 1.0
C      1  0.4687630000000  0.5260560000000  0.4537570000000 1.0
C      1  0.5558930000000  0.5260550000000  0.4954050000000 1.0
C      1  0.4762590000000  0.5260550000000  0.5500380000000 1.0
C      1  0.5543570000000  0.5806230000000  0.4666950000000 1.0
C      1  0.5018910000000  0.5806230000000  0.5630630000000 1.0
C      1  0.4446670000000  0.5806240000000  0.4694420000000 1.0
C      1  0.5543570000000  0.4189970000000  0.4666950000000 1.0
C      1  0.5018910000000  0.4189970000000  0.5630630000000 1.0
C      1  0.4446670000000  0.4189980000000  0.4694420000000 1.0
C      1  0.5790000000000  0.5586700000000  0.5081570000000 1.0
C      1  0.4536630000000  0.5586700000000  0.5636730000000 1.0
C      1  0.4682530000000  0.5586700000000  0.4273700000000 1.0
C      1  0.5790000000000  0.4409510000000  0.5081570000000 1.0
C      1  0.4536630000000  0.4409510000000  0.5636730000000 1.0
C      1  0.4682530000000  0.4409510000000  0.4273700000000 1.0
C      1  0.5516760000000  0.5598640000000  0.5473820000000 1.0
C      1  0.4333550000000  0.5598640000000  0.5203980000000 1.0
C      1  0.5158840000000  0.5598640000000  0.4314210000000 1.0
C      1  0.5516760000000  0.4397570000000  0.5473820000000 1.0
C      1  0.4333550000000  0.4397570000000  0.5203980000000 1.0
C      1  0.5158840000000  0.4397570000000  0.4314200000000 1.0
C      1  0.4730240000000  0.4135770000000  0.4505000000000 1.0
C      1  0.5565820000000  0.4135770000000  0.5007240000000 1.0
C      1  0.4713090000000  0.4135770000000  0.5479750000000 1.0
C      1  0.4730240000000  0.5860440000000  0.4505010000000 1.0
C      1  0.5565830000000  0.5860430000000  0.5007240000000 1.0
C      1  0.4713090000000  0.5860440000000  0.5479760000000 1.0
C      1  0.5892550000000  0.5179300000000  0.4684670000000 1.0
C      1  0.4829080000000  0.5179300000000  0.5923990000000 1.0
C      1  0.4287530000000  0.5179300000000  0.4383340000000 1.0
C      1  0.5892540000000  0.4816910000000  0.4684670000000 1.0
C      1  0.4829080000000  0.4816910000000  0.5923990000000 1.0
C      1  0.4287530000000  0.4816910000000  0.4383340000000 1.0
C      1  0.5428550000000  0.4493180000000  0.4256060000000 1.0
C      1  0.5432260000000  0.4493180000000  0.5736460000000 1.0
C      1  0.4148340000000  0.4493180000000  0.4999470000000 1.0
C      1  0.5428550000000  0.5503030000000  0.4256070000000 1.0
C      1  0.5432260000000  0.5503030000000  0.5736460000000 1.0
C      1  0.4148340000000  0.5503030000000  0.4999470000000 1.0
C      1  0.4283190000000  0.4821750000000  0.5259810000000 1.0
C      1  0.5135660000000  0.4821750000000  0.4242670000000 1.0
C      1  0.5590300000000  0.4821740000000  0.5489510000000 1.0
C      1  0.4283190000000  0.5174470000000  0.5259810000000 1.0
C      1  0.5135670000000  0.5174470000000  0.4242680000000 1.0
C      1  0.5590300000000  0.5174460000000  0.5489510000000 1.0
C      1  0.4677010000000  0.4850390000000  0.4231800000000 1.0
C      1  0.5829040000000  0.4850380000000  0.5097740000000 1.0
C      1  0.4503100000000  0.4850380000000  0.5662460000000 1.0
C      1  0.4677010000000  0.5145830000000  0.4231800000000 1.0
C      1  0.5829040000000  0.5145820000000  0.5097740000000 1.0
C      1  0.4503100000000  0.5145820000000  0.5662460000000 1.0
C      1  0.4647200000000  0.4539780000000  0.5905300000000 1.0
C      1  0.4394650000000  0.4539780000000  0.4235180000000 1.0
C      1  0.5967290000000  0.4539780000000  0.4851520000000 1.0
C      1  0.4647200000000  0.5456430000000  0.5905300000000 1.0
C      1  0.4394660000000  0.5456430000000  0.4235180000000 1.0
C      1  0.5967300000000  0.5456430000000  0.4851520000000 1.0
C      1  0.4939470000000  0.4051340000000  0.4791490000000 1.0
C      1  0.5213110000000  0.4051330000000  0.5045190000000 1.0
C      1  0.4856570000000  0.4051340000000  0.5155310000000 1.0
C      1  0.4939480000000  0.5944870000000  0.4791490000000 1.0
C      1  0.5213110000000  0.5944870000000  0.5045200000000 1.0
C      1  0.4856570000000  0.5944870000000  0.5155320000000 1.0
C      1  0.4292100000000  0.4648320000000  0.5534180000000 1.0
C      1  0.4893600000000  0.4648320000000  0.4113210000000 1.0
C      1  0.5823450000000  0.4648320000000  0.5344610000000 1.0
C      1  0.4292100000000  0.5347890000000  0.5534180000000 1.0
C      1  0.4893610000000  0.5347890000000  0.4113210000000 1.0
C      1  0.5823450000000  0.5347890000000  0.5344610000000 1.0
C      1  0.4199700000000  0.4817640000000  0.4919620000000 1.0
C      1  0.5472030000000  0.4817640000000  0.4340460000000 1.0
C      1  0.5337420000000  0.4817640000000  0.5731910000000 1.0
C      1  0.4199700000000  0.5178570000000  0.4919620000000 1.0
C      1  0.5472030000000  0.5178570000000  0.4340470000000 1.0
C      1  0.5337430000000  0.5178570000000  0.5731920000000 1.0
C      1  0.4727700000000  0.4788490000000  0.4998850000000 1.0
C      1  0.5139410000000  0.4788490000000  0.4758110000000 1.0
C      1  0.5142040000000  0.4788490000000  0.5235040000000 1.0
C      1  0.4727700000000  0.5207720000000  0.4998850000000 1.0
C      1  0.5139420000000  0.5207720000000  0.4758110000000 1.0
C      1  0.5142040000000  0.5207720000000  0.5235040000000 1.0
C      1  0.4189200000000  0.4365040000000  0.4700000000000 1.0
C      1  0.5667470000000  0.4365040000000  0.4441190000000 1.0
C      1  0.5152480000000  0.4365040000000  0.5850810000000 1.0
C      1  0.4189200000000  0.5631170000000  0.4700000000000 1.0
C      1  0.5667470000000  0.5631170000000  0.4441190000000 1.0
C      1  0.5152480000000  0.5631170000000  0.5850810000000 1.0
C      1  0.5431180000000  0.5150490000000  0.4697620000000 1.0
C      1  0.5048550000000  0.5150490000000  0.5517960000000 1.0
C      1  0.4529430000000  0.5150490000000  0.4776420000000 1.0
C      1  0.5431180000000  0.4845720000000  0.4697620000000 1.0
C      1  0.5048550000000  0.4845720000000  0.5517960000000 1.0
C      1  0.4529430000000  0.4845720000000  0.4776420000000 1.0
C      1  0.4170180000000  0.4686850000000  0.4627850000000 1.0
C      1  0.5739470000000  0.4686850000000  0.4460780000000 1.0
C      1  0.5099510000000  0.4686850000000  0.5903360000000 1.0
C      1  0.4170180000000  0.5309360000000  0.4627850000000 1.0
C      1  0.5739470000000  0.5309360000000  0.4460780000000 1.0
C      1  0.5099510000000  0.5309360000000  0.5903360000000 1.0
C      1  0.5076480000000  0.4393890000000  0.4590980000000 1.0
C      1  0.5318240000000  0.4393890000000  0.5264100000000 1.0
C      1  0.4614430000000  0.4393890000000  0.5136910000000 1.0
C      1  0.5076480000000  0.5602320000000  0.4590990000000 1.0
C      1  0.5318240000000  0.5602310000000  0.5264100000000 1.0
C      1  0.4614430000000  0.5602320000000  0.5136910000000 1.0
C      1  0.5427260000000  0.5145960000000  0.5218300000000 1.0
C      1  0.4599580000000  0.5145960000000  0.5254230000000 1.0
C      1  0.4982310000000  0.5145960000000  0.4519470000000 1.0
C      1  0.5427260000000  0.4850250000000  0.5218300000000 1.0
C      1  0.4599580000000  0.4850250000000  0.5254230000000 1.0
C      1  0.4982310000000  0.4850250000000  0.4519470000000 1.0
C      1  0.5003050000000  0.4998100000000  0.4997330000000 1.0
END
