TITL C-862507-1800-421 0.717978886801357 125000 -1109.30069330912 0 0 191 (C1) n - 1
REM
REM in /home/nfs/bkarasulu/CARBON/AIRSS/Generating-Clusters/TERSOFF/Higher-Symm/FIRE-HFTN
REM
REM
REM
REM
REM
REM ./C.cell (b20cbc046b6831c77cfcea5457e17084)
REM AIRSS Version 0.9.1 bugfix July 2018 build 013d7b7c2542+ Fri, 06 Jul 2018 19:26:36 +0100
REM compiler GCC version 9.2.1 20190827 (Red Hat 9.2.1-1)
REM options -cpp -mtune=generic -march=x86-64 -g -O0 -fpre-include=/usr/include/finclude/math-vector-fortran.h
REM seed -1062588112 52324761 1994485257 -50835092 -1757443122 188195020 1565595940 352134507 148635871 982322079 -1569285733 -193215499 -128452439 397518826 896846097 -2119063503 1596714580 -787857058 -887769663 -2095528224 134483383 -1558286016 -658418772 1787571273 525686422 642430169 -1146869731 482095915 1635136638 112995912 -639987623 -41980091 1431559306
REM
CELL 1.54180   50.00000   50.00000   50.00000   90.00000   90.00000   90.00000
LATT -1
SFAC C  
C      1  0.4936780000000  0.5800830000000  0.4537460000000 1.0
C      1  0.5059760000000  0.4200440000000  0.5467210000000 1.0
C      1  0.5460740000000  0.5628650000000  0.5504510000000 1.0
C      1  0.4526030000000  0.4368620000000  0.4493780000000 1.0
C      1  0.5838320000000  0.5030820000000  0.4253870000000 1.0
C      1  0.4167290000000  0.4969580000000  0.5741670000000 1.0
C      1  0.5118510000000  0.3844190000000  0.5085330000000 1.0
C      1  0.4871690000000  0.6156800000000  0.4928100000000 1.0
C      1  0.4555670000000  0.6007680000000  0.5305820000000 1.0
C      1  0.5449670000000  0.3982560000000  0.4721050000000 1.0
C      1  0.6043260000000  0.4645630000000  0.4636590000000 1.0
C      1  0.3968990000000  0.5365750000000  0.5362180000000 1.0
C      1  0.5953280000000  0.5040720000000  0.4926430000000 1.0
C      1  0.4033860000000  0.4964320000000  0.5066010000000 1.0
C      1  0.5281320000000  0.4064170000000  0.4250860000000 1.0
C      1  0.4751310000000  0.5949560000000  0.5775010000000 1.0
C      1  0.4772720000000  0.5910450000000  0.5490630000000 1.0
C      1  0.5242680000000  0.4087100000000  0.4532110000000 1.0
C      1  0.5234490000000  0.6127440000000  0.5425040000000 1.0
C      1  0.4776890000000  0.3883990000000  0.4568130000000 1.0
C      1  0.4178150000000  0.5353260000000  0.4395080000000 1.0
C      1  0.5811920000000  0.4660060000000  0.5612450000000 1.0
C      1  0.4610670000000  0.5942850000000  0.4229120000000 1.0
C      1  0.5387790000000  0.4068050000000  0.5781180000000 1.0
C      1  0.4563990000000  0.4680080000000  0.4031380000000 1.0
C      1  0.5392250000000  0.5341800000000  0.5977770000000 1.0
C      1  0.4628660000000  0.5219090000000  0.3892780000000 1.0
C      1  0.5348800000000  0.4805610000000  0.6105750000000 1.0
C      1  0.5241890000000  0.4791580000000  0.4196450000000 1.0
C      1  0.4734790000000  0.5190180000000  0.5767430000000 1.0
C      1  0.4855700000000  0.5277280000000  0.4359060000000 1.0
C      1  0.5138770000000  0.4726520000000  0.5639870000000 1.0
C      1  0.4882630000000  0.4662720000000  0.5434660000000 1.0
C      1  0.5120940000000  0.5333720000000  0.4566450000000 1.0
C      1  0.3900440000000  0.5073640000000  0.5330650000000 1.0
C      1  0.6100260000000  0.4940890000000  0.4669810000000 1.0
C      1  0.4118940000000  0.4230060000000  0.5097040000000 1.0
C      1  0.5879420000000  0.5779990000000  0.4903420000000 1.0
C      1  0.4616010000000  0.6032860000000  0.5015780000000 1.0
C      1  0.5379140000000  0.3962890000000  0.5006420000000 1.0
C      1  0.4230390000000  0.4932440000000  0.4582280000000 1.0
C      1  0.5757870000000  0.5073450000000  0.5416120000000 1.0
C      1  0.5690300000000  0.5733570000000  0.4664330000000 1.0
C      1  0.4306410000000  0.4288660000000  0.5334300000000 1.0
C      1  0.5588500000000  0.4490440000000  0.5516250000000 1.0
C      1  0.4405630000000  0.5518370000000  0.4493820000000 1.0
C      1  0.5076690000000  0.5319060000000  0.5141880000000 1.0
C      1  0.4915740000000  0.4680800000000  0.4854210000000 1.0
C      1  0.4549170000000  0.5425740000000  0.5248670000000 1.0
C      1  0.5452010000000  0.4553860000000  0.4746070000000 1.0
C      1  0.4573770000000  0.5054560000000  0.5584200000000 1.0
C      1  0.5423370000000  0.4908380000000  0.4392440000000 1.0
C      1  0.5106230000000  0.4212150000000  0.4083180000000 1.0
C      1  0.4940900000000  0.5825000000000  0.5952080000000 1.0
C      1  0.4613900000000  0.4613880000000  0.4742320000000 1.0
C      1  0.5377480000000  0.5388280000000  0.5250130000000 1.0
C      1  0.5599950000000  0.4035940000000  0.5576240000000 1.0
C      1  0.4401860000000  0.5976750000000  0.4437370000000 1.0
C      1  0.3799560000000  0.4985660000000  0.4498080000000 1.0
C      1  0.6186810000000  0.5029210000000  0.5495770000000 1.0
C      1  0.5677340000000  0.5797480000000  0.5374920000000 1.0
C      1  0.4316530000000  0.4192850000000  0.4625240000000 1.0
C      1  0.5905650000000  0.4271990000000  0.5198060000000 1.0
C      1  0.4094140000000  0.5741550000000  0.4812170000000 1.0
C      1  0.5499180000000  0.4592810000000  0.5963560000000 1.0
C      1  0.4485530000000  0.5429090000000  0.4044190000000 1.0
C      1  0.5446630000000  0.4529720000000  0.3875760000000 1.0
C      1  0.4596050000000  0.5492070000000  0.6123490000000 1.0
C      1  0.4513320000000  0.4741200000000  0.5954520000000 1.0
C      1  0.5476990000000  0.5248200000000  0.4047160000000 1.0
C      1  0.5487470000000  0.4695400000000  0.5143810000000 1.0
C      1  0.4508180000000  0.5308040000000  0.4847660000000 1.0
C      1  0.5523980000000  0.5075650000000  0.4877870000000 1.0
C      1  0.4449940000000  0.4912420000000  0.5107210000000 1.0
C      1  0.4848870000000  0.4749610000000  0.4336780000000 1.0
C      1  0.5133400000000  0.5261290000000  0.5657060000000 1.0
C      1  0.4556540000000  0.5787350000000  0.4873510000000 1.0
C      1  0.5437770000000  0.4213540000000  0.5140270000000 1.0
C      1  0.5562970000000  0.5462810000000  0.5734530000000 1.0
C      1  0.4406750000000  0.4529320000000  0.4266460000000 1.0
C      1  0.5979970000000  0.4819760000000  0.5421260000000 1.0
C      1  0.4008390000000  0.5189720000000  0.4581030000000 1.0
C      1  0.5268160000000  0.4998500000000  0.5603660000000 1.0
C      1  0.4722010000000  0.5011310000000  0.4395640000000 1.0
C      1  0.5011800000000  0.4439200000000  0.5027670000000 1.0
C      1  0.4986220000000  0.5562410000000  0.4970290000000 1.0
C      1  0.4397130000000  0.4979780000000  0.4029970000000 1.0
C      1  0.5577210000000  0.5041180000000  0.5970140000000 1.0
C      1  0.5620730000000  0.4759670000000  0.3918740000000 1.0
C      1  0.4434860000000  0.5249590000000  0.6055040000000 1.0
C      1  0.4216420000000  0.4758480000000  0.5208470000000 1.0
C      1  0.5759940000000  0.5230390000000  0.4785690000000 1.0
C      1  0.5514000000000  0.5035950000000  0.3840610000000 1.0
C      1  0.4531330000000  0.4973770000000  0.6138820000000 1.0
C      1  0.4487020000000  0.4278710000000  0.5772600000000 1.0
C      1  0.5505290000000  0.5715950000000  0.4232500000000 1.0
C      1  0.4984190000000  0.5719170000000  0.5391700000000 1.0
C      1  0.5027690000000  0.4282500000000  0.4621550000000 1.0
C      1  0.5757410000000  0.4748380000000  0.5890930000000 1.0
C      1  0.4228910000000  0.5272860000000  0.4115180000000 1.0
C      1  0.5086480000000  0.6107700000000  0.5146770000000 1.0
C      1  0.4906200000000  0.3894490000000  0.4860400000000 1.0
C      1  0.4994360000000  0.5409200000000  0.5433990000000 1.0
C      1  0.5005860000000  0.4597600000000  0.4557040000000 1.0
C      1  0.6038740000000  0.5291670000000  0.5093650000000 1.0
C      1  0.3943840000000  0.4711830000000  0.4892670000000 1.0
C      1  0.4111150000000  0.4660520000000  0.5463060000000 1.0
C      1  0.5864500000000  0.5340730000000  0.4535720000000 1.0
C      1  0.5066450000000  0.4857490000000  0.5247700000000 1.0
C      1  0.4929700000000  0.5136170000000  0.4747420000000 1.0
C      1  0.5956290000000  0.4499040000000  0.4953970000000 1.0
C      1  0.4042390000000  0.5512170000000  0.5043650000000 1.0
C      1  0.5212010000000  0.5887180000000  0.5881300000000 1.0
C      1  0.4827370000000  0.4154030000000  0.4127800000000 1.0
C      1  0.4276440000000  0.4808450000000  0.4309250000000 1.0
C      1  0.5715060000000  0.5201320000000  0.5688680000000 1.0
C      1  0.4650780000000  0.5497020000000  0.4297910000000 1.0
C      1  0.5343000000000  0.4511820000000  0.5708760000000 1.0
C      1  0.5430230000000  0.5305730000000  0.4528280000000 1.0
C      1  0.4574480000000  0.4645900000000  0.5487880000000 1.0
C      1  0.5427960000000  0.4848110000000  0.4685960000000 1.0
C      1  0.4557660000000  0.5125760000000  0.5296850000000 1.0
C      1  0.5713730000000  0.4382990000000  0.4791840000000 1.0
C      1  0.4288380000000  0.5601890000000  0.5225770000000 1.0
C      1  0.4425480000000  0.4821170000000  0.5690420000000 1.0
C      1  0.5564920000000  0.5149450000000  0.4303110000000 1.0
C      1  0.4866670000000  0.4199280000000  0.4867290000000 1.0
C      1  0.5126920000000  0.5802420000000  0.5135230000000 1.0
C      1  0.4951790000000  0.4497100000000  0.5940090000000 1.0
C      1  0.5038380000000  0.5509370000000  0.4060320000000 1.0
C      1  0.4646430000000  0.5103780000000  0.4679180000000 1.0
C      1  0.5347710000000  0.4897260000000  0.5318250000000 1.0
C      1  0.3772080000000  0.4751790000000  0.4661800000000 1.0
C      1  0.6211640000000  0.5258210000000  0.5324770000000 1.0
C      1  0.5851920000000  0.5522490000000  0.5072990000000 1.0
C      1  0.4130720000000  0.4477840000000  0.4908290000000 1.0
C      1  0.5517620000000  0.5109150000000  0.5208970000000 1.0
C      1  0.4471470000000  0.4894280000000  0.4785560000000 1.0
C      1  0.5303090000000  0.5887220000000  0.5606370000000 1.0
C      1  0.4709880000000  0.4132050000000  0.4392810000000 1.0
C      1  0.5452380000000  0.4442020000000  0.4452830000000 1.0
C      1  0.4596490000000  0.5532080000000  0.5535700000000 1.0
C      1  0.5342020000000  0.5516920000000  0.4063660000000 1.0
C      1  0.4651120000000  0.4476650000000  0.5944460000000 1.0
C      1  0.5188300000000  0.6156170000000  0.4472190000000 1.0
C      1  0.4796000000000  0.3851400000000  0.5536700000000 1.0
C      1  0.4917110000000  0.5053110000000  0.5993230000000 1.0
C      1  0.5055380000000  0.4967230000000  0.3978180000000 1.0
C      1  0.4836780000000  0.5733440000000  0.4259350000000 1.0
C      1  0.5158780000000  0.4273600000000  0.5745870000000 1.0
C      1  0.4230470000000  0.5245250000000  0.4976040000000 1.0
C      1  0.5766630000000  0.4762480000000  0.5016960000000 1.0
C      1  0.5179420000000  0.4490630000000  0.4017830000000 1.0
C      1  0.4881010000000  0.5552940000000  0.6035650000000 1.0
C      1  0.4296630000000  0.5866160000000  0.5384860000000 1.0
C      1  0.5717800000000  0.4108620000000  0.4651290000000 1.0
C      1  0.4354810000000  0.5769950000000  0.4657190000000 1.0
C      1  0.5643030000000  0.4240010000000  0.5352310000000 1.0
C      1  0.4608310000000  0.4242630000000  0.5295580000000 1.0
C      1  0.5387280000000  0.5769210000000  0.4705400000000 1.0
C      1  0.3874470000000  0.5370480000000  0.4792730000000 1.0
C      1  0.6115150000000  0.4635680000000  0.5213490000000 1.0
C      1  0.5061400000000  0.4786490000000  0.6047350000000 1.0
C      1  0.4916630000000  0.5233780000000  0.3946440000000 1.0
C      1  0.5919280000000  0.4560960000000  0.4366670000000 1.0
C      1  0.4113190000000  0.5446250000000  0.5622050000000 1.0
C      1  0.5557230000000  0.5492940000000  0.5043070000000 1.0
C      1  0.4428470000000  0.4508580000000  0.4946080000000 1.0
C      1  0.5772510000000  0.5605470000000  0.4408050000000 1.0
C      1  0.4215340000000  0.4399440000000  0.5601330000000 1.0
C      1  0.5391920000000  0.5873580000000  0.4979430000000 1.0
C      1  0.4602510000000  0.4134310000000  0.5023320000000 1.0
C      1  0.5320130000000  0.4455660000000  0.5025610000000 1.0
C      1  0.4678090000000  0.5541030000000  0.4973160000000 1.0
C      1  0.4414150000000  0.5738710000000  0.5636850000000 1.0
C      1  0.5643790000000  0.4230430000000  0.4382370000000 1.0
C      1  0.4939330000000  0.6090840000000  0.4630910000000 1.0
C      1  0.5048360000000  0.3910040000000  0.5381530000000 1.0
C      1  0.4875280000000  0.4683040000000  0.4026950000000 1.0
C      1  0.5078820000000  0.5329800000000  0.5963490000000 1.0
C      1  0.5837380000000  0.4761150000000  0.4147570000000 1.0
C      1  0.4203080000000  0.5245440000000  0.5834370000000 1.0
C      1  0.3939580000000  0.4887450000000  0.5574250000000 1.0
C      1  0.6055340000000  0.5128820000000  0.4426690000000 1.0
C      1  0.5661180000000  0.5895290000000  0.5103760000000 1.0
C      1  0.4332490000000  0.4102440000000  0.4899750000000 1.0
C      1  0.4610800000000  0.4084310000000  0.5554520000000 1.0
C      1  0.5379110000000  0.5926260000000  0.4442230000000 1.0
C      1  0.4897040000000  0.4395240000000  0.5307800000000 1.0
C      1  0.5103740000000  0.5604170000000  0.4691130000000 1.0
C      1  0.4993300000000  0.5000370000000  0.5001260000000 1.0
END
