TITL C-862501-1041-1192 -33.4123865046896 125000 -346.611002911336 0 0 67 (C3) n - 1
REM
REM in /home/nfs/bkarasulu/CARBON/AIRSS/Generating-Clusters/TERSOFF/Higher-Symm/FIRE-HFTN
REM
REM
REM
REM
REM
REM ./C.cell (b20cbc046b6831c77cfcea5457e17084)
REM AIRSS Version 0.9.1 bugfix July 2018 build 013d7b7c2542+ Fri, 06 Jul 2018 19:26:36 +0100
REM compiler GCC version 9.2.1 20190827 (Red Hat 9.2.1-1)
REM options -cpp -mtune=generic -march=x86-64 -g -O0 -fpre-include=/usr/include/finclude/math-vector-fortran.h
REM seed -2089589720 -169068123 -1772268031 1307320044 1417906391 -1922483282 -1556620169 -157092034 -1805954413 880373725 -26206696 483034587 245571221 1352588321 862371510 -2048903084 -868189799 69979108 1937334101 375541503 2072884493 -1979732979 -1777159429 732573353 861357606 -940704411 -1544236256 -295720304 -1454461983 -1970922732 1015191539 59593222 -959070123
REM
CELL 1.54180   50.00000   50.00000   50.00000   90.00000   90.00000   90.00000
LATT -1
SFAC C  
C      1  0.4820850000000  0.5513510000000  0.5614960000000 1.0
C      1  0.5533220000000  0.4914570000000  0.5614960000000 1.0
C      1  0.4658340000000  0.4597100000000  0.5614960000000 1.0
C      1  0.4909310000000  0.4366190000000  0.4933230000000 1.0
C      1  0.4495390000000  0.5411620000000  0.4933230000000 1.0
C      1  0.5607710000000  0.5247370000000  0.4933240000000 1.0
C      1  0.5041880000000  0.4510590000000  0.4442600000000 1.0
C      1  0.4554150000000  0.5224610000000  0.4442600000000 1.0
C      1  0.5416380000000  0.5289980000000  0.4442600000000 1.0
C      1  0.4549010000000  0.5140460000000  0.5496200000000 1.0
C      1  0.5346070000000  0.5336510000000  0.5496210000000 1.0
C      1  0.5117330000000  0.4548210000000  0.5496200000000 1.0
C      1  0.5281040000000  0.4869000000000  0.5282360000000 1.0
C      1  0.4744960000000  0.4838280000000  0.5282360000000 1.0
C      1  0.4986400000000  0.5317900000000  0.5282360000000 1.0
C      1  0.4365440000000  0.5387410000000  0.5469920000000 1.0
C      1  0.5651720000000  0.5372010000000  0.5469920000000 1.0
C      1  0.4995240000000  0.4265760000000  0.5469920000000 1.0
C      1  0.4677510000000  0.5564580000000  0.5123660000000 1.0
C      1  0.5649120000000  0.5013160000000  0.5123660000000 1.0
C      1  0.4685780000000  0.4447440000000  0.5123650000000 1.0
C      1  0.5545700000000  0.4857130000000  0.4534960000000 1.0
C      1  0.4602350000000  0.4615020000000  0.4534950000000 1.0
C      1  0.4864360000000  0.5553030000000  0.4534960000000 1.0
C      1  0.5235350000000  0.5483180000000  0.4350890000000 1.0
C      1  0.5299700000000  0.4570770000000  0.4350890000000 1.0
C      1  0.4477360000000  0.4971240000000  0.4350890000000 1.0
C      1  0.4877460000000  0.4700320000000  0.4572870000000 1.0
C      1  0.4800680000000  0.5272130000000  0.4572870000000 1.0
C      1  0.5334270000000  0.5052730000000  0.4572870000000 1.0
C      1  0.5625430000000  0.4715520000000  0.5016380000000 1.0
C      1  0.4439850000000  0.4616780000000  0.5016370000000 1.0
C      1  0.4947130000000  0.5692890000000  0.5016380000000 1.0
C      1  0.4714980000000  0.4374480000000  0.5412820000000 1.0
C      1  0.4599730000000  0.5575770000000  0.5412830000000 1.0
C      1  0.5697700000000  0.5074930000000  0.5412830000000 1.0
C      1  0.5257870000000  0.5694340000000  0.4572860000000 1.0
C      1  0.5471320000000  0.4445690000000  0.4572850000000 1.0
C      1  0.4283230000000  0.4885160000000  0.4572850000000 1.0
C      1  0.5475080000000  0.5509880000000  0.5006780000000 1.0
C      1  0.5202970000000  0.4349800000000  0.5006770000000 1.0
C      1  0.4334360000000  0.5165500000000  0.5006770000000 1.0
C      1  0.4761030000000  0.5226560000000  0.5707870000000 1.0
C      1  0.5314630000000  0.5109840000000  0.5707870000000 1.0
C      1  0.4936750000000  0.4688780000000  0.5707870000000 1.0
C      1  0.4490080000000  0.4820240000000  0.5493050000000 1.0
C      1  0.5098220000000  0.5547660000000  0.5493050000000 1.0
C      1  0.5424110000000  0.4657290000000  0.5493050000000 1.0
C      1  0.4719430000000  0.5149920000000  0.5173400000000 1.0
C      1  0.5269050000000  0.5184200000000  0.5173400000000 1.0
C      1  0.5023930000000  0.4691070000000  0.5173400000000 1.0
C      1  0.5280600000000  0.4849650000000  0.4209310000000 1.0
C      1  0.4728430000000  0.4848340000000  0.4209310000000 1.0
C      1  0.5003380000000  0.5327190000000  0.4209310000000 1.0
C      1  0.5425360000000  0.4494350000000  0.4865800000000 1.0
C      1  0.4348350000000  0.4900630000000  0.4865800000000 1.0
C      1  0.5238710000000  0.5630210000000  0.4865800000000 1.0
C      1  0.4854060000000  0.5750570000000  0.4738590000000 1.0
C      1  0.5721910000000  0.4767270000000  0.4738590000000 1.0
C      1  0.4436430000000  0.4507340000000  0.4738580000000 1.0
C      1  0.5004140000000  0.5008400000000  0.3828950000000 1.0
C      1  0.5004140000000  0.5008390000000  0.4679190000000 1.0
C      1  0.5004130000000  0.5008390000000  0.6083960000000 1.0
C      1  0.5004140000000  0.5008400000000  0.4132940000000 1.0
C      1  0.5004130000000  0.5008390000000  0.5774450000000 1.0
C      1  0.5004140000000  0.5008390000000  0.5444610000000 1.0
C      1  0.5004140000000  0.5008390000000  0.4999300000000 1.0
END
