TITL C-862133-5440-453 94847.7377394685 125000 -498.795290718046 0 0 95 (C1) n - 1
REM
REM in /home/nfs/bkarasulu/CARBON/AIRSS/Generating-Clusters/TERSOFF/Higher-Symm/FIRE-HFTN
REM
REM
REM
REM
REM
REM ./C.cell (b20cbc046b6831c77cfcea5457e17084)
REM AIRSS Version 0.9.1 bugfix July 2018 build 013d7b7c2542+ Fri, 06 Jul 2018 19:26:36 +0100
REM compiler GCC version 9.2.1 20190827 (Red Hat 9.2.1-1)
REM options -cpp -mtune=generic -march=x86-64 -g -O0 -fpre-include=/usr/include/finclude/math-vector-fortran.h
REM seed -965482158 1703148845 1830616492 -925301137 -1366868323 -444019322 2068495977 -686188020 -787699931 -551132573 213717577 1271547794 -269924660 -530784630 2123432394 1770441087 2056367137 58568895 -1333134068 -477586293 904921132 379111343 -1331415580 1045590360 1080085317 1061132004 -1853806781 1512896362 2041327796 -1738314217 -1878575505 -931870413 604258976
REM
CELL 1.54180   50.00000   50.00000   50.00000   90.00000   90.00000   90.00000
LATT -1
SFAC C  
C      1  0.4296750000000  0.5183360000000  0.4109790000000 1.0
C      1  0.5515010000000  0.5525980000000  0.4081940000000 1.0
C      1  0.5228740000000  0.4309840000000  0.4225600000000 1.0
C      1  0.4288490000000  0.4803890000000  0.5912930000000 1.0
C      1  0.5502210000000  0.4452160000000  0.5824350000000 1.0
C      1  0.5197820000000  0.5690750000000  0.5876990000000 1.0
C      1  0.4598770000000  0.5110580000000  0.4137840000000 1.0
C      1  0.5303480000000  0.5303050000000  0.4111890000000 1.0
C      1  0.5119040000000  0.4587170000000  0.4170820000000 1.0
C      1  0.4588550000000  0.4877120000000  0.5878310000000 1.0
C      1  0.5297660000000  0.4681140000000  0.5840970000000 1.0
C      1  0.5106250000000  0.5393340000000  0.5854720000000 1.0
C      1  0.4722770000000  0.4705090000000  0.4587370000000 1.0
C      1  0.4872360000000  0.5418010000000  0.4580770000000 1.0
C      1  0.5422840000000  0.4955650000000  0.4570200000000 1.0
C      1  0.4713730000000  0.5302470000000  0.5408940000000 1.0
C      1  0.4839640000000  0.4596180000000  0.5415130000000 1.0
C      1  0.5389140000000  0.5069230000000  0.5391750000000 1.0
C      1  0.5141170000000  0.4682800000000  0.5352780000000 1.0
C      1  0.4624300000000  0.5002550000000  0.5423060000000 1.0
C      1  0.5168570000000  0.5281860000000  0.5397350000000 1.0
C      1  0.5177530000000  0.5344100000000  0.4581850000000 1.0
C      1  0.4656240000000  0.5005320000000  0.4585340000000 1.0
C      1  0.5184330000000  0.4758760000000  0.4676780000000 1.0
C      1  0.4755100000000  0.5707100000000  0.4624640000000 1.0
C      1  0.5732900000000  0.4893670000000  0.4614990000000 1.0
C      1  0.4508800000000  0.4470490000000  0.4641470000000 1.0
C      1  0.4724800000000  0.4299460000000  0.5379920000000 1.0
C      1  0.5698610000000  0.5138690000000  0.5362860000000 1.0
C      1  0.4519510000000  0.5548870000000  0.5371200000000 1.0
C      1  0.5456970000000  0.5651770000000  0.5681340000000 1.0
C      1  0.5337680000000  0.4250100000000  0.5632870000000 1.0
C      1  0.4171200000000  0.5049810000000  0.5734990000000 1.0
C      1  0.5475550000000  0.4359150000000  0.4421470000000 1.0
C      1  0.5366080000000  0.5752700000000  0.4259050000000 1.0
C      1  0.4187580000000  0.4948230000000  0.4308020000000 1.0
C      1  0.5602350000000  0.5329450000000  0.4904200000000 1.0
C      1  0.4940220000000  0.4364240000000  0.4929660000000 1.0
C      1  0.4476140000000  0.5345290000000  0.4905780000000 1.0
C      1  0.5582840000000  0.4718580000000  0.5072570000000 1.0
C      1  0.4969090000000  0.5616060000000  0.5084370000000 1.0
C      1  0.4412820000000  0.4628150000000  0.5125690000000 1.0
C      1  0.4468910000000  0.4401900000000  0.4938010000000 1.0
C      1  0.4736800000000  0.5725430000000  0.4934710000000 1.0
C      1  0.5774760000000  0.4888570000000  0.4923160000000 1.0
C      1  0.4504990000000  0.5592710000000  0.5066430000000 1.0
C      1  0.4700660000000  0.4269150000000  0.5072260000000 1.0
C      1  0.5773860000000  0.5151250000000  0.5066850000000 1.0
C      1  0.4557930000000  0.4404410000000  0.5658270000000 1.0
C      1  0.4700080000000  0.5651150000000  0.5640290000000 1.0
C      1  0.5709440000000  0.4913280000000  0.5611800000000 1.0
C      1  0.4575250000000  0.5598460000000  0.4347730000000 1.0
C      1  0.4711060000000  0.4331980000000  0.4398710000000 1.0
C      1  0.5736290000000  0.5093440000000  0.4329730000000 1.0
C      1  0.5299840000000  0.4797980000000  0.4072740000000 1.0
C      1  0.4687380000000  0.4832300000000  0.4073860000000 1.0
C      1  0.5021520000000  0.5368150000000  0.4051860000000 1.0
C      1  0.5299620000000  0.5178540000000  0.5919550000000 1.0
C      1  0.4673470000000  0.5154570000000  0.5938380000000 1.0
C      1  0.5022290000000  0.4621440000000  0.5926380000000 1.0
C      1  0.4222690000000  0.5204100000000  0.4892130000000 1.0
C      1  0.5653420000000  0.5613640000000  0.4878440000000 1.0
C      1  0.5195270000000  0.4228260000000  0.4967480000000 1.0
C      1  0.4143890000000  0.4712630000000  0.5193110000000 1.0
C      1  0.5617150000000  0.4431190000000  0.5093840000000 1.0
C      1  0.5218340000000  0.5763880000000  0.5103430000000 1.0
C      1  0.5002660000000  0.4246580000000  0.4459750000000 1.0
C      1  0.4340250000000  0.5403500000000  0.4364370000000 1.0
C      1  0.5685960000000  0.5396240000000  0.4337470000000 1.0
C      1  0.4986670000000  0.5756290000000  0.5620160000000 1.0
C      1  0.4318470000000  0.4594790000000  0.5651930000000 1.0
C      1  0.5658040000000  0.4612210000000  0.5573670000000 1.0
C      1  0.5382630000000  0.4958780000000  0.5734570000000 1.0
C      1  0.4779810000000  0.4660650000000  0.5759200000000 1.0
C      1  0.4819340000000  0.5336280000000  0.5751730000000 1.0
C      1  0.5394140000000  0.5030310000000  0.4233600000000 1.0
C      1  0.4792450000000  0.5334450000000  0.4239460000000 1.0
C      1  0.4829370000000  0.4645310000000  0.4263200000000 1.0
C      1  0.5240700000000  0.4456620000000  0.4617960000000 1.0
C      1  0.4375820000000  0.5105340000000  0.4513720000000 1.0
C      1  0.5406720000000  0.5530170000000  0.4486670000000 1.0
C      1  0.5225750000000  0.5571040000000  0.5476460000000 1.0
C      1  0.4344460000000  0.4902420000000  0.5509580000000 1.0
C      1  0.5371300000000  0.4493980000000  0.5428520000000 1.0
C      1  0.4921910000000  0.4646930000000  0.4816800000000 1.0
C      1  0.4730200000000  0.5230490000000  0.4778210000000 1.0
C      1  0.5374790000000  0.5196910000000  0.4772020000000 1.0
C      1  0.4941620000000  0.5333930000000  0.5202730000000 1.0
C      1  0.4658330000000  0.4764870000000  0.5233940000000 1.0
C      1  0.5331380000000  0.4861360000000  0.5169850000000 1.0
C      1  0.5205420000000  0.4995060000000  0.4927500000000 1.0
C      1  0.4922820000000  0.5126070000000  0.4988160000000 1.0
C      1  0.4824350000000  0.4843910000000  0.5016890000000 1.0
C      1  0.4984130000000  0.4986770000000  0.5465900000000 1.0
C      1  0.5010190000000  0.5024320000000  0.4538730000000 1.0
END
