TITL C-862506-1665-1194 -35.0605295345818 125000 -938.595676190828 0 0 157 (C1) n - 1
REM
REM in /home/nfs/bkarasulu/CARBON/AIRSS/Generating-Clusters/TERSOFF/Higher-Symm/FIRE-HFTN
REM
REM
REM
REM
REM
REM ./C.cell (b20cbc046b6831c77cfcea5457e17084)
REM AIRSS Version 0.9.1 bugfix July 2018 build 013d7b7c2542+ Fri, 06 Jul 2018 19:26:36 +0100
REM compiler GCC version 9.2.1 20190827 (Red Hat 9.2.1-1)
REM options -cpp -mtune=generic -march=x86-64 -g -O0 -fpre-include=/usr/include/finclude/math-vector-fortran.h
REM seed 911703665 1429992957 410694084 1328017631 -1751665404 -546570618 -2036963825 356909184 -1312820507 -1359116802 -1656207180 806953427 -1469824715 -450659905 -32696265 -1513085920 -2001368455 1996315791 919351268 1450784846 1610294779 276149311 -1704669996 1466687441 -747173183 493664595 -156409458 -904287654 1645329133 2033965908 -1243247627 -1810006070 1253235554
REM
CELL 1.54180   50.00000   50.00000   50.00000   90.00000   90.00000   90.00000
LATT -1
SFAC C  
C      1  0.5495660000000  0.4529000000000  0.5778350000000 1.0
C      1  0.4349940000000  0.4818100000000  0.5758020000000 1.0
C      1  0.5188400000000  0.5672400000000  0.5801230000000 1.0
C      1  0.4833020000000  0.4205560000000  0.4914570000000 1.0
C      1  0.4361120000000  0.5534810000000  0.4907770000000 1.0
C      1  0.5743860000000  0.5265640000000  0.4930430000000 1.0
C      1  0.5550420000000  0.4507730000000  0.5282010000000 1.0
C      1  0.4278580000000  0.4758460000000  0.5261710000000 1.0
C      1  0.5137820000000  0.5751970000000  0.5303660000000 1.0
C      1  0.4472150000000  0.5895170000000  0.5380520000000 1.0
C      1  0.6047780000000  0.5015000000000  0.5411900000000 1.0
C      1  0.4458470000000  0.4069930000000  0.5396230000000 1.0
C      1  0.5749460000000  0.5803040000000  0.5797560000000 1.0
C      1  0.5292090000000  0.3976790000000  0.5799960000000 1.0
C      1  0.4030590000000  0.5300080000000  0.5763270000000 1.0
C      1  0.4152370000000  0.5595620000000  0.4450600000000 1.0
C      1  0.5928780000000  0.5427020000000  0.4477700000000 1.0
C      1  0.4893830000000  0.3974100000000  0.4465150000000 1.0
C      1  0.4030210000000  0.5129110000000  0.5525930000000 1.0
C      1  0.5587180000000  0.5843390000000  0.5556840000000 1.0
C      1  0.5406670000000  0.4087430000000  0.5553640000000 1.0
C      1  0.5521370000000  0.5230260000000  0.3857760000000 1.0
C      1  0.4941800000000  0.4435400000000  0.3844770000000 1.0
C      1  0.4544710000000  0.5335910000000  0.3838580000000 1.0
C      1  0.5845720000000  0.5753570000000  0.4852650000000 1.0
C      1  0.5218880000000  0.3885890000000  0.4848150000000 1.0
C      1  0.3899580000000  0.5346300000000  0.4820490000000 1.0
C      1  0.4153460000000  0.5372460000000  0.4657220000000 1.0
C      1  0.5733120000000  0.5531050000000  0.4682910000000 1.0
C      1  0.5079790000000  0.4090400000000  0.4673860000000 1.0
C      1  0.6038800000000  0.4981460000000  0.4630100000000 1.0
C      1  0.4446050000000  0.4102450000000  0.4607440000000 1.0
C      1  0.4484260000000  0.5919840000000  0.4603550000000 1.0
C      1  0.4606440000000  0.5777580000000  0.5631540000000 1.0
C      1  0.6024980000000  0.5035630000000  0.5741270000000 1.0
C      1  0.4486130000000  0.4127340000000  0.5725070000000 1.0
C      1  0.5337620000000  0.5461860000000  0.4278090000000 1.0
C      1  0.5227470000000  0.4470190000000  0.4270100000000 1.0
C      1  0.4419990000000  0.5063250000000  0.4255790000000 1.0
C      1  0.5243770000000  0.4967880000000  0.6236520000000 1.0
C      1  0.4923280000000  0.4800650000000  0.6211590000000 1.0
C      1  0.4951470000000  0.5157470000000  0.6249940000000 1.0
C      1  0.5268620000000  0.4929780000000  0.5093300000000 1.0
C      1  0.4770160000000  0.4789160000000  0.5083060000000 1.0
C      1  0.4889740000000  0.5295900000000  0.5130710000000 1.0
C      1  0.4506280000000  0.4530070000000  0.6092260000000 1.0
C      1  0.4904410000000  0.5655650000000  0.6167870000000 1.0
C      1  0.5693860000000  0.4791100000000  0.6110570000000 1.0
C      1  0.5099220000000  0.5321630000000  0.4727150000000 1.0
C      1  0.5221310000000  0.4730380000000  0.4726700000000 1.0
C      1  0.4639410000000  0.4935630000000  0.4711830000000 1.0
C      1  0.4967890000000  0.4359170000000  0.4118580000000 1.0
C      1  0.4458840000000  0.5346990000000  0.4110410000000 1.0
C      1  0.5566270000000  0.5291980000000  0.4132620000000 1.0
C      1  0.5779820000000  0.4496590000000  0.4563200000000 1.0
C      1  0.4164850000000  0.4566150000000  0.4541960000000 1.0
C      1  0.5037670000000  0.5925550000000  0.4561820000000 1.0
C      1  0.4599950000000  0.5561220000000  0.4276430000000 1.0
C      1  0.5678610000000  0.5060710000000  0.4294680000000 1.0
C      1  0.4708060000000  0.4376460000000  0.4276990000000 1.0
C      1  0.5230120000000  0.4824410000000  0.3859800000000 1.0
C      1  0.4736190000000  0.4890790000000  0.3851270000000 1.0
C      1  0.5041010000000  0.5284990000000  0.3859270000000 1.0
C      1  0.4676680000000  0.5390160000000  0.4509200000000 1.0
C      1  0.5490530000000  0.5073700000000  0.4527060000000 1.0
C      1  0.4810410000000  0.4534130000000  0.4509400000000 1.0
C      1  0.5318920000000  0.5896870000000  0.4638570000000 1.0
C      1  0.5612040000000  0.4265400000000  0.4632730000000 1.0
C      1  0.4046780000000  0.4824840000000  0.4614890000000 1.0
C      1  0.5335010000000  0.4638830000000  0.5130760000000 1.0
C      1  0.4488310000000  0.4874900000000  0.5098960000000 1.0
C      1  0.5115570000000  0.5495390000000  0.5158410000000 1.0
C      1  0.5355690000000  0.4782440000000  0.5804520000000 1.0
C      1  0.4639550000000  0.4847050000000  0.5792950000000 1.0
C      1  0.5092980000000  0.5401050000000  0.5838950000000 1.0
C      1  0.4821590000000  0.4172520000000  0.5761690000000 1.0
C      1  0.4472490000000  0.5564670000000  0.5794200000000 1.0
C      1  0.5812750000000  0.5291730000000  0.5784870000000 1.0
C      1  0.6017160000000  0.4867960000000  0.5132990000000 1.0
C      1  0.4349700000000  0.4171920000000  0.5116070000000 1.0
C      1  0.4600470000000  0.5952720000000  0.5109170000000 1.0
C      1  0.5543990000000  0.5233110000000  0.5913220000000 1.0
C      1  0.4925150000000  0.4447060000000  0.5837280000000 1.0
C      1  0.4620440000000  0.5342240000000  0.5916930000000 1.0
C      1  0.4095200000000  0.4327540000000  0.5092720000000 1.0
C      1  0.4858150000000  0.6100040000000  0.5084800000000 1.0
C      1  0.6010940000000  0.4570530000000  0.5109590000000 1.0
C      1  0.5840100000000  0.5425560000000  0.5183380000000 1.0
C      1  0.4925310000000  0.4047090000000  0.5168390000000 1.0
C      1  0.4146670000000  0.5581050000000  0.5129320000000 1.0
C      1  0.5692590000000  0.4200200000000  0.4913850000000 1.0
C      1  0.3941090000000  0.4789720000000  0.4893770000000 1.0
C      1  0.5342880000000  0.6000530000000  0.4917590000000 1.0
C      1  0.5468870000000  0.5647640000000  0.4534340000000 1.0
C      1  0.5319250000000  0.4262680000000  0.4526820000000 1.0
C      1  0.4189150000000  0.5082220000000  0.4510470000000 1.0
C      1  0.5403810000000  0.3922890000000  0.5316450000000 1.0
C      1  0.3856030000000  0.5197400000000  0.5302140000000 1.0
C      1  0.5722330000000  0.5909840000000  0.5312810000000 1.0
C      1  0.5477000000000  0.4861990000000  0.4711240000000 1.0
C      1  0.4630430000000  0.4648980000000  0.4691670000000 1.0
C      1  0.4861880000000  0.5481510000000  0.4701410000000 1.0
C      1  0.3912150000000  0.5404360000000  0.5105050000000 1.0
C      1  0.5853880000000  0.5719540000000  0.5140940000000 1.0
C      1  0.5178690000000  0.3896770000000  0.5136240000000 1.0
C      1  0.4536220000000  0.4152950000000  0.4878210000000 1.0
C      1  0.4482490000000  0.5811500000000  0.4871200000000 1.0
C      1  0.5939770000000  0.5034400000000  0.4896460000000 1.0
C      1  0.4472860000000  0.5442950000000  0.5392260000000 1.0
C      1  0.5572020000000  0.5139910000000  0.5375380000000 1.0
C      1  0.4792090000000  0.4413870000000  0.5357980000000 1.0
C      1  0.4643080000000  0.4107290000000  0.4391630000000 1.0
C      1  0.4394870000000  0.5748810000000  0.4385430000000 1.0
C      1  0.5942080000000  0.5142950000000  0.4408980000000 1.0
C      1  0.5382290000000  0.4686690000000  0.4088140000000 1.0
C      1  0.4534850000000  0.4823820000000  0.4073630000000 1.0
C      1  0.5078180000000  0.5486910000000  0.4088310000000 1.0
C      1  0.5819440000000  0.4575300000000  0.4289330000000 1.0
C      1  0.4216700000000  0.4497940000000  0.4266820000000 1.0
C      1  0.4955730000000  0.5922480000000  0.4285460000000 1.0
C      1  0.5124800000000  0.5980040000000  0.5125050000000 1.0
C      1  0.5765690000000  0.4406690000000  0.5120960000000 1.0
C      1  0.4076080000000  0.4622770000000  0.5107090000000 1.0
C      1  0.5358210000000  0.5410250000000  0.5045470000000 1.0
C      1  0.5141340000000  0.4461850000000  0.5039370000000 1.0
C      1  0.4435860000000  0.5136850000000  0.5018940000000 1.0
C      1  0.4380480000000  0.4511830000000  0.4725430000000 1.0
C      1  0.4878410000000  0.5765170000000  0.4739470000000 1.0
C      1  0.5718320000000  0.4710340000000  0.4747000000000 1.0
C      1  0.4860970000000  0.5676330000000  0.4163980000000 1.0
C      1  0.5652320000000  0.4781080000000  0.4172460000000 1.0
C      1  0.4480330000000  0.4541230000000  0.4153390000000 1.0
C      1  0.5828720000000  0.5260200000000  0.5446790000000 1.0
C      1  0.4781080000000  0.4127650000000  0.5427540000000 1.0
C      1  0.4267840000000  0.5660250000000  0.5387750000000 1.0
C      1  0.4880810000000  0.5367990000000  0.6053480000000 1.0
C      1  0.5456390000000  0.4969390000000  0.6021500000000 1.0
C      1  0.4773030000000  0.4653830000000  0.5990620000000 1.0
C      1  0.4607210000000  0.5116580000000  0.4491460000000 1.0
C      1  0.5286730000000  0.5269900000000  0.4512830000000 1.0
C      1  0.5084060000000  0.4609700000000  0.4502440000000 1.0
C      1  0.5903620000000  0.5563520000000  0.5854000000000 1.0
C      1  0.5008470000000  0.3967440000000  0.5858430000000 1.0
C      1  0.4181430000000  0.5547220000000  0.5789540000000 1.0
C      1  0.4774620000000  0.5175540000000  0.3791070000000 1.0
C      1  0.5269670000000  0.5111570000000  0.3799550000000 1.0
C      1  0.4966470000000  0.4714020000000  0.3793020000000 1.0
C      1  0.4207120000000  0.4890250000000  0.5517860000000 1.0
C      1  0.5299510000000  0.5769770000000  0.5556540000000 1.0
C      1  0.5491140000000  0.4372910000000  0.5539960000000 1.0
C      1  0.5077070000000  0.5842970000000  0.6015720000000 1.0
C      1  0.5717580000000  0.4529280000000  0.5974330000000 1.0
C      1  0.4258650000000  0.4616850000000  0.5954750000000 1.0
C      1  0.4853540000000  0.4498360000000  0.5086600000000 1.0
C      1  0.4586500000000  0.5367340000000  0.5125420000000 1.0
C      1  0.5477260000000  0.5147880000000  0.5099270000000 1.0
C      1  0.4976210000000  0.5004630000000  0.5094530000000 1.0
END
