TITL C-862506-1665-926 -0.017509443298648 125000 -902.027957033913 0 0 160 (C1) n - 1
REM
REM in /home/nfs/bkarasulu/CARBON/AIRSS/Generating-Clusters/TERSOFF/Higher-Symm/FIRE-HFTN
REM
REM
REM
REM
REM
REM ./C.cell (b20cbc046b6831c77cfcea5457e17084)
REM AIRSS Version 0.9.1 bugfix July 2018 build 013d7b7c2542+ Fri, 06 Jul 2018 19:26:36 +0100
REM compiler GCC version 9.2.1 20190827 (Red Hat 9.2.1-1)
REM options -cpp -mtune=generic -march=x86-64 -g -O0 -fpre-include=/usr/include/finclude/math-vector-fortran.h
REM seed 1969670637 -2019596407 -599515618 -531769636 -850648781 361623821 -74272926 -611479549 -1789384328 -2080510690 -88068353 -232965991 -1856486102 -1362242332 2101727082 -1837557912 -1481062571 -992720067 -871274447 2084775496 1627987401 -469712199 6568233 1229208538 690963564 -866914580 -2079683637 1051538928 350337511 -1979588462 -72898491 -177990656 1483728318
REM
CELL 1.54180   50.00000   50.00000   50.00000   90.00000   90.00000   90.00000
LATT -1
SFAC C  
C      1  0.5070640000000  0.5936240000000  0.4189860000000 1.0
C      1  0.4285010000000  0.5202050000000  0.5920920000000 1.0
C      1  0.5973920000000  0.4187610000000  0.5062190000000 1.0
C      1  0.4880570000000  0.5923350000000  0.5792450000000 1.0
C      1  0.5081420000000  0.4065190000000  0.5783280000000 1.0
C      1  0.4885700000000  0.4107430000000  0.4203090000000 1.0
C      1  0.5821820000000  0.5177440000000  0.4063380000000 1.0
C      1  0.4293970000000  0.4790290000000  0.4127130000000 1.0
C      1  0.5752710000000  0.4807930000000  0.5914550000000 1.0
C      1  0.3990800000000  0.4200860000000  0.4962130000000 1.0
C      1  0.5950730000000  0.5809480000000  0.4925980000000 1.0
C      1  0.4022690000000  0.5808820000000  0.5069660000000 1.0
C      1  0.4265160000000  0.5995800000000  0.5032400000000 1.0
C      1  0.5983470000000  0.5152490000000  0.4323490000000 1.0
C      1  0.5104850000000  0.4284110000000  0.5985860000000 1.0
C      1  0.5708610000000  0.5994320000000  0.4955720000000 1.0
C      1  0.5732320000000  0.4002740000000  0.5025670000000 1.0
C      1  0.4232710000000  0.4010820000000  0.4981670000000 1.0
C      1  0.4080340000000  0.5177980000000  0.5696870000000 1.0
C      1  0.4075400000000  0.4817360000000  0.4334680000000 1.0
C      1  0.5943980000000  0.4835200000000  0.5680640000000 1.0
C      1  0.4863820000000  0.4355300000000  0.4033200000000 1.0
C      1  0.4858690000000  0.5691370000000  0.5985810000000 1.0
C      1  0.5090270000000  0.5696270000000  0.4018770000000 1.0
C      1  0.4336200000000  0.5453550000000  0.4928750000000 1.0
C      1  0.5116570000000  0.4197310000000  0.5329840000000 1.0
C      1  0.5459240000000  0.5054880000000  0.4350600000000 1.0
C      1  0.5643410000000  0.5451880000000  0.5056400000000 1.0
C      1  0.4325360000000  0.4544930000000  0.5082950000000 1.0
C      1  0.5655010000000  0.4536260000000  0.4938790000000 1.0
C      1  0.4877620000000  0.4228150000000  0.4605160000000 1.0
C      1  0.5104640000000  0.5750650000000  0.4564760000000 1.0
C      1  0.4870950000000  0.5776230000000  0.5399290000000 1.0
C      1  0.4614040000000  0.5012280000000  0.5613610000000 1.0
C      1  0.5394740000000  0.4969980000000  0.5632210000000 1.0
C      1  0.4609090000000  0.5032880000000  0.4426070000000 1.0
C      1  0.5161420000000  0.5351390000000  0.4247570000000 1.0
C      1  0.5282530000000  0.4204570000000  0.5063020000000 1.0
C      1  0.4246180000000  0.5165590000000  0.5280410000000 1.0
C      1  0.5023340000000  0.5363310000000  0.5657200000000 1.0
C      1  0.5050610000000  0.4664320000000  0.4377400000000 1.0
C      1  0.5011460000000  0.4567850000000  0.5689180000000 1.0
C      1  0.4646930000000  0.4191190000000  0.4952760000000 1.0
C      1  0.4693270000000  0.5778250000000  0.5019980000000 1.0
C      1  0.5276690000000  0.5779590000000  0.4946210000000 1.0
C      1  0.5767240000000  0.5156580000000  0.4729360000000 1.0
C      1  0.5749870000000  0.4838000000000  0.5275350000000 1.0
C      1  0.4235500000000  0.4832200000000  0.4742830000000 1.0
C      1  0.5900620000000  0.4605970000000  0.5426990000000 1.0
C      1  0.5452110000000  0.5935470000000  0.4749400000000 1.0
C      1  0.4766300000000  0.5457450000000  0.5810210000000 1.0
C      1  0.4097990000000  0.4594520000000  0.4587950000000 1.0
C      1  0.5917370000000  0.5384380000000  0.4571840000000 1.0
C      1  0.4116360000000  0.5404080000000  0.5437470000000 1.0
C      1  0.4521380000000  0.5927360000000  0.5222400000000 1.0
C      1  0.5499370000000  0.4047590000000  0.5243840000000 1.0
C      1  0.4469100000000  0.4059790000000  0.4738750000000 1.0
C      1  0.5370190000000  0.5508270000000  0.4066070000000 1.0
C      1  0.4787350000000  0.4581490000000  0.4225340000000 1.0
C      1  0.5295120000000  0.4505530000000  0.5867300000000 1.0
C      1  0.5499430000000  0.4710170000000  0.5776090000000 1.0
C      1  0.4624070000000  0.5915270000000  0.5539330000000 1.0
C      1  0.5808390000000  0.5568390000000  0.4805200000000 1.0
C      1  0.4544850000000  0.4736400000000  0.4293120000000 1.0
C      1  0.4532240000000  0.5282340000000  0.5760740000000 1.0
C      1  0.5574640000000  0.5302700000000  0.4191600000000 1.0
C      1  0.5328540000000  0.5941410000000  0.4441660000000 1.0
C      1  0.5325040000000  0.4053690000000  0.5553750000000 1.0
C      1  0.4633330000000  0.4104150000000  0.4450240000000 1.0
C      1  0.4187300000000  0.5577160000000  0.5183260000000 1.0
C      1  0.4162870000000  0.4423490000000  0.4841390000000 1.0
C      1  0.5813520000000  0.4416960000000  0.5190210000000 1.0
C      1  0.4466060000000  0.4714840000000  0.5752760000000 1.0
C      1  0.5781440000000  0.4436040000000  0.4614290000000 1.0
C      1  0.4522080000000  0.5813650000000  0.4278490000000 1.0
C      1  0.5572150000000  0.4727580000000  0.4248950000000 1.0
C      1  0.4433760000000  0.5299160000000  0.4246000000000 1.0
C      1  0.5542390000000  0.5278450000000  0.5749510000000 1.0
C      1  0.4212190000000  0.4438360000000  0.5408640000000 1.0
C      1  0.5761260000000  0.5560970000000  0.5381990000000 1.0
C      1  0.4202690000000  0.5564530000000  0.4609440000000 1.0
C      1  0.5404950000000  0.5782290000000  0.5679510000000 1.0
C      1  0.4582670000000  0.4209590000000  0.5683580000000 1.0
C      1  0.5412010000000  0.4233320000000  0.4321740000000 1.0
C      1  0.5813180000000  0.4651940000000  0.4402770000000 1.0
C      1  0.4668870000000  0.4480830000000  0.5782500000000 1.0
C      1  0.4326560000000  0.5822260000000  0.4516870000000 1.0
C      1  0.4208980000000  0.4656460000000  0.5619300000000 1.0
C      1  0.4185040000000  0.5344610000000  0.4397700000000 1.0
C      1  0.5785970000000  0.5345760000000  0.5597150000000 1.0
C      1  0.5345710000000  0.4513750000000  0.4232860000000 1.0
C      1  0.5330760000000  0.5507610000000  0.5779210000000 1.0
C      1  0.4572350000000  0.5555940000000  0.4144060000000 1.0
C      1  0.5622250000000  0.5809250000000  0.5466030000000 1.0
C      1  0.5632720000000  0.4193480000000  0.4530030000000 1.0
C      1  0.4350820000000  0.4186830000000  0.5485370000000 1.0
C      1  0.5177300000000  0.4038460000000  0.4322230000000 1.0
C      1  0.4441000000000  0.5047320000000  0.4030560000000 1.0
C      1  0.3945550000000  0.4410490000000  0.5200490000000 1.0
C      1  0.4810090000000  0.4017880000000  0.5651780000000 1.0
C      1  0.5174090000000  0.5984550000000  0.5676680000000 1.0
C      1  0.4773240000000  0.5994880000000  0.4293490000000 1.0
C      1  0.5600550000000  0.5070130000000  0.6008740000000 1.0
C      1  0.4434000000000  0.4937910000000  0.6006960000000 1.0
C      1  0.5630960000000  0.4931710000000  0.3987720000000 1.0
C      1  0.6035500000000  0.4394560000000  0.4832530000000 1.0
C      1  0.3952820000000  0.5596330000000  0.4835410000000 1.0
C      1  0.6017720000000  0.5606330000000  0.5167290000000 1.0
C      1  0.4380420000000  0.3982790000000  0.5262410000000 1.0
C      1  0.4011540000000  0.5104090000000  0.4448370000000 1.0
C      1  0.5132730000000  0.4508370000000  0.3965080000000 1.0
C      1  0.5581230000000  0.3995000000000  0.4751180000000 1.0
C      1  0.5575020000000  0.6010830000000  0.5243050000000 1.0
C      1  0.4395820000000  0.6013090000000  0.4741800000000 1.0
C      1  0.5987350000000  0.5121320000000  0.5561840000000 1.0
C      1  0.6013310000000  0.4872670000000  0.4451270000000 1.0
C      1  0.4021520000000  0.4892100000000  0.5582890000000 1.0
C      1  0.4853440000000  0.4451280000000  0.6060020000000 1.0
C      1  0.4826570000000  0.5527000000000  0.3981440000000 1.0
C      1  0.5127910000000  0.5531230000000  0.6054060000000 1.0
C      1  0.5937330000000  0.4709540000000  0.4915800000000 1.0
C      1  0.4852590000000  0.5896630000000  0.4559510000000 1.0
C      1  0.4751150000000  0.4966760000000  0.5929930000000 1.0
C      1  0.4050950000000  0.4722930000000  0.5113560000000 1.0
C      1  0.5926390000000  0.5287040000000  0.5093700000000 1.0
C      1  0.4056840000000  0.5280390000000  0.4916450000000 1.0
C      1  0.5098490000000  0.5951280000000  0.5392640000000 1.0
C      1  0.4875260000000  0.4025890000000  0.5367620000000 1.0
C      1  0.5102370000000  0.4043710000000  0.4609570000000 1.0
C      1  0.5311390000000  0.5005380000000  0.4055130000000 1.0
C      1  0.4762060000000  0.5055830000000  0.4129680000000 1.0
C      1  0.5281220000000  0.5021160000000  0.5954130000000 1.0
C      1  0.4938130000000  0.4753750000000  0.5962660000000 1.0
C      1  0.4682990000000  0.5939640000000  0.4782390000000 1.0
C      1  0.5957370000000  0.4927440000000  0.4734920000000 1.0
C      1  0.5100620000000  0.4812220000000  0.4068260000000 1.0
C      1  0.5080360000000  0.5225080000000  0.5963050000000 1.0
C      1  0.4934920000000  0.5273250000000  0.4076230000000 1.0
C      1  0.5291270000000  0.5951910000000  0.5184940000000 1.0
C      1  0.5294510000000  0.4027680000000  0.4820420000000 1.0
C      1  0.4664730000000  0.4013210000000  0.5179220000000 1.0
C      1  0.4050970000000  0.4942020000000  0.5294210000000 1.0
C      1  0.4042170000000  0.5058730000000  0.4738360000000 1.0
C      1  0.5939910000000  0.5069290000000  0.5276330000000 1.0
C      1  0.4626840000000  0.5490240000000  0.5000180000000 1.0
C      1  0.5367480000000  0.4495250000000  0.5017680000000 1.0
C      1  0.4605110000000  0.4482900000000  0.4995450000000 1.0
C      1  0.4531130000000  0.4873630000000  0.4690770000000 1.0
C      1  0.5480680000000  0.5123590000000  0.4644230000000 1.0
C      1  0.4541520000000  0.5125320000000  0.5333450000000 1.0
C      1  0.5128830000000  0.5454790000000  0.4528410000000 1.0
C      1  0.5087670000000  0.4495770000000  0.5403650000000 1.0
C      1  0.5356350000000  0.5489700000000  0.4965390000000 1.0
C      1  0.4901850000000  0.5484360000000  0.5400820000000 1.0
C      1  0.5454710000000  0.4867220000000  0.5346940000000 1.0
C      1  0.4912470000000  0.4521820000000  0.4621690000000 1.0
C      1  0.5280340000000  0.5318570000000  0.4739830000000 1.0
C      1  0.4727780000000  0.5327240000000  0.5219870000000 1.0
C      1  0.5263820000000  0.4671020000000  0.5230570000000 1.0
C      1  0.4719950000000  0.4663910000000  0.4797170000000 1.0
END
