TITL C-862133-5440-1239 15093.6788310506 125000 -389.450599943097 0 0 68 (C3) n - 1
REM
REM in /home/nfs/bkarasulu/CARBON/AIRSS/Generating-Clusters/TERSOFF/Higher-Symm/FIRE-HFTN
REM
REM
REM
REM
REM
REM ./C.cell (b20cbc046b6831c77cfcea5457e17084)
REM AIRSS Version 0.9.1 bugfix July 2018 build 013d7b7c2542+ Fri, 06 Jul 2018 19:26:36 +0100
REM compiler GCC version 9.2.1 20190827 (Red Hat 9.2.1-1)
REM options -cpp -mtune=generic -march=x86-64 -g -O0 -fpre-include=/usr/include/finclude/math-vector-fortran.h
REM seed 1942875383 1018382769 -1801831436 -1534755453 1431503254 -77507991 -1786696383 -1279735027 1375890536 1665514244 -1516155422 1205503698 37732370 1369496978 2132827486 453823212 -774549903 -186471881 148998305 1334005402 1531161638 1654994860 -1892659068 120479635 -540120604 1389793140 1477772459 604719031 -999402591 -1394354066 165115614 -1433053411 629772267
REM
CELL 1.54180   50.00000   50.00000   50.00000   90.00000   90.00000   90.00000
LATT -1
SFAC C  
C      1  0.4487650000000  0.5147040000000  0.4736580000000 1.0
C      1  0.5140790000000  0.4491180000000  0.4736580000000 1.0
C      1  0.5382210000000  0.5384750000000  0.4736580000000 1.0
C      1  0.5155630000000  0.4783040000000  0.4015460000000 1.0
C      1  0.5122030000000  0.5251680000000  0.4015460000000 1.0
C      1  0.4732980000000  0.4988260000000  0.4015460000000 1.0
C      1  0.5197730000000  0.4726490000000  0.5527400000000 1.0
C      1  0.5149960000000  0.5316410000000  0.5527400000000 1.0
C      1  0.4662960000000  0.4980080000000  0.5527400000000 1.0
C      1  0.4781060000000  0.5169280000000  0.4844500000000 1.0
C      1  0.4974830000000  0.4734170000000  0.4844500000000 1.0
C      1  0.5254760000000  0.5119530000000  0.4844500000000 1.0
C      1  0.5372430000000  0.5601070000000  0.5211230000000 1.0
C      1  0.4305190000000  0.5030420000000  0.5211230000000 1.0
C      1  0.5333020000000  0.4391490000000  0.5211230000000 1.0
C      1  0.4903680000000  0.5450630000000  0.5626080000000 1.0
C      1  0.4669860000000  0.4699690000000  0.5626080000000 1.0
C      1  0.5437110000000  0.4872660000000  0.5626080000000 1.0
C      1  0.5589730000000  0.4539950000000  0.5269380000000 1.0
C      1  0.5115500000000  0.5749160000000  0.5269380000000 1.0
C      1  0.4305410000000  0.4733860000000  0.5269380000000 1.0
C      1  0.5356700000000  0.4551270000000  0.4534470000000 1.0
C      1  0.5222220000000  0.5541690000000  0.4534470000000 1.0
C      1  0.4431730000000  0.4930020000000  0.4534470000000 1.0
C      1  0.4782570000000  0.5183350000000  0.5719540000000 1.0
C      1  0.4961880000000  0.4728440000000  0.5719540000000 1.0
C      1  0.5266190000000  0.5111180000000  0.5719540000000 1.0
C      1  0.4912950000000  0.4356790000000  0.4601520000000 1.0
C      1  0.5612520000000  0.5254630000000  0.4601520000000 1.0
C      1  0.4485180000000  0.5411550000000  0.4601520000000 1.0
C      1  0.4370200000000  0.5520910000000  0.5373920000000 1.0
C      1  0.4875730000000  0.4202540000000  0.5373920000000 1.0
C      1  0.5764710000000  0.5299530000000  0.5373920000000 1.0
C      1  0.5760830000000  0.5026880000000  0.5259160000000 1.0
C      1  0.4608270000000  0.5653870000000  0.5259160000000 1.0
C      1  0.4641550000000  0.4342230000000  0.5259160000000 1.0
C      1  0.4532230000000  0.4579440000000  0.5390600000000 1.0
C      1  0.5610060000000  0.4813600000000  0.5390600000000 1.0
C      1  0.4868350000000  0.5629940000000  0.5390600000000 1.0
C      1  0.5266600000000  0.4313220000000  0.4940430000000 1.0
C      1  0.5473420000000  0.5582690000000  0.4940430000000 1.0
C      1  0.4270620000000  0.5127060000000  0.4940430000000 1.0
C      1  0.4867220000000  0.5333150000000  0.5078370000000 1.0
C      1  0.4789830000000  0.4726850000000  0.5078370000000 1.0
C      1  0.5353600000000  0.4962980000000  0.5078370000000 1.0
C      1  0.4582760000000  0.5824480000000  0.5022610000000 1.0
C      1  0.4506560000000  0.4234840000000  0.5022610000000 1.0
C      1  0.5921330000000  0.4963660000000  0.5022610000000 1.0
C      1  0.5312790000000  0.4931010000000  0.4208300000000 1.0
C      1  0.4915310000000  0.5313790000000  0.4208300000000 1.0
C      1  0.4782550000000  0.4778180000000  0.4208300000000 1.0
C      1  0.4620960000000  0.4728730000000  0.4445130000000 1.0
C      1  0.5436400000000  0.4815800000000  0.4445130000000 1.0
C      1  0.4953280000000  0.5478450000000  0.4445130000000 1.0
C      1  0.4651180000000  0.4475590000000  0.4590730000000 1.0
C      1  0.5640520000000  0.4968530000000  0.4590730000000 1.0
C      1  0.4718940000000  0.5578860000000  0.4590730000000 1.0
C      1  0.4720340000000  0.4973050000000  0.5236140000000 1.0
C      1  0.5175120000000  0.4779700000000  0.5236140000000 1.0
C      1  0.5115180000000  0.5270230000000  0.5236140000000 1.0
C      1  0.4343890000000  0.5231680000000  0.5421350000000 1.0
C      1  0.5139370000000  0.4324370000000  0.5421350000000 1.0
C      1  0.5527380000000  0.5466930000000  0.5421350000000 1.0
C      1  0.4450080000000  0.4386290000000  0.4780310000000 1.0
C      1  0.5818400000000  0.4839020000000  0.4780310000000 1.0
C      1  0.4742170000000  0.5797660000000  0.4780310000000 1.0
C      1  0.5003550000000  0.5007660000000  0.4742680000000 1.0
C      1  0.5003550000000  0.5007660000000  0.5845820000000 1.0
END
