TITL C-862128-1543-840 0.000824690375063782 125000 -668.82918861026 0 0 127 (C5) n - 1
REM
REM in /home/nfs/bkarasulu/CARBON/AIRSS/Generating-Clusters/TERSOFF/Higher-Symm/FIRE-HFTN
REM
REM
REM
REM
REM
REM ./C.cell (b20cbc046b6831c77cfcea5457e17084)
REM AIRSS Version 0.9.1 bugfix July 2018 build 013d7b7c2542+ Fri, 06 Jul 2018 19:26:36 +0100
REM compiler GCC version 9.2.1 20190827 (Red Hat 9.2.1-1)
REM options -cpp -mtune=generic -march=x86-64 -g -O0 -fpre-include=/usr/include/finclude/math-vector-fortran.h
REM seed 1923886993 -761091343 1352267387 -576285159 -1173287773 628587438 523673449 -2035827064 -1420417105 955374362 1457801794 -1332774741 -1021973305 -2093110911 1747693949 1504412484 -1321524655 -412485817 -514521885 1672188989 821531113 1687171304 428617753 1634531731 667550395 -2080525276 -1913272529 -1289164597 1965090614 742445173 445464611 413447278 -213117945
REM
CELL 1.54180   50.00000   50.00000   50.00000   90.00000   90.00000   90.00000
LATT -1
SFAC C  
C      1  0.5303220000000  0.5072220000000  0.5997960000000 1.0
C      1  0.5303220000000  0.4072980000000  0.5373560000000 1.0
C      1  0.5303220000000  0.4358040000000  0.4230280000000 1.0
C      1  0.5303220000000  0.5533460000000  0.4148090000000 1.0
C      1  0.5303220000000  0.5974840000000  0.5240580000000 1.0
C      1  0.4723390000000  0.5072220000000  0.5997960000000 1.0
C      1  0.4723390000000  0.4072980000000  0.5373560000000 1.0
C      1  0.4723390000000  0.4358040000000  0.4230280000000 1.0
C      1  0.4723390000000  0.5533460000000  0.4148090000000 1.0
C      1  0.4723390000000  0.5974840000000  0.5240580000000 1.0
C      1  0.5161690000000  0.5020660000000  0.4643330000000 1.0
C      1  0.5161690000000  0.5345380000000  0.4905920000000 1.0
C      1  0.5161690000000  0.5195980000000  0.5295890000000 1.0
C      1  0.5161690000000  0.4778940000000  0.5274320000000 1.0
C      1  0.5161690000000  0.4670580000000  0.4871010000000 1.0
C      1  0.4864920000000  0.5020660000000  0.4643330000000 1.0
C      1  0.4864920000000  0.5345380000000  0.4905920000000 1.0
C      1  0.4864920000000  0.5195980000000  0.5295890000000 1.0
C      1  0.4864920000000  0.4778940000000  0.5274320000000 1.0
C      1  0.4864920000000  0.4670580000000  0.4871010000000 1.0
C      1  0.4856350000000  0.4488720000000  0.5626770000000 1.0
C      1  0.4856350000000  0.4245700000000  0.4703910000000 1.0
C      1  0.4856350000000  0.5048280000000  0.4187610000000 1.0
C      1  0.4856350000000  0.5787330000000  0.4791360000000 1.0
C      1  0.4856350000000  0.5441500000000  0.5680810000000 1.0
C      1  0.5170260000000  0.4488720000000  0.5626770000000 1.0
C      1  0.5170260000000  0.4245700000000  0.4703910000000 1.0
C      1  0.5170260000000  0.5048280000000  0.4187610000000 1.0
C      1  0.5170260000000  0.5787330000000  0.4791360000000 1.0
C      1  0.5170260000000  0.5441500000000  0.5680810000000 1.0
C      1  0.4064460000000  0.4937760000000  0.5414890000000 1.0
C      1  0.4064460000000  0.4585970000000  0.5065500000000 1.0
C      1  0.4064460000000  0.4809540000000  0.4622960000000 1.0
C      1  0.4064460000000  0.5299510000000  0.4698840000000 1.0
C      1  0.4064460000000  0.5378750000000  0.5188280000000 1.0
C      1  0.5962160000000  0.4937760000000  0.5414890000000 1.0
C      1  0.5962160000000  0.4585970000000  0.5065500000000 1.0
C      1  0.5962160000000  0.4809540000000  0.4622960000000 1.0
C      1  0.5962160000000  0.5299510000000  0.4698840000000 1.0
C      1  0.5962160000000  0.5378750000000  0.5188280000000 1.0
C      1  0.5598200000000  0.4464540000000  0.4395840000000 1.0
C      1  0.5598200000000  0.5408910000000  0.4300540000000 1.0
C      1  0.5598200000000  0.5791370000000  0.5169240000000 1.0
C      1  0.5598200000000  0.5083370000000  0.5801420000000 1.0
C      1  0.5598200000000  0.4263350000000  0.5323430000000 1.0
C      1  0.4428410000000  0.4464540000000  0.4395840000000 1.0
C      1  0.4428410000000  0.5408910000000  0.4300540000000 1.0
C      1  0.4428410000000  0.5791370000000  0.5169240000000 1.0
C      1  0.4428410000000  0.5083370000000  0.5801420000000 1.0
C      1  0.4428410000000  0.4263350000000  0.5323430000000 1.0
C      1  0.4195550000000  0.5427540000000  0.4928310000000 1.0
C      1  0.4195550000000  0.5200080000000  0.5380950000000 1.0
C      1  0.4195550000000  0.4699300000000  0.5304490000000 1.0
C      1  0.4195550000000  0.4617270000000  0.4804600000000 1.0
C      1  0.4195550000000  0.5067340000000  0.4572110000000 1.0
C      1  0.5831060000000  0.5427540000000  0.4928310000000 1.0
C      1  0.5831060000000  0.5200080000000  0.5380950000000 1.0
C      1  0.5831060000000  0.4699300000000  0.5304490000000 1.0
C      1  0.5831060000000  0.4617270000000  0.4804600000000 1.0
C      1  0.5831060000000  0.5067340000000  0.4572110000000 1.0
C      1  0.5666720000000  0.4356420000000  0.4733860000000 1.0
C      1  0.5666720000000  0.5054020000000  0.4302160000000 1.0
C      1  0.5666720000000  0.5680150000000  0.4832220000000 1.0
C      1  0.5666720000000  0.5369520000000  0.5591510000000 1.0
C      1  0.5666720000000  0.4551410000000  0.5530710000000 1.0
C      1  0.4359890000000  0.4356420000000  0.4733860000000 1.0
C      1  0.4359890000000  0.5054020000000  0.4302160000000 1.0
C      1  0.4359890000000  0.5680150000000  0.4832220000000 1.0
C      1  0.4359890000000  0.5369520000000  0.5591510000000 1.0
C      1  0.4359890000000  0.4551410000000  0.5530710000000 1.0
C      1  0.4640380000000  0.4897890000000  0.4311110000000 1.0
C      1  0.4640380000000  0.5623400000000  0.4686500000000 1.0
C      1  0.4640380000000  0.5490580000000  0.5492500000000 1.0
C      1  0.4640380000000  0.4682980000000  0.5615250000000 1.0
C      1  0.4640380000000  0.4316680000000  0.4885110000000 1.0
C      1  0.5386230000000  0.4897890000000  0.4311110000000 1.0
C      1  0.5386230000000  0.5623400000000  0.4686500000000 1.0
C      1  0.5386230000000  0.5490580000000  0.5492500000000 1.0
C      1  0.5386230000000  0.4682980000000  0.5615250000000 1.0
C      1  0.5386230000000  0.4316680000000  0.4885110000000 1.0
C      1  0.4711120000000  0.4725750000000  0.4578130000000 1.0
C      1  0.4711120000000  0.5316250000000  0.4605290000000 1.0
C      1  0.4711120000000  0.5472890000000  0.5175290000000 1.0
C      1  0.4711120000000  0.4979200000000  0.5500410000000 1.0
C      1  0.4711120000000  0.4517440000000  0.5131340000000 1.0
C      1  0.5315490000000  0.4725750000000  0.4578130000000 1.0
C      1  0.5315490000000  0.5316250000000  0.4605290000000 1.0
C      1  0.5315490000000  0.5472890000000  0.5175290000000 1.0
C      1  0.5315490000000  0.4979200000000  0.5500410000000 1.0
C      1  0.5315490000000  0.4517440000000  0.5131340000000 1.0
C      1  0.4852260000000  0.5327330000000  0.4327730000000 1.0
C      1  0.4852260000000  0.5740300000000  0.5100060000000 1.0
C      1  0.4852260000000  0.5133380000000  0.5731470000000 1.0
C      1  0.4852260000000  0.4345330000000  0.5349380000000 1.0
C      1  0.4852260000000  0.4465190000000  0.4481820000000 1.0
C      1  0.5174350000000  0.5327330000000  0.4327730000000 1.0
C      1  0.5174350000000  0.5740300000000  0.5100060000000 1.0
C      1  0.5174350000000  0.5133380000000  0.5731470000000 1.0
C      1  0.5174350000000  0.4345330000000  0.5349380000000 1.0
C      1  0.5174350000000  0.4465190000000  0.4481820000000 1.0
C      1  0.4468670000000  0.5112030000000  0.4748340000000 1.0
C      1  0.4468670000000  0.5273740000000  0.5025270000000 1.0
C      1  0.4468670000000  0.5060340000000  0.5264630000000 1.0
C      1  0.4468670000000  0.4766740000000  0.5135650000000 1.0
C      1  0.4468670000000  0.4798690000000  0.4816570000000 1.0
C      1  0.5557950000000  0.5112030000000  0.4748340000000 1.0
C      1  0.5557950000000  0.5273740000000  0.5025270000000 1.0
C      1  0.5557950000000  0.5060340000000  0.5264630000000 1.0
C      1  0.5557950000000  0.4766740000000  0.5135650000000 1.0
C      1  0.5557950000000  0.4798690000000  0.4816570000000 1.0
C      1  0.5757340000000  0.5601670000000  0.4491330000000 1.0
C      1  0.5757340000000  0.5669480000000  0.5411520000000 1.0
C      1  0.5757340000000  0.4815280000000  0.5760370000000 1.0
C      1  0.5757340000000  0.4219540000000  0.5055780000000 1.0
C      1  0.5757340000000  0.4705560000000  0.4271460000000 1.0
C      1  0.4269280000000  0.5601670000000  0.4491330000000 1.0
C      1  0.4269280000000  0.5669480000000  0.5411520000000 1.0
C      1  0.4269280000000  0.4815280000000  0.5760370000000 1.0
C      1  0.4269280000000  0.4219540000000  0.5055780000000 1.0
C      1  0.4269280000000  0.4705560000000  0.4271460000000 1.0
C      1  0.5013310000000  0.5658110000000  0.4061420000000 1.0
C      1  0.5013310000000  0.5022320000000  0.6141350000000 1.0
C      1  0.5013310000000  0.3921190000000  0.5370410000000 1.0
C      1  0.5013310000000  0.4314130000000  0.4084940000000 1.0
C      1  0.5013310000000  0.6095790000000  0.5332350000000 1.0
C      1  0.5238600000000  0.5002310000000  0.4998090000000 1.0
C      1  0.4788020000000  0.5002310000000  0.4998090000000 1.0
END
