TITL C-862500-986-329 22.9819357037527 125000 -474.954739661702 0 0 86 (D2) n - 1
REM
REM in /home/nfs/bkarasulu/CARBON/AIRSS/Generating-Clusters/TERSOFF/Higher-Symm/FIRE-HFTN
REM
REM
REM
REM
REM
REM ./C.cell (b20cbc046b6831c77cfcea5457e17084)
REM AIRSS Version 0.9.1 bugfix July 2018 build 013d7b7c2542+ Fri, 06 Jul 2018 19:26:36 +0100
REM compiler GCC version 9.2.1 20190827 (Red Hat 9.2.1-1)
REM options -cpp -mtune=generic -march=x86-64 -g -O0 -fpre-include=/usr/include/finclude/math-vector-fortran.h
REM seed -477860916 1370561944 798293481 -767906412 -274570328 -816504481 1870129099 404922312 -497296866 -1165275106 -1438294200 1280057794 -1697887652 -350182525 -93224087 -528116385 -513904058 -833110998 -86193131 -1104577615 -1662991891 -1534099835 1508294765 797558686 -1269847703 -1116583592 2060745126 1932733230 -548521637 1426213094 -1794604499 -550711417 1874822364
REM
CELL 1.54180   50.00000   50.00000   50.00000   90.00000   90.00000   90.00000
LATT -1
SFAC C  
C      1  0.4761490000000  0.4726800000000  0.4276950000000 1.0
C      1  0.5238510000000  0.4726800000000  0.5723050000000 1.0
C      1  0.4761490000000  0.5271340000000  0.5723050000000 1.0
C      1  0.5238510000000  0.5271340000000  0.4276950000000 1.0
C      1  0.5190280000000  0.5306720000000  0.5450310000000 1.0
C      1  0.4809720000000  0.5306720000000  0.4549690000000 1.0
C      1  0.5190280000000  0.4691430000000  0.4549690000000 1.0
C      1  0.4809720000000  0.4691430000000  0.5450310000000 1.0
C      1  0.4511330000000  0.5663430000000  0.4609390000000 1.0
C      1  0.5488670000000  0.5663430000000  0.5390610000000 1.0
C      1  0.4511330000000  0.4334710000000  0.5390610000000 1.0
C      1  0.5488670000000  0.4334710000000  0.4609390000000 1.0
C      1  0.4448120000000  0.4363340000000  0.4621220000000 1.0
C      1  0.5551880000000  0.4363340000000  0.5378780000000 1.0
C      1  0.4448120000000  0.5634810000000  0.5378780000000 1.0
C      1  0.5551880000000  0.5634810000000  0.4621220000000 1.0
C      1  0.5412520000000  0.5204060000000  0.5244990000000 1.0
C      1  0.4587480000000  0.5204060000000  0.4755010000000 1.0
C      1  0.5412520000000  0.4794090000000  0.4755010000000 1.0
C      1  0.4587480000000  0.4794090000000  0.5244990000000 1.0
C      1  0.4463140000000  0.5469920000000  0.4377500000000 1.0
C      1  0.5536860000000  0.5469920000000  0.5622500000000 1.0
C      1  0.4463140000000  0.4528230000000  0.5622500000000 1.0
C      1  0.5536860000000  0.4528230000000  0.4377500000000 1.0
C      1  0.5129140000000  0.4777990000000  0.5063590000000 1.0
C      1  0.4870860000000  0.4777990000000  0.4936410000000 1.0
C      1  0.5129140000000  0.5220160000000  0.4936410000000 1.0
C      1  0.4870860000000  0.5220160000000  0.5063590000000 1.0
C      1  0.4248190000000  0.5384740000000  0.5382060000000 1.0
C      1  0.5751810000000  0.5384730000000  0.4617940000000 1.0
C      1  0.4248200000000  0.4613410000000  0.4617940000000 1.0
C      1  0.5751800000000  0.4613410000000  0.5382060000000 1.0
C      1  0.5267170000000  0.4527000000000  0.5061460000000 1.0
C      1  0.4732830000000  0.4527000000000  0.4938540000000 1.0
C      1  0.5267170000000  0.5471150000000  0.4938540000000 1.0
C      1  0.4732830000000  0.5471150000000  0.5061460000000 1.0
C      1  0.5568240000000  0.4852140000000  0.5412520000000 1.0
C      1  0.4431760000000  0.4852140000000  0.4587480000000 1.0
C      1  0.5568250000000  0.5146010000000  0.4587480000000 1.0
C      1  0.4431750000000  0.5146010000000  0.5412520000000 1.0
C      1  0.4910130000000  0.5414180000000  0.5515060000000 1.0
C      1  0.5089870000000  0.5414180000000  0.4484940000000 1.0
C      1  0.4910130000000  0.4583970000000  0.4484940000000 1.0
C      1  0.5089870000000  0.4583970000000  0.5515060000000 1.0
C      1  0.4998060000000  0.4202760000000  0.5176840000000 1.0
C      1  0.5001940000000  0.4202760000000  0.4823160000000 1.0
C      1  0.4998060000000  0.5795390000000  0.4823160000000 1.0
C      1  0.5001940000000  0.5795390000000  0.5176840000000 1.0
C      1  0.6144700000000  0.4879540000000  0.5087410000000 1.0
C      1  0.3855300000000  0.4879540000000  0.4912590000000 1.0
C      1  0.6144700000000  0.5118610000000  0.4912590000000 1.0
C      1  0.3855300000000  0.5118610000000  0.5087410000000 1.0
C      1  0.4760720000000  0.4383910000000  0.4674760000000 1.0
C      1  0.5239280000000  0.4383900000000  0.5325240000000 1.0
C      1  0.4760720000000  0.5614240000000  0.5325240000000 1.0
C      1  0.5239280000000  0.5614240000000  0.4674760000000 1.0
C      1  0.5433690000000  0.5066830000000  0.4342750000000 1.0
C      1  0.4566310000000  0.5066830000000  0.5657250000000 1.0
C      1  0.5433690000000  0.4931320000000  0.5657250000000 1.0
C      1  0.4566310000000  0.4931320000000  0.4342750000000 1.0
C      1  0.5979600000000  0.5143170000000  0.4671940000000 1.0
C      1  0.4020400000000  0.5143180000000  0.5328060000000 1.0
C      1  0.5979600000000  0.4854970000000  0.5328060000000 1.0
C      1  0.4020400000000  0.4854970000000  0.4671940000000 1.0
C      1  0.4331070000000  0.5890390000000  0.4640330000000 1.0
C      1  0.5668930000000  0.5890390000000  0.5359670000000 1.0
C      1  0.4331070000000  0.4107760000000  0.5359670000000 1.0
C      1  0.5668930000000  0.4107760000000  0.4640330000000 1.0
C      1  0.5693320000000  0.5280250000000  0.5282000000000 1.0
C      1  0.4306680000000  0.5280250000000  0.4718000000000 1.0
C      1  0.5693320000000  0.4717900000000  0.4718000000000 1.0
C      1  0.4306680000000  0.4717900000000  0.5282000000000 1.0
C      1  0.5362190000000  0.4773790000000  0.4314620000000 1.0
C      1  0.4637810000000  0.4773790000000  0.5685380000000 1.0
C      1  0.5362190000000  0.5224360000000  0.5685380000000 1.0
C      1  0.4637810000000  0.5224360000000  0.4314620000000 1.0
C      1  0.5260240000000  0.4367730000000  0.4810730000000 1.0
C      1  0.4739760000000  0.4367730000000  0.5189270000000 1.0
C      1  0.5260240000000  0.5630420000000  0.5189270000000 1.0
C      1  0.4739760000000  0.5630420000000  0.4810730000000 1.0
C      1  0.5892040000000  0.4878770000000  0.4579250000000 1.0
C      1  0.4107960000000  0.4878770000000  0.5420750000000 1.0
C      1  0.5892040000000  0.5119380000000  0.5420750000000 1.0
C      1  0.4107960000000  0.5119380000000  0.4579250000000 1.0
C      1  0.5317020000000  0.4999070000000  0.5000000000000 1.0
C      1  0.4682980000000  0.4999070000000  0.5000000000000 1.0
END
