TITL C-862501-1041-1074 -4.4405979197653e-05 125000 -201.299268397438 0 0 36 (C5) n - 1
REM
REM in /home/nfs/bkarasulu/CARBON/AIRSS/Generating-Clusters/TERSOFF/Higher-Symm/FIRE-HFTN
REM
REM
REM
REM
REM
REM ./C.cell (b20cbc046b6831c77cfcea5457e17084)
REM AIRSS Version 0.9.1 bugfix July 2018 build 013d7b7c2542+ Fri, 06 Jul 2018 19:26:36 +0100
REM compiler GCC version 9.2.1 20190827 (Red Hat 9.2.1-1)
REM options -cpp -mtune=generic -march=x86-64 -g -O0 -fpre-include=/usr/include/finclude/math-vector-fortran.h
REM seed -1365041146 2085497981 1496635074 -1738829711 1551207475 -1574903727 2090781960 -1681857888 -1323056509 1675552965 56684126 -821307320 -1688686079 -1875028286 619021418 -1542157009 2083103449 695290884 -1203454379 -992936925 -53093561 1510309947 -106907045 -1989301549 -1222888238 -1166548568 1588683843 18436481 -1742212106 -1552242406 1448663629 820893455 1422762677
REM
CELL 1.54180   50.00000   50.00000   50.00000   90.00000   90.00000   90.00000
LATT -1
SFAC C  
C      1  0.5295040000000  0.4636460000000  0.4547100000000 1.0
C      1  0.4656170000000  0.4636450000000  0.4589350000000 1.0
C      1  0.4498930000000  0.4636440000000  0.5210010000000 1.0
C      1  0.5040620000000  0.4636460000000  0.5551360000000 1.0
C      1  0.5532650000000  0.4636470000000  0.5141650000000 1.0
C      1  0.4764410000000  0.4569920000000  0.5103950000000 1.0
C      1  0.5021790000000  0.4569930000000  0.5266090000000 1.0
C      1  0.5255530000000  0.4569930000000  0.5071410000000 1.0
C      1  0.5142610000000  0.4569930000000  0.4788960000000 1.0
C      1  0.4839080000000  0.4569920000000  0.4809070000000 1.0
C      1  0.4628940000000  0.5187030000000  0.5480790000000 1.0
C      1  0.5338310000000  0.5187050000000  0.5511370000000 1.0
C      1  0.5586600000000  0.5187060000000  0.4846160000000 1.0
C      1  0.5030670000000  0.5187040000000  0.4404470000000 1.0
C      1  0.4438810000000  0.5187020000000  0.4796690000000 1.0
C      1  0.5618310000000  0.4889480000000  0.5260190000000 1.0
C      1  0.5434240000000  0.4889480000000  0.4502260000000 1.0
C      1  0.4656530000000  0.4889450000000  0.4443100000000 1.0
C      1  0.4359940000000  0.4889450000000  0.5164470000000 1.0
C      1  0.4954350000000  0.4889470000000  0.5669460000000 1.0
C      1  0.5065600000000  0.5148070000000  0.5566020000000 1.0
C      1  0.5554300000000  0.5148090000000  0.5122420000000 1.0
C      1  0.5283430000000  0.5148080000000  0.4520550000000 1.0
C      1  0.4627320000000  0.5148060000000  0.4592180000000 1.0
C      1  0.4492690000000  0.5148060000000  0.5238310000000 1.0
C      1  0.4271100000000  0.4965520000000  0.4892160000000 1.0
C      1  0.4667920000000  0.4965530000000  0.5669800000000 1.0
C      1  0.5530110000000  0.4965550000000  0.5532710000000 1.0
C      1  0.5666170000000  0.4965560000000  0.4670350000000 1.0
C      1  0.4888060000000  0.4965530000000  0.4274470000000 1.0
C      1  0.5294960000000  0.5289430000000  0.4786230000000 1.0
C      1  0.4883550000000  0.5289420000000  0.4663300000000 1.0
C      1  0.4639510000000  0.5289420000000  0.5016590000000 1.0
C      1  0.4900100000000  0.5289420000000  0.5357860000000 1.0
C      1  0.5305190000000  0.5289430000000  0.5215490000000 1.0
C      1  0.5004660000000  0.5294330000000  0.5007890000000 1.0
END
