TITL C-862506-1665-1473 -0.00187688637110667 125000 -578.959365846103 0 0 114 (C5) n - 1
REM
REM in /home/nfs/bkarasulu/CARBON/AIRSS/Generating-Clusters/TERSOFF/Higher-Symm/FIRE-HFTN
REM
REM
REM
REM
REM
REM ./C.cell (b20cbc046b6831c77cfcea5457e17084)
REM AIRSS Version 0.9.1 bugfix July 2018 build 013d7b7c2542+ Fri, 06 Jul 2018 19:26:36 +0100
REM compiler GCC version 9.2.1 20190827 (Red Hat 9.2.1-1)
REM options -cpp -mtune=generic -march=x86-64 -g -O0 -fpre-include=/usr/include/finclude/math-vector-fortran.h
REM seed -1905202157 501781175 1614819122 746919381 892156105 32718533 -594717474 2044654143 -1909289538 -449751996 -1586796746 372026187 1041315596 -1491323509 1105335403 -976395835 1028590736 -1529160067 244377132 1081810788 1070085123 669726210 1274178925 1352524646 -2021398889 -1916158357 6055630 -1885717439 -1706746142 -78584048 -1217709718 -1822248303 -1638191999
REM
CELL 1.54180   50.00000   50.00000   50.00000   90.00000   90.00000   90.00000
LATT -1
SFAC C  
C      1  0.4140320000000  0.4788870000000  0.4856090000000 1.0
C      1  0.4140320000000  0.5075360000000  0.4758070000000 1.0
C      1  0.4140320000000  0.5257110000000  0.5000260000000 1.0
C      1  0.4140320000000  0.5082940000000  0.5247950000000 1.0
C      1  0.4140320000000  0.4793550000000  0.5158840000000 1.0
C      1  0.4540120000000  0.5598080000000  0.4791710000000 1.0
C      1  0.4540120000000  0.5386650000000  0.5507790000000 1.0
C      1  0.4540120000000  0.4640280000000  0.5527990000000 1.0
C      1  0.4540120000000  0.4390430000000  0.4824390000000 1.0
C      1  0.4540120000000  0.4982380000000  0.4369340000000 1.0
C      1  0.5526050000000  0.4319930000000  0.4812830000000 1.0
C      1  0.5526050000000  0.4971580000000  0.4298720000000 1.0
C      1  0.5526050000000  0.5661910000000  0.4759610000000 1.0
C      1  0.5526050000000  0.5436900000000  0.5558570000000 1.0
C      1  0.5526050000000  0.4607500000000  0.5591470000000 1.0
C      1  0.4755030000000  0.5283490000000  0.5237810000000 1.0
C      1  0.4755030000000  0.4865160000000  0.5346450000000 1.0
C      1  0.4755030000000  0.4632570000000  0.4982170000000 1.0
C      1  0.4755030000000  0.4907150000000  0.4648390000000 1.0
C      1  0.4755030000000  0.5309440000000  0.4806390000000 1.0
C      1  0.5041480000000  0.4547290000000  0.4902410000000 1.0
C      1  0.5041480000000  0.4956660000000  0.4542640000000 1.0
C      1  0.5041480000000  0.5425320000000  0.4820790000000 1.0
C      1  0.5041480000000  0.5305600000000  0.5352470000000 1.0
C      1  0.5041480000000  0.4762950000000  0.5402910000000 1.0
C      1  0.4339040000000  0.4718120000000  0.4431590000000 1.0
C      1  0.4339040000000  0.5457220000000  0.4559610000000 1.0
C      1  0.4339040000000  0.5563860000000  0.5302100000000 1.0
C      1  0.4339040000000  0.4890660000000  0.5632960000000 1.0
C      1  0.4339040000000  0.4367970000000  0.5094960000000 1.0
C      1  0.5247050000000  0.5030490000000  0.6019310000000 1.0
C      1  0.5247050000000  0.4043730000000  0.5347320000000 1.0
C      1  0.5247050000000  0.4377910000000  0.4201210000000 1.0
C      1  0.5247050000000  0.5571190000000  0.4164860000000 1.0
C      1  0.5247050000000  0.5974500000000  0.5288510000000 1.0
C      1  0.5215350000000  0.5416220000000  0.5101720000000 1.0
C      1  0.5215350000000  0.5035610000000  0.5430630000000 1.0
C      1  0.5215340000000  0.4605180000000  0.5170280000000 1.0
C      1  0.5215340000000  0.4719780000000  0.4680470000000 1.0
C      1  0.5215340000000  0.5221030000000  0.4638100000000 1.0
C      1  0.5098530000000  0.4877500000000  0.4256770000000 1.0
C      1  0.5098530000000  0.5672730000000  0.4657170000000 1.0
C      1  0.5098530000000  0.5537670000000  0.5537210000000 1.0
C      1  0.5098530000000  0.4658960000000  0.5680710000000 1.0
C      1  0.5098530000000  0.4250950000000  0.4889350000000 1.0
C      1  0.5452000000000  0.4588510000000  0.4499560000000 1.0
C      1  0.5452000000000  0.5352530000000  0.4457350000000 1.0
C      1  0.5452000000000  0.5628760000000  0.5170930000000 1.0
C      1  0.5452000000000  0.5035460000000  0.5654150000000 1.0
C      1  0.5452000000000  0.4392560000000  0.5239220000000 1.0
C      1  0.5025750000000  0.5089570000000  0.4061910000000 1.0
C      1  0.5025760000000  0.5923580000000  0.4798650000000 1.0
C      1  0.5025760000000  0.5480630000000  0.5819510000000 1.0
C      1  0.5025760000000  0.4372860000000  0.5713700000000 1.0
C      1  0.5025750000000  0.4131170000000  0.4627450000000 1.0
C      1  0.5831440000000  0.4722590000000  0.5432900000000 1.0
C      1  0.5831440000000  0.4506300000000  0.4873280000000 1.0
C      1  0.5831440000000  0.4971690000000  0.4494650000000 1.0
C      1  0.5831440000000  0.5475600000000  0.4820260000000 1.0
C      1  0.5831440000000  0.5321650000000  0.5400120000000 1.0
C      1  0.4304090000000  0.5170450000000  0.4528120000000 1.0
C      1  0.4304090000000  0.5505190000000  0.5019630000000 1.0
C      1  0.4304090000000  0.5141170000000  0.5489880000000 1.0
C      1  0.4304090000000  0.4581450000000  0.5288990000000 1.0
C      1  0.4304090000000  0.4599550000000  0.4694590000000 1.0
C      1  0.4799300000000  0.4464440000000  0.5234530000000 1.0
C      1  0.4799300000000  0.4615190000000  0.4566470000000 1.0
C      1  0.4799300000000  0.5297130000000  0.4503400000000 1.0
C      1  0.4799300000000  0.5567840000000  0.5132470000000 1.0
C      1  0.4799300000000  0.5053220000000  0.5584330000000 1.0
C      1  0.5354390000000  0.5714620000000  0.5469920000000 1.0
C      1  0.5354390000000  0.4777640000000  0.5828210000000 1.0
C      1  0.5354390000000  0.4147350000000  0.5047800000000 1.0
C      1  0.5354390000000  0.4694790000000  0.4207200000000 1.0
C      1  0.5354390000000  0.5663420000000  0.4468080000000 1.0
C      1  0.5444550000000  0.5223730000000  0.5279200000000 1.0
C      1  0.5444550000000  0.4807340000000  0.5302410000000 1.0
C      1  0.5444540000000  0.4656590000000  0.4913560000000 1.0
C      1  0.5444540000000  0.4979820000000  0.4650040000000 1.0
C      1  0.5444540000000  0.5330330000000  0.4876010000000 1.0
C      1  0.4745840000000  0.4154510000000  0.5310940000000 1.0
C      1  0.4745840000000  0.4446740000000  0.4295320000000 1.0
C      1  0.4745840000000  0.5502960000000  0.4259410000000 1.0
C      1  0.4745840000000  0.5863500000000  0.5252830000000 1.0
C      1  0.4745840000000  0.5030110000000  0.5902710000000 1.0
C      1  0.4969600000000  0.3965230000000  0.5362430000000 1.0
C      1  0.4969600000000  0.4339280000000  0.4131220000000 1.0
C      1  0.4969600000000  0.5625820000000  0.4106500000000 1.0
C      1  0.4969600000000  0.6046890000000  0.5322430000000 1.0
C      1  0.4969600000000  0.5020590000000  0.6098630000000 1.0
C      1  0.5341100000000  0.4258620000000  0.4507520000000 1.0
C      1  0.5341100000000  0.5243010000000  0.4146070000000 1.0
C      1  0.5341100000000  0.5890960000000  0.4970580000000 1.0
C      1  0.5341100000000  0.5307040000000  0.5841610000000 1.0
C      1  0.5341100000000  0.4298190000000  0.5555430000000 1.0
C      1  0.4710870000000  0.4334380000000  0.5621540000000 1.0
C      1  0.4710870000000  0.4206920000000  0.4562370000000 1.0
C      1  0.4710870000000  0.5174870000000  0.4113850000000 1.0
C      1  0.4710870000000  0.5900550000000  0.4895820000000 1.0
C      1  0.4710870000000  0.5381100000000  0.5827630000000 1.0
C      1  0.5727310000000  0.5028400000000  0.5520370000000 1.0
C      1  0.5727310000000  0.4517600000000  0.5191160000000 1.0
C      1  0.5727310000000  0.4672860000000  0.4603630000000 1.0
C      1  0.5727310000000  0.5279610000000  0.4569740000000 1.0
C      1  0.5727310000000  0.5499340000000  0.5136310000000 1.0
C      1  0.4675190000000  0.4732850000000  0.4180670000000 1.0
C      1  0.4675190000000  0.5700410000000  0.4496080000000 1.0
C      1  0.4675190000000  0.5699420000000  0.5513750000000 1.0
C      1  0.4675190000000  0.4731260000000  0.5827300000000 1.0
C      1  0.4675190000000  0.4133880000000  0.5003410000000 1.0
C      1  0.5509840000000  0.4999560000000  0.5004240000000 1.0
C      1  0.4471570000000  0.4999560000000  0.5004240000000 1.0
C      1  0.5139470000000  0.4999560000000  0.5004240000000 1.0
C      1  0.4774870000000  0.4999560000000  0.5004240000000 1.0
END
