TITL C-862501-1041-730 277.114429949717 125000 -733.294099354098 0 0 136 (C1) n - 1
REM
REM in /home/nfs/bkarasulu/CARBON/AIRSS/Generating-Clusters/TERSOFF/Higher-Symm/FIRE-HFTN
REM
REM
REM
REM
REM
REM ./C.cell (b20cbc046b6831c77cfcea5457e17084)
REM AIRSS Version 0.9.1 bugfix July 2018 build 013d7b7c2542+ Fri, 06 Jul 2018 19:26:36 +0100
REM compiler GCC version 9.2.1 20190827 (Red Hat 9.2.1-1)
REM options -cpp -mtune=generic -march=x86-64 -g -O0 -fpre-include=/usr/include/finclude/math-vector-fortran.h
REM seed 871114656 -1377434651 -434229555 678697433 -1946539271 -1002307210 1523014883 1832408532 -1813486749 -1199758095 -973529207 -892310036 -541600700 2057836768 -646826288 -793037318 1993675736 -2138136234 -516148176 1294925140 -284925675 -7000677 172577640 -409567961 1706694183 515411778 -2006755078 1795129079 -907052597 -75676585 -881074117 -1821846925 -1116685959
REM
CELL 1.54180   50.00000   50.00000   50.00000   90.00000   90.00000   90.00000
LATT -1
SFAC C  
C      1  0.5542780000000  0.4290060000000  0.4792050000000 1.0
C      1  0.5555290000000  0.4964500000000  0.4243010000000 1.0
C      1  0.5487310000000  0.5698130000000  0.4675150000000 1.0
C      1  0.5457200000000  0.5520200000000  0.5573370000000 1.0
C      1  0.5469890000000  0.4605860000000  0.5646470000000 1.0
C      1  0.5623920000000  0.5754670000000  0.5356840000000 1.0
C      1  0.5633570000000  0.4882000000000  0.5810130000000 1.0
C      1  0.5658970000000  0.4235920000000  0.5126090000000 1.0
C      1  0.5641490000000  0.4628710000000  0.4306280000000 1.0
C      1  0.5626910000000  0.5545410000000  0.4379030000000 1.0
C      1  0.5850780000000  0.4948620000000  0.4132490000000 1.0
C      1  0.5744530000000  0.5870350000000  0.4617650000000 1.0
C      1  0.5698760000000  0.5621970000000  0.5748180000000 1.0
C      1  0.5721820000000  0.4472500000000  0.5780600000000 1.0
C      1  0.5838780000000  0.4189260000000  0.4749470000000 1.0
C      1  0.4357160000000  0.4703340000000  0.4224410000000 1.0
C      1  0.4396100000000  0.5696250000000  0.4479860000000 1.0
C      1  0.4382660000000  0.5719510000000  0.5461100000000 1.0
C      1  0.4379570000000  0.4777400000000  0.5817740000000 1.0
C      1  0.4363960000000  0.4122790000000  0.5018590000000 1.0
C      1  0.5580690000000  0.5102130000000  0.4719860000000 1.0
C      1  0.5586840000000  0.5311000000000  0.4985680000000 1.0
C      1  0.5556880000000  0.5119400000000  0.5278240000000 1.0
C      1  0.5550480000000  0.4785680000000  0.5179070000000 1.0
C      1  0.5559630000000  0.4784090000000  0.4830970000000 1.0
C      1  0.4199320000000  0.5465140000000  0.4426360000000 1.0
C      1  0.4189890000000  0.5688330000000  0.5228390000000 1.0
C      1  0.4187150000000  0.4992470000000  0.5712310000000 1.0
C      1  0.4202800000000  0.4305570000000  0.5200250000000 1.0
C      1  0.4148840000000  0.4584600000000  0.4421070000000 1.0
C      1  0.5889530000000  0.5109820000000  0.5262640000000 1.0
C      1  0.5883260000000  0.4809980000000  0.5173500000000 1.0
C      1  0.5891250000000  0.4804400000000  0.4862490000000 1.0
C      1  0.5912910000000  0.5099060000000  0.4759100000000 1.0
C      1  0.5919530000000  0.5292920000000  0.5008350000000 1.0
C      1  0.4421470000000  0.5821680000000  0.4759950000000 1.0
C      1  0.4420180000000  0.5484870000000  0.5662980000000 1.0
C      1  0.4429510000000  0.4517830000000  0.5649260000000 1.0
C      1  0.4348850000000  0.4147010000000  0.4708810000000 1.0
C      1  0.4402920000000  0.5013790000000  0.4203920000000 1.0
C      1  0.5096740000000  0.5150560000000  0.4146920000000 1.0
C      1  0.5132620000000  0.5835340000000  0.4866650000000 1.0
C      1  0.5128310000000  0.5376210000000  0.5791310000000 1.0
C      1  0.5115090000000  0.4347450000000  0.5576690000000 1.0
C      1  0.5075520000000  0.4242120000000  0.4553230000000 1.0
C      1  0.5872590000000  0.5790130000000  0.5558900000000 1.0
C      1  0.5891240000000  0.4704860000000  0.5888380000000 1.0
C      1  0.5959090000000  0.4166730000000  0.5032410000000 1.0
C      1  0.5946680000000  0.4665130000000  0.4210220000000 1.0
C      1  0.5896940000000  0.5721000000000  0.4397570000000 1.0
C      1  0.4853630000000  0.5300350000000  0.4036740000000 1.0
C      1  0.4865700000000  0.5972360000000  0.4934010000000 1.0
C      1  0.4869250000000  0.5341470000000  0.5954800000000 1.0
C      1  0.4860130000000  0.4175860000000  0.5580150000000 1.0
C      1  0.4853090000000  0.4151900000000  0.4375010000000 1.0
C      1  0.4619000000000  0.4323350000000  0.4384680000000 1.0
C      1  0.4676380000000  0.5386670000000  0.4250870000000 1.0
C      1  0.4681230000000  0.5805780000000  0.5089590000000 1.0
C      1  0.4675790000000  0.5157030000000  0.5833720000000 1.0
C      1  0.4675030000000  0.4246250000000  0.5363290000000 1.0
C      1  0.5190470000000  0.4671590000000  0.4995810000000 1.0
C      1  0.4831400000000  0.4849900000000  0.4873020000000 1.0
C      1  0.5161530000000  0.5083730000000  0.4730620000000 1.0
C      1  0.5184000000000  0.5284150000000  0.5098680000000 1.0
C      1  0.5184770000000  0.4931020000000  0.5325640000000 1.0
C      1  0.4513040000000  0.4752310000000  0.4617500000000 1.0
C      1  0.4583180000000  0.5260230000000  0.4745510000000 1.0
C      1  0.4591120000000  0.5296470000000  0.5163870000000 1.0
C      1  0.4575260000000  0.4933570000000  0.5374640000000 1.0
C      1  0.4627770000000  0.4691010000000  0.5036180000000 1.0
C      1  0.4907010000000  0.5800200000000  0.4349640000000 1.0
C      1  0.4867760000000  0.5925180000000  0.5523850000000 1.0
C      1  0.4860600000000  0.4765180000000  0.6049230000000 1.0
C      1  0.4868670000000  0.3942990000000  0.5039940000000 1.0
C      1  0.4853560000000  0.4639440000000  0.4079470000000 1.0
C      1  0.5362090000000  0.5262740000000  0.4019430000000 1.0
C      1  0.5389750000000  0.5995410000000  0.4955130000000 1.0
C      1  0.5401480000000  0.5333060000000  0.5945080000000 1.0
C      1  0.5394860000000  0.4198490000000  0.5577730000000 1.0
C      1  0.5357890000000  0.4205160000000  0.4424740000000 1.0
C      1  0.4285970000000  0.4876750000000  0.4767960000000 1.0
C      1  0.4305100000000  0.5170070000000  0.4802600000000 1.0
C      1  0.4306610000000  0.5228270000000  0.5095810000000 1.0
C      1  0.4306210000000  0.4971360000000  0.5242630000000 1.0
C      1  0.4322800000000  0.4758270000000  0.5034220000000 1.0
C      1  0.5010630000000  0.5463490000000  0.5239540000000 1.0
C      1  0.4993720000000  0.4907780000000  0.5539470000000 1.0
C      1  0.4988240000000  0.4464670000000  0.5047390000000 1.0
C      1  0.4931160000000  0.4765840000000  0.4583580000000 1.0
C      1  0.5017000000000  0.5317430000000  0.4623220000000 1.0
C      1  0.4883350000000  0.4977570000000  0.4380440000000 1.0
C      1  0.4971500000000  0.5539240000000  0.4824600000000 1.0
C      1  0.4942870000000  0.5358820000000  0.5509160000000 1.0
C      1  0.4920940000000  0.4616670000000  0.5506090000000 1.0
C      1  0.4884670000000  0.4368550000000  0.4783600000000 1.0
C      1  0.5495150000000  0.5508080000000  0.4113160000000 1.0
C      1  0.5501970000000  0.5990430000000  0.5225340000000 1.0
C      1  0.5512990000000  0.5068600000000  0.6007000000000 1.0
C      1  0.5519770000000  0.4082350000000  0.5337480000000 1.0
C      1  0.5479710000000  0.4392870000000  0.4233940000000 1.0
C      1  0.4623670000000  0.5870980000000  0.5366750000000 1.0
C      1  0.4613090000000  0.4903610000000  0.5961390000000 1.0
C      1  0.4619290000000  0.4052670000000  0.5156750000000 1.0
C      1  0.4595150000000  0.4529190000000  0.4179370000000 1.0
C      1  0.4642960000000  0.5666830000000  0.4309930000000 1.0
C      1  0.5417960000000  0.4578510000000  0.5352520000000 1.0
C      1  0.5441790000000  0.4551030000000  0.4683040000000 1.0
C      1  0.5469470000000  0.5162510000000  0.4449540000000 1.0
C      1  0.5449850000000  0.5572720000000  0.4948920000000 1.0
C      1  0.5416770000000  0.5228010000000  0.5521550000000 1.0
C      1  0.4614090000000  0.4466410000000  0.4650440000000 1.0
C      1  0.4741430000000  0.5226990000000  0.4494000000000 1.0
C      1  0.4761410000000  0.5517480000000  0.5057140000000 1.0
C      1  0.4751100000000  0.5113500000000  0.5543690000000 1.0
C      1  0.4756000000000  0.4521330000000  0.5259400000000 1.0
C      1  0.4112050000000  0.5420200000000  0.5181640000000 1.0
C      1  0.4101760000000  0.4947730000000  0.5443650000000 1.0
C      1  0.4132140000000  0.4548770000000  0.5080120000000 1.0
C      1  0.4058280000000  0.4774570000000  0.4618070000000 1.0
C      1  0.4112450000000  0.5327910000000  0.4659050000000 1.0
C      1  0.4218750000000  0.5288560000000  0.5787560000000 1.0
C      1  0.4243720000000  0.4319450000000  0.5503140000000 1.0
C      1  0.4152980000000  0.4289060000000  0.4511670000000 1.0
C      1  0.4236890000000  0.5273110000000  0.4193330000000 1.0
C      1  0.4213730000000  0.5859070000000  0.4978510000000 1.0
C      1  0.5133770000000  0.4865040000000  0.5983950000000 1.0
C      1  0.5139210000000  0.4036920000000  0.5124560000000 1.0
C      1  0.5118330000000  0.4606170000000  0.4216670000000 1.0
C      1  0.5170600000000  0.5656410000000  0.4334640000000 1.0
C      1  0.5140740000000  0.5887930000000  0.5413430000000 1.0
C      1  0.5207570000000  0.5358540000000  0.4397890000000 1.0
C      1  0.5204020000000  0.5695190000000  0.5182570000000 1.0
C      1  0.5196950000000  0.5034230000000  0.5732550000000 1.0
C      1  0.5193090000000  0.4324100000000  0.5231560000000 1.0
C      1  0.5155650000000  0.4559180000000  0.4525500000000 1.0
C      1  0.5109720000000  0.4975730000000  0.5019440000000 1.0
END
