TITL C-862131-2149-158 2.72979168662541 125000 -129.828657270407 0 0 25 (C1) n - 1
REM
REM in /home/nfs/bkarasulu/CARBON/AIRSS/Generating-Clusters/TERSOFF/Higher-Symm/FIRE-HFTN
REM
REM
REM
REM
REM
REM ./C.cell (b20cbc046b6831c77cfcea5457e17084)
REM AIRSS Version 0.9.1 bugfix July 2018 build 013d7b7c2542+ Fri, 06 Jul 2018 19:26:36 +0100
REM compiler GCC version 9.2.1 20190827 (Red Hat 9.2.1-1)
REM options -cpp -mtune=generic -march=x86-64 -g -O0 -fpre-include=/usr/include/finclude/math-vector-fortran.h
REM seed -2115649474 -508940575 -124852587 1094442531 6989950 802185271 -812900183 1603802630 -776705677 1217367922 -989661549 454847605 -2005700091 1973517166 -1159742240 -1036926579 -1475918201 2091240521 -189837175 -580493139 7319977 771851332 584938068 1198271634 -258538911 757861657 -82734390 -648037777 -1532303497 817770488 -1671438098 -1829859001 1133828758
REM
CELL 1.54180   50.00000   50.00000   50.00000   90.00000   90.00000   90.00000
LATT -1
SFAC C  
C      1  0.4968360000000  0.5696280000000  0.5280220000000 1.0
C      1  0.5462360000000  0.4746730000000  0.4840610000000 1.0
C      1  0.4841380000000  0.5485710000000  0.5127530000000 1.0
C      1  0.4574120000000  0.5094900000000  0.5020810000000 1.0
C      1  0.5347930000000  0.5299680000000  0.4655280000000 1.0
C      1  0.4558600000000  0.4798480000000  0.5040240000000 1.0
C      1  0.4987560000000  0.5022630000000  0.5181690000000 1.0
C      1  0.4882830000000  0.5438040000000  0.4832930000000 1.0
C      1  0.5312220000000  0.4749590000000  0.5441700000000 1.0
C      1  0.4705310000000  0.5198800000000  0.4770050000000 1.0
C      1  0.4803600000000  0.4645280000000  0.5129590000000 1.0
C      1  0.5289900000000  0.4553370000000  0.4982230000000 1.0
C      1  0.5166460000000  0.4854520000000  0.4562740000000 1.0
C      1  0.5258880000000  0.5078870000000  0.5062110000000 1.0
C      1  0.5134350000000  0.5493540000000  0.4692650000000 1.0
C      1  0.5023140000000  0.4850890000000  0.5422600000000 1.0
C      1  0.4774530000000  0.5005390000000  0.4565230000000 1.0
C      1  0.4897720000000  0.4709360000000  0.4629670000000 1.0
C      1  0.4601320000000  0.4677900000000  0.4762960000000 1.0
C      1  0.4630970000000  0.5221610000000  0.5524120000000 1.0
C      1  0.4659860000000  0.5278360000000  0.5241770000000 1.0
C      1  0.5331800000000  0.5019860000000  0.4764920000000 1.0
C      1  0.4999890000000  0.4584970000000  0.4917140000000 1.0
C      1  0.5437990000000  0.4980560000000  0.5284510000000 1.0
C      1  0.5348940000000  0.4514700000000  0.5266680000000 1.0
END
