TITL C-862131-2149-49 0.0506055696414763 125000 -632.770106562912 0 0 111 (C1) n - 1
REM
REM in /home/nfs/bkarasulu/CARBON/AIRSS/Generating-Clusters/TERSOFF/Higher-Symm/FIRE-HFTN
REM
REM
REM
REM
REM
REM ./C.cell (b20cbc046b6831c77cfcea5457e17084)
REM AIRSS Version 0.9.1 bugfix July 2018 build 013d7b7c2542+ Fri, 06 Jul 2018 19:26:36 +0100
REM compiler GCC version 9.2.1 20190827 (Red Hat 9.2.1-1)
REM options -cpp -mtune=generic -march=x86-64 -g -O0 -fpre-include=/usr/include/finclude/math-vector-fortran.h
REM seed -126011764 1816085791 -816813262 -321288971 -1764680126 -2040916787 2012427549 1183288780 -602938825 1546326157 -36348625 -1838886787 306127912 -1898031589 -1478811434 -1811038079 2053707412 748694931 883138943 -1591185085 1774236960 -1834491814 194007853 -808274842 814971618 653624208 -447903889 713035455 -1688775410 -708836463 -402108553 1564347896 78452658
REM
CELL 1.54180   50.00000   50.00000   50.00000   90.00000   90.00000   90.00000
LATT -1
SFAC C  
C      1  0.5938300000000  0.4921940000000  0.4710560000000 1.0
C      1  0.5219540000000  0.4668300000000  0.4793030000000 1.0
C      1  0.4297170000000  0.4986090000000  0.5130870000000 1.0
C      1  0.5598140000000  0.4883980000000  0.5121560000000 1.0
C      1  0.5265870000000  0.4179260000000  0.5208360000000 1.0
C      1  0.4423030000000  0.4811410000000  0.5346030000000 1.0
C      1  0.4220600000000  0.5056520000000  0.4485830000000 1.0
C      1  0.4949100000000  0.5298170000000  0.4424780000000 1.0
C      1  0.5511170000000  0.5311660000000  0.4240910000000 1.0
C      1  0.4777400000000  0.4056970000000  0.5018780000000 1.0
C      1  0.4454750000000  0.4709400000000  0.4516580000000 1.0
C      1  0.4811090000000  0.5514610000000  0.5132840000000 1.0
C      1  0.4899880000000  0.4124100000000  0.4744090000000 1.0
C      1  0.4501780000000  0.4954550000000  0.4290280000000 1.0
C      1  0.5124430000000  0.5670600000000  0.5502070000000 1.0
C      1  0.4702750000000  0.5124740000000  0.4508740000000 1.0
C      1  0.5071250000000  0.4867560000000  0.5791410000000 1.0
C      1  0.5521810000000  0.4595570000000  0.5744150000000 1.0
C      1  0.5633220000000  0.4279190000000  0.4869090000000 1.0
C      1  0.5322490000000  0.5458220000000  0.5113560000000 1.0
C      1  0.5096380000000  0.5208690000000  0.3963540000000 1.0
C      1  0.5693190000000  0.5595250000000  0.5422100000000 1.0
C      1  0.5135240000000  0.5879080000000  0.4933100000000 1.0
C      1  0.4923290000000  0.4966310000000  0.4917000000000 1.0
C      1  0.5870480000000  0.5200650000000  0.5165050000000 1.0
C      1  0.5761240000000  0.5298660000000  0.5421990000000 1.0
C      1  0.4241540000000  0.5374600000000  0.5494740000000 1.0
C      1  0.4172550000000  0.4781930000000  0.4928180000000 1.0
C      1  0.4538920000000  0.5232140000000  0.4730000000000 1.0
C      1  0.4914860000000  0.5125750000000  0.5856280000000 1.0
C      1  0.4686960000000  0.4583420000000  0.4696890000000 1.0
C      1  0.5037430000000  0.4417000000000  0.4392060000000 1.0
C      1  0.4652540000000  0.5638270000000  0.5636170000000 1.0
C      1  0.4935560000000  0.4800870000000  0.5180280000000 1.0
C      1  0.5637250000000  0.4538520000000  0.4717280000000 1.0
C      1  0.5740150000000  0.5239640000000  0.4900670000000 1.0
C      1  0.4879330000000  0.5328690000000  0.4133250000000 1.0
C      1  0.4575970000000  0.5260540000000  0.4132630000000 1.0
C      1  0.4648640000000  0.5136790000000  0.5686590000000 1.0
C      1  0.4729600000000  0.4688630000000  0.4199760000000 1.0
C      1  0.5523090000000  0.5116310000000  0.5612340000000 1.0
C      1  0.5047420000000  0.4617750000000  0.4168550000000 1.0
C      1  0.4787840000000  0.5959740000000  0.5237850000000 1.0
C      1  0.4662920000000  0.4677770000000  0.5194380000000 1.0
C      1  0.4923720000000  0.4615400000000  0.5881960000000 1.0
C      1  0.4206720000000  0.4333430000000  0.4687340000000 1.0
C      1  0.4938140000000  0.5619120000000  0.5723250000000 1.0
C      1  0.4731040000000  0.5991480000000  0.4938530000000 1.0
C      1  0.5309860000000  0.4990320000000  0.4717640000000 1.0
C      1  0.5727700000000  0.4778550000000  0.4844630000000 1.0
C      1  0.5068060000000  0.5379630000000  0.5856280000000 1.0
C      1  0.4297950000000  0.4452970000000  0.4428210000000 1.0
C      1  0.4461660000000  0.4590460000000  0.5700720000000 1.0
C      1  0.4980330000000  0.5525550000000  0.4634860000000 1.0
C      1  0.5258940000000  0.5644940000000  0.4558170000000 1.0
C      1  0.5437670000000  0.5246560000000  0.4878280000000 1.0
C      1  0.5278100000000  0.4424700000000  0.5763250000000 1.0
C      1  0.4395670000000  0.5441890000000  0.4303250000000 1.0
C      1  0.5201670000000  0.4168490000000  0.4722550000000 1.0
C      1  0.4722970000000  0.4466440000000  0.5717040000000 1.0
C      1  0.5309320000000  0.4452980000000  0.5291330000000 1.0
C      1  0.5481570000000  0.5523090000000  0.4730330000000 1.0
C      1  0.5403030000000  0.4872910000000  0.5783430000000 1.0
C      1  0.5014720000000  0.5250500000000  0.4863310000000 1.0
C      1  0.5353180000000  0.5029770000000  0.5343040000000 1.0
C      1  0.5123190000000  0.4539020000000  0.5520360000000 1.0
C      1  0.5793720000000  0.5266700000000  0.4347630000000 1.0
C      1  0.4720360000000  0.5736710000000  0.4727230000000 1.0
C      1  0.4073210000000  0.4877020000000  0.4665910000000 1.0
C      1  0.4219770000000  0.5295450000000  0.5209750000000 1.0
C      1  0.4459390000000  0.4907110000000  0.5648140000000 1.0
C      1  0.5530590000000  0.5622800000000  0.5671970000000 1.0
C      1  0.4786490000000  0.4229420000000  0.5514860000000 1.0
C      1  0.4568440000000  0.4534840000000  0.4955500000000 1.0
C      1  0.4830420000000  0.5108600000000  0.5445270000000 1.0
C      1  0.4576460000000  0.4177690000000  0.5260560000000 1.0
C      1  0.5170520000000  0.4635970000000  0.5088280000000 1.0
C      1  0.4319530000000  0.4333120000000  0.5226690000000 1.0
C      1  0.5350850000000  0.5379770000000  0.5717520000000 1.0
C      1  0.5744510000000  0.4708810000000  0.5308800000000 1.0
C      1  0.4578670000000  0.4382040000000  0.4286030000000 1.0
C      1  0.4755760000000  0.5234640000000  0.5193230000000 1.0
C      1  0.5254910000000  0.4430740000000  0.4581550000000 1.0
C      1  0.4274690000000  0.4535610000000  0.5439170000000 1.0
C      1  0.4885910000000  0.4884270000000  0.4449370000000 1.0
C      1  0.5373170000000  0.5567730000000  0.4293030000000 1.0
C      1  0.5354650000000  0.5099040000000  0.4082680000000 1.0
C      1  0.4291920000000  0.5340580000000  0.4574940000000 1.0
C      1  0.5303970000000  0.4811050000000  0.4238470000000 1.0
C      1  0.4546280000000  0.5126220000000  0.5007590000000 1.0
C      1  0.5085160000000  0.5617560000000  0.5052520000000 1.0
C      1  0.5621460000000  0.5769550000000  0.4889030000000 1.0
C      1  0.5494260000000  0.4568960000000  0.4427730000000 1.0
C      1  0.4269620000000  0.4473870000000  0.4945080000000 1.0
C      1  0.5073770000000  0.4890010000000  0.5453830000000 1.0
C      1  0.5890670000000  0.5198840000000  0.4632100000000 1.0
C      1  0.5352870000000  0.5922100000000  0.4733080000000 1.0
C      1  0.4987290000000  0.4091480000000  0.5263560000000 1.0
C      1  0.5260850000000  0.5356900000000  0.5385760000000 1.0
C      1  0.5573030000000  0.4532930000000  0.5449670000000 1.0
C      1  0.6031810000000  0.4716120000000  0.5344410000000 1.0
C      1  0.4586940000000  0.5844520000000  0.5427030000000 1.0
C      1  0.4919720000000  0.4760220000000  0.4705650000000 1.0
C      1  0.4496170000000  0.5392130000000  0.5645380000000 1.0
C      1  0.4306110000000  0.5499160000000  0.5003270000000 1.0
C      1  0.4775400000000  0.4331420000000  0.4531810000000 1.0
C      1  0.5172100000000  0.5028840000000  0.4453460000000 1.0
C      1  0.5062310000000  0.5917410000000  0.5344880000000 1.0
C      1  0.4586280000000  0.5598550000000  0.4968490000000 1.0
C      1  0.5544040000000  0.5655400000000  0.5164200000000 1.0
C      1  0.5384630000000  0.4130050000000  0.4942910000000 1.0
END
