TITL C-862128-1543-530 -32.733736715576 125000 -872.818703099367 0 0 153 (C1) n - 1
REM
REM in /home/nfs/bkarasulu/CARBON/AIRSS/Generating-Clusters/TERSOFF/Higher-Symm/FIRE-HFTN
REM
REM
REM
REM
REM
REM ./C.cell (b20cbc046b6831c77cfcea5457e17084)
REM AIRSS Version 0.9.1 bugfix July 2018 build 013d7b7c2542+ Fri, 06 Jul 2018 19:26:36 +0100
REM compiler GCC version 9.2.1 20190827 (Red Hat 9.2.1-1)
REM options -cpp -mtune=generic -march=x86-64 -g -O0 -fpre-include=/usr/include/finclude/math-vector-fortran.h
REM seed -996853798 280721576 -210711701 -72954467 -914806057 1555768780 1280175593 1646912822 -211975799 743989825 -449781658 -419883584 -556579708 -1877887334 -1748452344 -1316078212 2039637952 658634615 966611118 1831331129 -1089233610 -1839733934 -1129919821 1945063067 138599303 -1737221968 1603770771 1229088815 -1537673256 -1173529238 -1755336059 -1274977587 1174238358
REM
CELL 1.54180   50.00000   50.00000   50.00000   90.00000   90.00000   90.00000
LATT -1
SFAC C  
C      1  0.4589300000000  0.5220900000000  0.4639800000000 1.0
C      1  0.5417490000000  0.5278720000000  0.5330790000000 1.0
C      1  0.4539220000000  0.5309580000000  0.5344970000000 1.0
C      1  0.5493300000000  0.5258710000000  0.4721660000000 1.0
C      1  0.5220650000000  0.4351290000000  0.4547010000000 1.0
C      1  0.4751910000000  0.4305730000000  0.5477140000000 1.0
C      1  0.5214360000000  0.4346000000000  0.5460800000000 1.0
C      1  0.4760950000000  0.4261490000000  0.4525960000000 1.0
C      1  0.4151590000000  0.4487910000000  0.5262140000000 1.0
C      1  0.5818780000000  0.4474350000000  0.4740840000000 1.0
C      1  0.4145800000000  0.4468340000000  0.4737890000000 1.0
C      1  0.5819470000000  0.4483060000000  0.5260230000000 1.0
C      1  0.5493920000000  0.5535140000000  0.4317960000000 1.0
C      1  0.4501750000000  0.5563020000000  0.5738200000000 1.0
C      1  0.5489420000000  0.5563800000000  0.5708250000000 1.0
C      1  0.4529420000000  0.5522550000000  0.4283590000000 1.0
C      1  0.6199920000000  0.4731720000000  0.5228390000000 1.0
C      1  0.3797530000000  0.4731460000000  0.4770470000000 1.0
C      1  0.6214900000000  0.4720000000000  0.4754860000000 1.0
C      1  0.3791330000000  0.4741060000000  0.5237650000000 1.0
C      1  0.5399230000000  0.5860260000000  0.5272000000000 1.0
C      1  0.4635970000000  0.5784060000000  0.4755460000000 1.0
C      1  0.5375900000000  0.5825030000000  0.4748050000000 1.0
C      1  0.4602720000000  0.5860500000000  0.5289010000000 1.0
C      1  0.4056810000000  0.5658410000000  0.5249040000000 1.0
C      1  0.5938470000000  0.5646180000000  0.4738880000000 1.0
C      1  0.4078350000000  0.5648380000000  0.4750160000000 1.0
C      1  0.5953840000000  0.5655850000000  0.5237510000000 1.0
C      1  0.5656530000000  0.4402850000000  0.5493460000000 1.0
C      1  0.4306180000000  0.4366350000000  0.4512010000000 1.0
C      1  0.5654160000000  0.4390440000000  0.4507660000000 1.0
C      1  0.4315190000000  0.4393480000000  0.5489880000000 1.0
C      1  0.3984590000000  0.5165310000000  0.4557310000000 1.0
C      1  0.6032400000000  0.5182920000000  0.5429090000000 1.0
C      1  0.3965220000000  0.5181950000000  0.5448100000000 1.0
C      1  0.6066350000000  0.5177540000000  0.4534500000000 1.0
C      1  0.5508810000000  0.5819880000000  0.5551270000000 1.0
C      1  0.4522860000000  0.5770500000000  0.4468030000000 1.0
C      1  0.5484810000000  0.5793290000000  0.4469680000000 1.0
C      1  0.4483210000000  0.5820510000000  0.5570910000000 1.0
C      1  0.4825340000000  0.4879950000000  0.5889570000000 1.0
C      1  0.5127610000000  0.4851800000000  0.4088070000000 1.0
C      1  0.4812070000000  0.4838960000000  0.4084240000000 1.0
C      1  0.5138430000000  0.4887880000000  0.5885430000000 1.0
C      1  0.4296460000000  0.4818400000000  0.4562350000000 1.0
C      1  0.5707930000000  0.4853510000000  0.5422130000000 1.0
C      1  0.4273680000000  0.4842830000000  0.5449700000000 1.0
C      1  0.5725120000000  0.4839660000000  0.4557690000000 1.0
C      1  0.5136170000000  0.4394460000000  0.5737340000000 1.0
C      1  0.4843310000000  0.4343160000000  0.4251840000000 1.0
C      1  0.5137060000000  0.4374970000000  0.4270010000000 1.0
C      1  0.4841580000000  0.4380840000000  0.5748090000000 1.0
C      1  0.5185540000000  0.5445430000000  0.5249580000000 1.0
C      1  0.4799490000000  0.5397700000000  0.4737370000000 1.0
C      1  0.5217910000000  0.5392480000000  0.4772500000000 1.0
C      1  0.4767020000000  0.5475280000000  0.5261310000000 1.0
C      1  0.5288780000000  0.4598470000000  0.4149150000000 1.0
C      1  0.4680700000000  0.4604400000000  0.5849280000000 1.0
C      1  0.5293770000000  0.4623040000000  0.5840710000000 1.0
C      1  0.4672590000000  0.4563650000000  0.4155460000000 1.0
C      1  0.5267390000000  0.4582840000000  0.5293910000000 1.0
C      1  0.4728250000000  0.4511110000000  0.4690030000000 1.0
C      1  0.5263160000000  0.4598170000000  0.4700970000000 1.0
C      1  0.4695540000000  0.4536550000000  0.5294150000000 1.0
C      1  0.5455120000000  0.4193000000000  0.4646430000000 1.0
C      1  0.4495900000000  0.4174460000000  0.5366530000000 1.0
C      1  0.5459760000000  0.4202400000000  0.5363250000000 1.0
C      1  0.4493990000000  0.4165790000000  0.4644480000000 1.0
C      1  0.4166980000000  0.5185080000000  0.5667940000000 1.0
C      1  0.5841720000000  0.5178580000000  0.4340430000000 1.0
C      1  0.4183700000000  0.5153740000000  0.4336880000000 1.0
C      1  0.5822950000000  0.5192510000000  0.5640290000000 1.0
C      1  0.6111620000000  0.5413580000000  0.5254070000000 1.0
C      1  0.3920800000000  0.5405290000000  0.4731950000000 1.0
C      1  0.6117530000000  0.5413820000000  0.4720160000000 1.0
C      1  0.3904100000000  0.5413180000000  0.5263120000000 1.0
C      1  0.5760030000000  0.4883270000000  0.5739170000000 1.0
C      1  0.4224130000000  0.4837010000000  0.4247710000000 1.0
C      1  0.5762350000000  0.4867720000000  0.4239580000000 1.0
C      1  0.4225730000000  0.4869380000000  0.5762150000000 1.0
C      1  0.4827220000000  0.5208390000000  0.6001890000000 1.0
C      1  0.5219250000000  0.5165980000000  0.4015310000000 1.0
C      1  0.4858820000000  0.5175760000000  0.4003150000000 1.0
C      1  0.5188250000000  0.5207370000000  0.5993280000000 1.0
C      1  0.5617560000000  0.5324730000000  0.4457780000000 1.0
C      1  0.4401030000000  0.5341690000000  0.5592210000000 1.0
C      1  0.5585480000000  0.5342750000000  0.5561640000000 1.0
C      1  0.4430090000000  0.5288900000000  0.4410730000000 1.0
C      1  0.5972150000000  0.4934920000000  0.5254930000000 1.0
C      1  0.4041960000000  0.4916890000000  0.4733440000000 1.0
C      1  0.5997700000000  0.4927170000000  0.4707180000000 1.0
C      1  0.4029770000000  0.4931190000000  0.5278490000000 1.0
C      1  0.5403460000000  0.4822660000000  0.5395540000000 1.0
C      1  0.4604760000000  0.4759740000000  0.4576730000000 1.0
C      1  0.5416240000000  0.4830250000000  0.4592930000000 1.0
C      1  0.4569640000000  0.4797950000000  0.5385250000000 1.0
C      1  0.5575710000000  0.4593090000000  0.4253390000000 1.0
C      1  0.4395230000000  0.4586840000000  0.5758430000000 1.0
C      1  0.5579450000000  0.4610120000000  0.5738440000000 1.0
C      1  0.4386830000000  0.4552310000000  0.4251470000000 1.0
C      1  0.3851880000000  0.4437760000000  0.4749190000000 1.0
C      1  0.6113460000000  0.4448440000000  0.5254800000000 1.0
C      1  0.3858130000000  0.4451660000000  0.5261520000000 1.0
C      1  0.6113810000000  0.4440140000000  0.4746050000000 1.0
C      1  0.5242710000000  0.5492480000000  0.5855850000000 1.0
C      1  0.4779100000000  0.5455870000000  0.4136120000000 1.0
C      1  0.5262380000000  0.5451400000000  0.4158100000000 1.0
C      1  0.4757590000000  0.5491040000000  0.5870140000000 1.0
C      1  0.4270630000000  0.4567560000000  0.4993110000000 1.0
C      1  0.5696910000000  0.4576810000000  0.4999500000000 1.0
C      1  0.4472970000000  0.5805360000000  0.5014950000000 1.0
C      1  0.5535220000000  0.5811640000000  0.5003480000000 1.0
C      1  0.5274830000000  0.4485200000000  0.4997000000000 1.0
C      1  0.4727010000000  0.4424850000000  0.4992250000000 1.0
C      1  0.3857580000000  0.5277610000000  0.4997860000000 1.0
C      1  0.6181730000000  0.5285650000000  0.4987090000000 1.0
C      1  0.4459880000000  0.4178060000000  0.5005440000000 1.0
C      1  0.5506950000000  0.4202670000000  0.5004390000000 1.0
C      1  0.6370600000000  0.4807910000000  0.4995170000000 1.0
C      1  0.3634490000000  0.4825840000000  0.4999970000000 1.0
C      1  0.4989900000000  0.5606080000000  0.5449360000000 1.0
C      1  0.5008100000000  0.5546040000000  0.4562090000000 1.0
C      1  0.4453830000000  0.5064620000000  0.5009690000000 1.0
C      1  0.5629050000000  0.5083720000000  0.4926110000000 1.0
C      1  0.5828810000000  0.4100240000000  0.5005650000000 1.0
C      1  0.4131270000000  0.4090780000000  0.5011440000000 1.0
C      1  0.6080570000000  0.4277390000000  0.5003550000000 1.0
C      1  0.3888470000000  0.4278820000000  0.5010270000000 1.0
C      1  0.3609290000000  0.5115530000000  0.4993520000000 1.0
C      1  0.6417620000000  0.5099630000000  0.4990780000000 1.0
C      1  0.4192720000000  0.5740390000000  0.5004000000000 1.0
C      1  0.5816180000000  0.5733720000000  0.4993010000000 1.0
C      1  0.5017450000000  0.5538410000000  0.4274710000000 1.0
C      1  0.4996250000000  0.5586180000000  0.5737620000000 1.0
C      1  0.5931020000000  0.5073540000000  0.4974800000000 1.0
C      1  0.4119790000000  0.5055020000000  0.5006490000000 1.0
C      1  0.5532430000000  0.4816880000000  0.4996120000000 1.0
C      1  0.4479390000000  0.4763020000000  0.4977110000000 1.0
C      1  0.5018100000000  0.4232520000000  0.4997550000000 1.0
C      1  0.4933070000000  0.4881170000000  0.5155000000000 1.0
C      1  0.5049960000000  0.6412740000000  0.5093110000000 1.0
C      1  0.4974040000000  0.4649250000000  0.5001160000000 1.0
C      1  0.5050600000000  0.6925030000000  0.5066310000000 1.0
C      1  0.4995670000000  0.5698690000000  0.4954730000000 1.0
C      1  0.4778730000000  0.5102360000000  0.5069130000000 1.0
C      1  0.4953150000000  0.6664170000000  0.4987350000000 1.0
C      1  0.5044660000000  0.3969870000000  0.4878780000000 1.0
C      1  0.5007200000000  0.3208250000000  0.5045640000000 1.0
C      1  0.4950390000000  0.5364640000000  0.5015290000000 1.0
C      1  0.4998350000000  0.5906210000000  0.5155710000000 1.0
C      1  0.5029130000000  0.3720340000000  0.5024610000000 1.0
C      1  0.4995170000000  0.3459860000000  0.4903070000000 1.0
C      1  0.4890760000000  0.6172470000000  0.5119610000000 1.0
END
