TITL C-862129-6180-1087 0.00170734327505884 125000 -779.685110104488 0 0 140 (C1) n - 1
REM
REM in /home/nfs/bkarasulu/CARBON/AIRSS/Generating-Clusters/TERSOFF/Higher-Symm/FIRE-HFTN
REM
REM
REM
REM
REM
REM ./C.cell (b20cbc046b6831c77cfcea5457e17084)
REM AIRSS Version 0.9.1 bugfix July 2018 build 013d7b7c2542+ Fri, 06 Jul 2018 19:26:36 +0100
REM compiler GCC version 9.2.1 20190827 (Red Hat 9.2.1-1)
REM options -cpp -mtune=generic -march=x86-64 -g -O0 -fpre-include=/usr/include/finclude/math-vector-fortran.h
REM seed -810692156 963687781 1537665486 -779918532 -2133755560 153781578 285948299 -1499222460 -102313144 856543574 -681101497 30003881 159380491 1385564783 39853703 1038891077 1220793986 1675174357 -346583196 999742832 1674619855 2144536072 387039886 1629948008 -1983646459 -1073329485 -1875800725 -870419866 -1177016399 2082953718 -520845158 1575387312 1526522913
REM
CELL 1.54180   50.00000   50.00000   50.00000   90.00000   90.00000   90.00000
LATT -1
SFAC C  
C      1  0.5577680000000  0.4360120000000  0.4206140000000 1.0
C      1  0.5791810000000  0.4382540000000  0.5577840000000 1.0
C      1  0.4423520000000  0.4386940000000  0.5789710000000 1.0
C      1  0.4208590000000  0.4365830000000  0.4421430000000 1.0
C      1  0.5587760000000  0.4404050000000  0.5786730000000 1.0
C      1  0.5786680000000  0.4387530000000  0.4410440000000 1.0
C      1  0.4412320000000  0.4395080000000  0.4213780000000 1.0
C      1  0.4215380000000  0.4400630000000  0.5585060000000 1.0
C      1  0.5389860000000  0.5622360000000  0.5144180000000 1.0
C      1  0.4877200000000  0.5651690000000  0.5336860000000 1.0
C      1  0.4726000000000  0.5785290000000  0.4864740000000 1.0
C      1  0.5171150000000  0.5738020000000  0.4724250000000 1.0
C      1  0.5361670000000  0.5584300000000  0.4857090000000 1.0
C      1  0.4906530000000  0.5639950000000  0.4706450000000 1.0
C      1  0.4654120000000  0.5681320000000  0.5120630000000 1.0
C      1  0.5178170000000  0.5655560000000  0.5359570000000 1.0
C      1  0.5152620000000  0.4807750000000  0.5391280000000 1.0
C      1  0.4610670000000  0.4807180000000  0.5150050000000 1.0
C      1  0.4849060000000  0.4796800000000  0.4619870000000 1.0
C      1  0.5392080000000  0.4792230000000  0.4847080000000 1.0
C      1  0.5158160000000  0.4761190000000  0.4615040000000 1.0
C      1  0.4607150000000  0.4776180000000  0.4842050000000 1.0
C      1  0.4844170000000  0.4801760000000  0.5388720000000 1.0
C      1  0.5389160000000  0.4786900000000  0.5154920000000 1.0
C      1  0.4554220000000  0.5991280000000  0.4736120000000 1.0
C      1  0.5254640000000  0.5982700000000  0.4573920000000 1.0
C      1  0.5483290000000  0.5922120000000  0.5248900000000 1.0
C      1  0.4744800000000  0.5917580000000  0.5455650000000 1.0
C      1  0.4479190000000  0.5923790000000  0.5281300000000 1.0
C      1  0.5279180000000  0.5935790000000  0.5504920000000 1.0
C      1  0.5527480000000  0.6043570000000  0.4674480000000 1.0
C      1  0.4677810000000  0.6038530000000  0.4471250000000 1.0
C      1  0.4850990000000  0.4618390000000  0.4092530000000 1.0
C      1  0.5903910000000  0.4627080000000  0.4845450000000 1.0
C      1  0.5151720000000  0.4637220000000  0.5906820000000 1.0
C      1  0.4092070000000  0.4623370000000  0.5147000000000 1.0
C      1  0.4852360000000  0.4631670000000  0.5907530000000 1.0
C      1  0.5907180000000  0.4624140000000  0.5144050000000 1.0
C      1  0.5147560000000  0.4611890000000  0.4089140000000 1.0
C      1  0.4092160000000  0.4619450000000  0.4847910000000 1.0
C      1  0.5678850000000  0.5092870000000  0.4516290000000 1.0
C      1  0.5491080000000  0.5089840000000  0.5688930000000 1.0
C      1  0.4295470000000  0.5085060000000  0.5479230000000 1.0
C      1  0.4543210000000  0.5099480000000  0.4305250000000 1.0
C      1  0.5694800000000  0.5087570000000  0.5476000000000 1.0
C      1  0.5462360000000  0.5082530000000  0.4310300000000 1.0
C      1  0.4318740000000  0.5075630000000  0.4500130000000 1.0
C      1  0.4501520000000  0.5079310000000  0.5692130000000 1.0
C      1  0.5795730000000  0.4152780000000  0.5136420000000 1.0
C      1  0.4865950000000  0.4161520000000  0.5792260000000 1.0
C      1  0.4202820000000  0.4146930000000  0.4868360000000 1.0
C      1  0.5129760000000  0.4140470000000  0.4199010000000 1.0
C      1  0.5795940000000  0.4153870000000  0.4850930000000 1.0
C      1  0.4844430000000  0.4149140000000  0.4205990000000 1.0
C      1  0.4210700000000  0.4155020000000  0.5153410000000 1.0
C      1  0.5151130000000  0.4165550000000  0.5793680000000 1.0
C      1  0.5284780000000  0.4387350000000  0.4256360000000 1.0
C      1  0.5739240000000  0.4403670000000  0.5285070000000 1.0
C      1  0.4715830000000  0.4411670000000  0.5737430000000 1.0
C      1  0.4258180000000  0.4393970000000  0.4713650000000 1.0
C      1  0.5294010000000  0.4419360000000  0.5737460000000 1.0
C      1  0.5737400000000  0.4405300000000  0.4704510000000 1.0
C      1  0.4706150000000  0.4405840000000  0.4263570000000 1.0
C      1  0.4265510000000  0.4412020000000  0.5291510000000 1.0
C      1  0.4624440000000  0.5255430000000  0.4844560000000 1.0
C      1  0.5133550000000  0.5224200000000  0.4652370000000 1.0
C      1  0.5350580000000  0.5284830000000  0.5161670000000 1.0
C      1  0.4818100000000  0.5315000000000  0.5366970000000 1.0
C      1  0.4595760000000  0.5348590000000  0.5123600000000 1.0
C      1  0.5132460000000  0.5320070000000  0.5393570000000 1.0
C      1  0.5341390000000  0.5286370000000  0.4844020000000 1.0
C      1  0.4857900000000  0.5339600000000  0.4664390000000 1.0
C      1  0.5846730000000  0.5345900000000  0.4573430000000 1.0
C      1  0.5455450000000  0.5341020000000  0.5855990000000 1.0
C      1  0.4117460000000  0.5327660000000  0.5437430000000 1.0
C      1  0.4617420000000  0.5348150000000  0.4137110000000 1.0
C      1  0.5866950000000  0.5335850000000  0.5424360000000 1.0
C      1  0.5391860000000  0.5336520000000  0.4146430000000 1.0
C      1  0.4161380000000  0.5332150000000  0.4569070000000 1.0
C      1  0.4544560000000  0.5327020000000  0.5863980000000 1.0
C      1  0.5667140000000  0.5591480000000  0.4569530000000 1.0
C      1  0.5443280000000  0.5590400000000  0.5678510000000 1.0
C      1  0.4301040000000  0.5570650000000  0.5422120000000 1.0
C      1  0.4615890000000  0.5574010000000  0.4347770000000 1.0
C      1  0.5701030000000  0.5596450000000  0.5423520000000 1.0
C      1  0.5399990000000  0.5587360000000  0.4327970000000 1.0
C      1  0.4350990000000  0.5570190000000  0.4578190000000 1.0
C      1  0.4547550000000  0.5571910000000  0.5686590000000 1.0
C      1  0.4464560000000  0.5030230000000  0.4759620000000 1.0
C      1  0.5210080000000  0.5018500000000  0.4462730000000 1.0
C      1  0.5522580000000  0.5052340000000  0.5234900000000 1.0
C      1  0.4751830000000  0.5061440000000  0.5526990000000 1.0
C      1  0.4458690000000  0.5069010000000  0.5226580000000 1.0
C      1  0.5232050000000  0.5064480000000  0.5537900000000 1.0
C      1  0.5523950000000  0.5055990000000  0.4769070000000 1.0
C      1  0.4780310000000  0.5069820000000  0.4485830000000 1.0
C      1  0.5313460000000  0.4840320000000  0.4001400000000 1.0
C      1  0.5999910000000  0.4848490000000  0.5314580000000 1.0
C      1  0.4674790000000  0.4850660000000  0.5998780000000 1.0
C      1  0.4013210000000  0.4847490000000  0.4675860000000 1.0
C      1  0.5323880000000  0.4862680000000  0.6000050000000 1.0
C      1  0.5986730000000  0.4857510000000  0.4678030000000 1.0
C      1  0.4690810000000  0.4849010000000  0.4002250000000 1.0
C      1  0.3991540000000  0.4844350000000  0.5317820000000 1.0
C      1  0.4813840000000  0.5814480000000  0.4331080000000 1.0
C      1  0.5697920000000  0.5823970000000  0.4781170000000 1.0
C      1  0.5146380000000  0.5779930000000  0.5758220000000 1.0
C      1  0.4243650000000  0.5764090000000  0.5123300000000 1.0
C      1  0.4787860000000  0.5784390000000  0.5724840000000 1.0
C      1  0.5763600000000  0.5806810000000  0.5135360000000 1.0
C      1  0.5166480000000  0.5818320000000  0.4312470000000 1.0
C      1  0.4313780000000  0.5797530000000  0.4786420000000 1.0
C      1  0.4404610000000  0.4854230000000  0.4136900000000 1.0
C      1  0.5853160000000  0.4848870000000  0.4390150000000 1.0
C      1  0.5609740000000  0.4840660000000  0.5859310000000 1.0
C      1  0.4134990000000  0.4829510000000  0.5602200000000 1.0
C      1  0.4389050000000  0.4824880000000  0.5857680000000 1.0
C      1  0.5860710000000  0.4836830000000  0.5600900000000 1.0
C      1  0.5600700000000  0.4843270000000  0.4135680000000 1.0
C      1  0.4141960000000  0.4833370000000  0.4382580000000 1.0
C      1  0.5252870000000  0.5159770000000  0.6027380000000 1.0
C      1  0.3953230000000  0.5136670000000  0.5241700000000 1.0
C      1  0.4792710000000  0.5133860000000  0.3969540000000 1.0
C      1  0.6011430000000  0.5148570000000  0.4766310000000 1.0
C      1  0.5216110000000  0.5128640000000  0.3973490000000 1.0
C      1  0.3997240000000  0.5138900000000  0.4762600000000 1.0
C      1  0.4745440000000  0.5144700000000  0.6027550000000 1.0
C      1  0.6032500000000  0.5140910000000  0.5232380000000 1.0
C      1  0.4766430000000  0.4484210000000  0.4549380000000 1.0
C      1  0.5452420000000  0.4484050000000  0.4764110000000 1.0
C      1  0.5233150000000  0.4499150000000  0.5452990000000 1.0
C      1  0.4549210000000  0.4495210000000  0.5230630000000 1.0
C      1  0.4772490000000  0.4495130000000  0.5452870000000 1.0
C      1  0.5454130000000  0.4484130000000  0.5228320000000 1.0
C      1  0.5227170000000  0.4464730000000  0.4541890000000 1.0
C      1  0.4542530000000  0.4476120000000  0.4772250000000 1.0
C      1  0.4743040000000  0.4317630000000  0.5003790000000 1.0
C      1  0.4996500000000  0.4307750000000  0.4744560000000 1.0
C      1  0.5255890000000  0.4317400000000  0.4998390000000 1.0
C      1  0.5002130000000  0.4327690000000  0.5257300000000 1.0
END
