TITL C-862128-1543-39 0.000113390691584128 125000 -130.292747426738 0 0 26 (C1) n - 1
REM
REM in /home/nfs/bkarasulu/CARBON/AIRSS/Generating-Clusters/TERSOFF/Higher-Symm/FIRE-HFTN
REM
REM
REM
REM
REM
REM ./C.cell (b20cbc046b6831c77cfcea5457e17084)
REM AIRSS Version 0.9.1 bugfix July 2018 build 013d7b7c2542+ Fri, 06 Jul 2018 19:26:36 +0100
REM compiler GCC version 9.2.1 20190827 (Red Hat 9.2.1-1)
REM options -cpp -mtune=generic -march=x86-64 -g -O0 -fpre-include=/usr/include/finclude/math-vector-fortran.h
REM seed -802042747 842977746 -1559074721 -235072550 -2031900085 -1617848871 -653066301 1252316170 2057069550 -904705277 1075259506 239090453 -974598366 850938173 -183995632 55747968 38307300 -764262588 80771151 -1683274063 1062204780 960182532 800081150 -322270598 -1854266286 738375558 1439521287 1804330826 1456184470 1653400918 -611009279 631524223 -1550858413
REM
CELL 1.54180   50.00000   50.00000   50.00000   90.00000   90.00000   90.00000
LATT -1
SFAC C  
C      1  0.5410120000000  0.5176310000000  0.5310550000000 1.0
C      1  0.5344850000000  0.5190770000000  0.4759230000000 1.0
C      1  0.4849070000000  0.5224940000000  0.4613510000000 1.0
C      1  0.4473970000000  0.5210080000000  0.5026610000000 1.0
C      1  0.4908400000000  0.5175740000000  0.5263750000000 1.0
C      1  0.4610070000000  0.5297740000000  0.5291180000000 1.0
C      1  0.4563480000000  0.5296370000000  0.4738200000000 1.0
C      1  0.5106010000000  0.5351790000000  0.4693210000000 1.0
C      1  0.5516410000000  0.5239220000000  0.4996830000000 1.0
C      1  0.5160040000000  0.5262170000000  0.5434660000000 1.0
C      1  0.5326520000000  0.4915110000000  0.4650320000000 1.0
C      1  0.4823840000000  0.4889320000000  0.4542850000000 1.0
C      1  0.4495230000000  0.4859670000000  0.5032070000000 1.0
C      1  0.4850030000000  0.4888720000000  0.5462670000000 1.0
C      1  0.5460110000000  0.4860500000000  0.5262110000000 1.0
C      1  0.4532460000000  0.4961570000000  0.4694010000000 1.0
C      1  0.5119800000000  0.4904190000000  0.4434120000000 1.0
C      1  0.5690700000000  0.4975690000000  0.5071420000000 1.0
C      1  0.5045360000000  0.5062270000000  0.5644000000000 1.0
C      1  0.4553860000000  0.4975660000000  0.5365260000000 1.0
C      1  0.4950190000000  0.4690720000000  0.5254880000000 1.0
C      1  0.4756350000000  0.4679750000000  0.5019990000000 1.0
C      1  0.5238400000000  0.4707240000000  0.5137490000000 1.0
C      1  0.5208630000000  0.4703620000000  0.4836000000000 1.0
C      1  0.4914720000000  0.4688130000000  0.4769430000000 1.0
C      1  0.4972430000000  0.5087470000000  0.4990720000000 1.0
END
