TITL C-862502-1143-1392 0.000157274466791571 125000 -367.666521304842 0 0 65 (C2) n - 1
REM
REM in /home/nfs/bkarasulu/CARBON/AIRSS/Generating-Clusters/TERSOFF/Higher-Symm/FIRE-HFTN
REM
REM
REM
REM
REM
REM ./C.cell (b20cbc046b6831c77cfcea5457e17084)
REM AIRSS Version 0.9.1 bugfix July 2018 build 013d7b7c2542+ Fri, 06 Jul 2018 19:26:36 +0100
REM compiler GCC version 9.2.1 20190827 (Red Hat 9.2.1-1)
REM options -cpp -mtune=generic -march=x86-64 -g -O0 -fpre-include=/usr/include/finclude/math-vector-fortran.h
REM seed 580417095 -1612385512 -1530965084 535463990 -1767303354 780526398 -825384379 545951779 -569132 -397592198 -793019161 2031418383 2016601489 -2066759072 -902741174 59834019 523067472 1854600890 995166955 1179274477 1977028430 270486471 846960263 1754584697 -432083433 1392985415 1834667293 -1747028765 795259593 207703510 397643109 -1613655233 -518576894
REM
CELL 1.54180   50.00000   50.00000   50.00000   90.00000   90.00000   90.00000
LATT -1
SFAC C  
C      1  0.5633720000000  0.5112440000000  0.4825010000000 1.0
C      1  0.4365900000000  0.5112440000000  0.5186070000000 1.0
C      1  0.4376920000000  0.5189020000000  0.4853230000000 1.0
C      1  0.5622700000000  0.5189020000000  0.5157850000000 1.0
C      1  0.5149630000000  0.5456790000000  0.4314310000000 1.0
C      1  0.4849990000000  0.5456790000000  0.5696770000000 1.0
C      1  0.4862700000000  0.5462080000000  0.4318380000000 1.0
C      1  0.5136920000000  0.5462090000000  0.5692690000000 1.0
C      1  0.4750530000000  0.5814710000000  0.4828070000000 1.0
C      1  0.5249090000000  0.5814710000000  0.5183000000000 1.0
C      1  0.5296560000000  0.5811840000000  0.4896940000000 1.0
C      1  0.4703060000000  0.5811840000000  0.5114140000000 1.0
C      1  0.4424060000000  0.4875140000000  0.4844490000000 1.0
C      1  0.5575560000000  0.4875140000000  0.5166590000000 1.0
C      1  0.5616080000000  0.4802930000000  0.4819890000000 1.0
C      1  0.4383540000000  0.4802930000000  0.5191200000000 1.0
C      1  0.5600870000000  0.4732090000000  0.4513280000000 1.0
C      1  0.4398750000000  0.4732100000000  0.5497800000000 1.0
C      1  0.4388310000000  0.4764300000000  0.4553370000000 1.0
C      1  0.5611310000000  0.4764300000000  0.5457710000000 1.0
C      1  0.5109950000000  0.5578080000000  0.5289950000000 1.0
C      1  0.4889680000000  0.5578080000000  0.4721130000000 1.0
C      1  0.4809370000000  0.5576700000000  0.5256840000000 1.0
C      1  0.5190260000000  0.5576700000000  0.4754230000000 1.0
C      1  0.4818500000000  0.4953070000000  0.4341160000000 1.0
C      1  0.5181120000000  0.4953080000000  0.5669920000000 1.0
C      1  0.5166150000000  0.4949520000000  0.4355520000000 1.0
C      1  0.4833470000000  0.4949530000000  0.5655560000000 1.0
C      1  0.4700130000000  0.5234690000000  0.4398480000000 1.0
C      1  0.5299500000000  0.5234700000000  0.5612600000000 1.0
C      1  0.5304590000000  0.5225620000000  0.4397300000000 1.0
C      1  0.4695030000000  0.5225630000000  0.5613780000000 1.0
C      1  0.4885020000000  0.5070780000000  0.4737960000000 1.0
C      1  0.5114610000000  0.5070790000000  0.5273120000000 1.0
C      1  0.5171030000000  0.5062200000000  0.4759880000000 1.0
C      1  0.4828590000000  0.5062200000000  0.5251200000000 1.0
C      1  0.5552190000000  0.5269920000000  0.4577740000000 1.0
C      1  0.4447430000000  0.5269920000000  0.5433340000000 1.0
C      1  0.4444720000000  0.5283320000000  0.4558540000000 1.0
C      1  0.5554910000000  0.5283330000000  0.5452540000000 1.0
C      1  0.5371240000000  0.4714650000000  0.5629070000000 1.0
C      1  0.4628380000000  0.4714650000000  0.4382010000000 1.0
C      1  0.4657200000000  0.4702350000000  0.5637890000000 1.0
C      1  0.5342420000000  0.4702340000000  0.4373190000000 1.0
C      1  0.4702790000000  0.4767890000000  0.5210390000000 1.0
C      1  0.5296830000000  0.4767880000000  0.4800690000000 1.0
C      1  0.5269620000000  0.4805880000000  0.5217330000000 1.0
C      1  0.4730000000000  0.4805880000000  0.4793750000000 1.0
C      1  0.4837510000000  0.4322490000000  0.4630420000000 1.0
C      1  0.5162110000000  0.4322490000000  0.5380660000000 1.0
C      1  0.5127420000000  0.4314880000000  0.4624350000000 1.0
C      1  0.4872190000000  0.4314890000000  0.5386730000000 1.0
C      1  0.5270930000000  0.4439780000000  0.5628500000000 1.0
C      1  0.4728690000000  0.4439780000000  0.4382590000000 1.0
C      1  0.4771170000000  0.4434610000000  0.5634870000000 1.0
C      1  0.5228450000000  0.4434610000000  0.4376210000000 1.0
C      1  0.5268120000000  0.4443550000000  0.4858190000000 1.0
C      1  0.4731500000000  0.4443560000000  0.5152900000000 1.0
C      1  0.4731170000000  0.4488510000000  0.4846560000000 1.0
C      1  0.5268450000000  0.4488510000000  0.5164520000000 1.0
C      1  0.4773100000000  0.5322780000000  0.4828730000000 1.0
C      1  0.5226520000000  0.5322780000000  0.5182340000000 1.0
C      1  0.5272160000000  0.5316380000000  0.4887140000000 1.0
C      1  0.4727460000000  0.5316380000000  0.5123940000000 1.0
C      1  0.4999810000000  0.4768260000000  0.5005540000000 1.0
END
