TITL C-862507-1800-811 68.887964981896 125000 -809.265638643714 0 0 139 (C1) n - 1
REM
REM in /home/nfs/bkarasulu/CARBON/AIRSS/Generating-Clusters/TERSOFF/Higher-Symm/FIRE-HFTN
REM
REM
REM
REM
REM
REM ./C.cell (b20cbc046b6831c77cfcea5457e17084)
REM AIRSS Version 0.9.1 bugfix July 2018 build 013d7b7c2542+ Fri, 06 Jul 2018 19:26:36 +0100
REM compiler GCC version 9.2.1 20190827 (Red Hat 9.2.1-1)
REM options -cpp -mtune=generic -march=x86-64 -g -O0 -fpre-include=/usr/include/finclude/math-vector-fortran.h
REM seed 1294356246 -1728429456 -1510211177 1535046706 -483776320 -1031853994 -1291751842 402248294 1160129754 1312160200 682692012 706466497 -235356715 -177861768 489048857 -1801276149 1834792471 1906858948 -2016370077 -281377649 1118099252 -1727880160 -1235352836 -1895084467 446129529 115659144 -693785744 1299678211 1953219730 -1534696572 1762569349 1673231822 -367304436
REM
CELL 1.54180   50.00000   50.00000   50.00000   90.00000   90.00000   90.00000
LATT -1
SFAC C  
C      1  0.4960620000000  0.4368610000000  0.4985360000000 1.0
C      1  0.5977550000000  0.5592420000000  0.4669240000000 1.0
C      1  0.5016290000000  0.5144340000000  0.4579480000000 1.0
C      1  0.3766960000000  0.5227090000000  0.4798400000000 1.0
C      1  0.3967710000000  0.5128620000000  0.5233950000000 1.0
C      1  0.4135690000000  0.4919680000000  0.4041200000000 1.0
C      1  0.4692640000000  0.5712880000000  0.4481520000000 1.0
C      1  0.5376190000000  0.5760890000000  0.5097340000000 1.0
C      1  0.4654610000000  0.5644450000000  0.5465270000000 1.0
C      1  0.5846820000000  0.5798770000000  0.4836650000000 1.0
C      1  0.4178940000000  0.4959020000000  0.4337590000000 1.0
C      1  0.3853990000000  0.5505910000000  0.4811140000000 1.0
C      1  0.4610100000000  0.4063520000000  0.4317330000000 1.0
C      1  0.5427420000000  0.5574510000000  0.5469670000000 1.0
C      1  0.4393330000000  0.4596670000000  0.5551480000000 1.0
C      1  0.5151380000000  0.4552890000000  0.4245720000000 1.0
C      1  0.4515800000000  0.4510770000000  0.4600390000000 1.0
C      1  0.5178200000000  0.4772570000000  0.4894810000000 1.0
C      1  0.4776490000000  0.4383360000000  0.5867140000000 1.0
C      1  0.4815240000000  0.4153290000000  0.4085670000000 1.0
C      1  0.4691330000000  0.4341670000000  0.4439840000000 1.0
C      1  0.6031300000000  0.5666670000000  0.5272580000000 1.0
C      1  0.4179450000000  0.5529710000000  0.5449760000000 1.0
C      1  0.4906560000000  0.5527420000000  0.5608270000000 1.0
C      1  0.4017890000000  0.4770450000000  0.4841650000000 1.0
C      1  0.4351000000000  0.4866350000000  0.5435690000000 1.0
C      1  0.5086210000000  0.4175520000000  0.5502930000000 1.0
C      1  0.4066790000000  0.4961040000000  0.5450110000000 1.0
C      1  0.4642790000000  0.3804300000000  0.4753350000000 1.0
C      1  0.4422060000000  0.5030560000000  0.4977480000000 1.0
C      1  0.4309870000000  0.5045390000000  0.3844580000000 1.0
C      1  0.5958680000000  0.4313140000000  0.5079870000000 1.0
C      1  0.5465380000000  0.4909910000000  0.4519480000000 1.0
C      1  0.5242820000000  0.4298030000000  0.5046760000000 1.0
C      1  0.4221830000000  0.4611880000000  0.5016730000000 1.0
C      1  0.5805160000000  0.5153550000000  0.4480060000000 1.0
C      1  0.4494670000000  0.5245080000000  0.5725110000000 1.0
C      1  0.5001220000000  0.5563470000000  0.4850380000000 1.0
C      1  0.4863380000000  0.3993640000000  0.5420630000000 1.0
C      1  0.5604400000000  0.4548320000000  0.5450460000000 1.0
C      1  0.5914440000000  0.4717170000000  0.4772520000000 1.0
C      1  0.4423850000000  0.5515540000000  0.5605510000000 1.0
C      1  0.5898220000000  0.5012040000000  0.4744590000000 1.0
C      1  0.5398790000000  0.5758770000000  0.4604030000000 1.0
C      1  0.4243360000000  0.4378530000000  0.5425870000000 1.0
C      1  0.6249800000000  0.5564520000000  0.5103610000000 1.0
C      1  0.4589630000000  0.4060910000000  0.5499140000000 1.0
C      1  0.5594760000000  0.4780110000000  0.4141590000000 1.0
C      1  0.5575510000000  0.4263060000000  0.5406070000000 1.0
C      1  0.4468590000000  0.5565170000000  0.4362610000000 1.0
C      1  0.3880110000000  0.5015800000000  0.4965710000000 1.0
C      1  0.5821450000000  0.4564690000000  0.4550870000000 1.0
C      1  0.4256690000000  0.5818270000000  0.4870970000000 1.0
C      1  0.5648450000000  0.4988960000000  0.5235560000000 1.0
C      1  0.5976200000000  0.5573340000000  0.5568430000000 1.0
C      1  0.4581940000000  0.4178840000000  0.5769030000000 1.0
C      1  0.5307840000000  0.4201650000000  0.5313530000000 1.0
C      1  0.5272680000000  0.4797020000000  0.4121150000000 1.0
C      1  0.4133950000000  0.5370260000000  0.5211610000000 1.0
C      1  0.5477530000000  0.4683480000000  0.5676830000000 1.0
C      1  0.4918230000000  0.3754270000000  0.5265330000000 1.0
C      1  0.4803000000000  0.5199340000000  0.4783130000000 1.0
C      1  0.5297450000000  0.5690580000000  0.5891090000000 1.0
C      1  0.4077930000000  0.5233770000000  0.4400450000000 1.0
C      1  0.5371400000000  0.4552480000000  0.4953400000000 1.0
C      1  0.4636770000000  0.4635260000000  0.5984540000000 1.0
C      1  0.6145380000000  0.5420350000000  0.4863600000000 1.0
C      1  0.4968370000000  0.5980740000000  0.5097720000000 1.0
C      1  0.6065700000000  0.5117680000000  0.5262590000000 1.0
C      1  0.5220970000000  0.4947560000000  0.4664720000000 1.0
C      1  0.5381100000000  0.4151240000000  0.4469960000000 1.0
C      1  0.5959350000000  0.5198930000000  0.4979350000000 1.0
C      1  0.4483090000000  0.4956880000000  0.4362800000000 1.0
C      1  0.4373620000000  0.4152520000000  0.5278690000000 1.0
C      1  0.4586950000000  0.4803140000000  0.4577300000000 1.0
C      1  0.5075200000000  0.5488110000000  0.4226970000000 1.0
C      1  0.5537620000000  0.5587940000000  0.4412050000000 1.0
C      1  0.4905100000000  0.5231390000000  0.5509060000000 1.0
C      1  0.5709160000000  0.5060940000000  0.5968460000000 1.0
C      1  0.5789530000000  0.5449700000000  0.4489330000000 1.0
C      1  0.4730620000000  0.4022940000000  0.4922260000000 1.0
C      1  0.5889980000000  0.4594390000000  0.5035990000000 1.0
C      1  0.4239860000000  0.5455560000000  0.4509840000000 1.0
C      1  0.4334020000000  0.4837220000000  0.5149010000000 1.0
C      1  0.4620930000000  0.3817940000000  0.4466400000000 1.0
C      1  0.5154180000000  0.5692410000000  0.5604790000000 1.0
C      1  0.4763500000000  0.4764490000000  0.5211690000000 1.0
C      1  0.5578560000000  0.5858600000000  0.5451720000000 1.0
C      1  0.4385250000000  0.4620130000000  0.5841370000000 1.0
C      1  0.5725620000000  0.5388990000000  0.5052010000000 1.0
C      1  0.4883690000000  0.4448650000000  0.4204890000000 1.0
C      1  0.4535910000000  0.5810950000000  0.4964520000000 1.0
C      1  0.5770280000000  0.5020800000000  0.4210650000000 1.0
C      1  0.4659960000000  0.5134360000000  0.4196020000000 1.0
C      1  0.5958610000000  0.5241660000000  0.5537780000000 1.0
C      1  0.5012260000000  0.6054830000000  0.4788660000000 1.0
C      1  0.5187670000000  0.5870100000000  0.5292280000000 1.0
C      1  0.5129240000000  0.5165460000000  0.5330330000000 1.0
C      1  0.5670180000000  0.5124390000000  0.5487500000000 1.0
C      1  0.4788720000000  0.5498320000000  0.5206550000000 1.0
C      1  0.4906040000000  0.4660090000000  0.4980830000000 1.0
C      1  0.4678490000000  0.4603460000000  0.5441320000000 1.0
C      1  0.5355110000000  0.5349660000000  0.5283000000000 1.0
C      1  0.5590870000000  0.5298060000000  0.6098600000000 1.0
C      1  0.5657180000000  0.5505150000000  0.5664190000000 1.0
C      1  0.5270300000000  0.4547370000000  0.5839460000000 1.0
C      1  0.4648050000000  0.5384300000000  0.4989740000000 1.0
C      1  0.5972060000000  0.5112700000000  0.5820580000000 1.0
C      1  0.4592430000000  0.5167810000000  0.5995670000000 1.0
C      1  0.5574430000000  0.4634170000000  0.4424150000000 1.0
C      1  0.4737990000000  0.4909200000000  0.6055500000000 1.0
C      1  0.5556830000000  0.4969140000000  0.5722600000000 1.0
C      1  0.5046310000000  0.4379010000000  0.5733390000000 1.0
C      1  0.5804060000000  0.4148600000000  0.5262500000000 1.0
C      1  0.4955620000000  0.5732480000000  0.4358630000000 1.0
C      1  0.4119950000000  0.5598060000000  0.4733180000000 1.0
C      1  0.5367720000000  0.5494610000000  0.4196010000000 1.0
C      1  0.4601610000000  0.5067170000000  0.5515050000000 1.0
C      1  0.5839390000000  0.5874320000000  0.5582620000000 1.0
C      1  0.4164630000000  0.4070500000000  0.5008860000000 1.0
C      1  0.5705580000000  0.4709730000000  0.5229230000000 1.0
C      1  0.4206640000000  0.4461600000000  0.4557750000000 1.0
C      1  0.5350320000000  0.4435020000000  0.4422040000000 1.0
C      1  0.5787310000000  0.5679130000000  0.5100130000000 1.0
C      1  0.4451840000000  0.4452470000000  0.4898090000000 1.0
C      1  0.4080370000000  0.4238100000000  0.4746010000000 1.0
C      1  0.4636340000000  0.4964750000000  0.4806610000000 1.0
C      1  0.5283880000000  0.5653890000000  0.4855050000000 1.0
C      1  0.4750640000000  0.5726800000000  0.4770360000000 1.0
C      1  0.5136450000000  0.5894020000000  0.4543700000000 1.0
C      1  0.4958010000000  0.5200550000000  0.4276140000000 1.0
C      1  0.4062280000000  0.4732350000000  0.4535250000000 1.0
C      1  0.5556470000000  0.5540220000000  0.5938000000000 1.0
C      1  0.4554170000000  0.4223480000000  0.5041510000000 1.0
C      1  0.5708170000000  0.4615530000000  0.3923210000000 1.0
C      1  0.4354160000000  0.5316280000000  0.5016170000000 1.0
C      1  0.4594380000000  0.5867810000000  0.5251770000000 1.0
C      1  0.4560130000000  0.5169780000000  0.3923700000000 1.0
C      1  0.5126240000000  0.5043110000000  0.4070300000000 1.0
END
