TITL C-862503-991-1275 -0.00222134790974718 125000 -143.223059380309 0 0 27 (Cs) n - 1
REM
REM in /home/nfs/bkarasulu/CARBON/AIRSS/Generating-Clusters/TERSOFF/Higher-Symm/FIRE-HFTN
REM
REM
REM
REM
REM
REM ./C.cell (b20cbc046b6831c77cfcea5457e17084)
REM AIRSS Version 0.9.1 bugfix July 2018 build 013d7b7c2542+ Fri, 06 Jul 2018 19:26:36 +0100
REM compiler GCC version 9.2.1 20190827 (Red Hat 9.2.1-1)
REM options -cpp -mtune=generic -march=x86-64 -g -O0 -fpre-include=/usr/include/finclude/math-vector-fortran.h
REM seed 514707462 531991759 52681579 -190058580 -1356590861 -1844123809 245364244 904765042 -277474994 67506716 551263470 1772928582 640434213 364564697 -1641955783 -474590864 -1811187840 -1706128711 1207300600 882684825 1036077068 1214819031 -231792492 766986551 877048209 -1086240762 -325072754 841935301 1352688918 749305902 400287693 -1476922452 511805114
REM
CELL 1.54180   50.00000   50.00000   50.00000   90.00000   90.00000   90.00000
LATT -1
SFAC C  
C      1  0.5084400000000  0.5241350000000  0.5150400000000 1.0
C      1  0.5084400000000  0.5241350000000  0.4853730000000 1.0
C      1  0.5323830000000  0.5157940000000  0.5331320000000 1.0
C      1  0.5323830000000  0.5157940000000  0.4672810000000 1.0
C      1  0.4824430000000  0.5260960000000  0.5330940000000 1.0
C      1  0.4824430000000  0.5260960000000  0.4673190000000 1.0
C      1  0.5681880000000  0.4849680000000  0.5144240000000 1.0
C      1  0.5681880000000  0.4849680000000  0.4859890000000 1.0
C      1  0.5185860000000  0.5201990000000  0.4388590000000 1.0
C      1  0.5185860000000  0.5201990000000  0.5615540000000 1.0
C      1  0.4969550000000  0.4745640000000  0.4618100000000 1.0
C      1  0.4969550000000  0.4745640000000  0.5386020000000 1.0
C      1  0.5246620000000  0.4676410000000  0.4672800000000 1.0
C      1  0.5246620000000  0.4676410000000  0.5331320000000 1.0
C      1  0.4746980000000  0.4610100000000  0.4758120000000 1.0
C      1  0.4746980000000  0.4610100000000  0.5246000000000 1.0
C      1  0.5441150000000  0.4889510000000  0.4708120000000 1.0
C      1  0.5441150000000  0.4889510000000  0.5296000000000 1.0
C      1  0.4448630000000  0.4944640000000  0.4792140000000 1.0
C      1  0.4448630000000  0.4944640000000  0.5211980000000 1.0
C      1  0.4931660000000  0.5010390000000  0.4494750000000 1.0
C      1  0.4931660000000  0.5010390000000  0.5509380000000 1.0
C      1  0.4946740000000  0.5423530000000  0.4421010000000 1.0
C      1  0.4946740000000  0.5423530000000  0.5583120000000 1.0
C      1  0.4549530000000  0.5211500000000  0.5253240000000 1.0
C      1  0.4549530000000  0.5211500000000  0.4750890000000 1.0
C      1  0.4580660000000  0.4734300000000  0.5002060000000 1.0
END
