TITL C-862502-1143-888 -0.00408396751233682 125000 -777.086888007587 0 0 132 (C3h) n - 1
REM
REM in /home/nfs/bkarasulu/CARBON/AIRSS/Generating-Clusters/TERSOFF/Higher-Symm/FIRE-HFTN
REM
REM
REM
REM
REM
REM ./C.cell (b20cbc046b6831c77cfcea5457e17084)
REM AIRSS Version 0.9.1 bugfix July 2018 build 013d7b7c2542+ Fri, 06 Jul 2018 19:26:36 +0100
REM compiler GCC version 9.2.1 20190827 (Red Hat 9.2.1-1)
REM options -cpp -mtune=generic -march=x86-64 -g -O0 -fpre-include=/usr/include/finclude/math-vector-fortran.h
REM seed -1510476917 -1421412726 -1639990932 -1401589313 -253306127 -527299262 -436068025 -1054352488 1985642108 -1807008950 -1418810879 794638350 -629584097 652336418 334819235 -2069263415 636735236 -106132628 -1868524012 567182900 -1475215168 -142394642 -1798963525 253392252 1630419766 -1465805709 -2000976329 -836318187 -69629587 -182826609 1304123922 -1881318848 2104976054
REM
CELL 1.54180   50.00000   50.00000   50.00000   90.00000   90.00000   90.00000
LATT -1
SFAC C  
C      1  0.5293320000000  0.5913650000000  0.5596050000000 1.0
C      1  0.5644580000000  0.4289160000000  0.5596060000000 1.0
C      1  0.4062100000000  0.4797200000000  0.5596050000000 1.0
C      1  0.5293330000000  0.5913640000000  0.4403940000000 1.0
C      1  0.5644580000000  0.4289150000000  0.4403950000000 1.0
C      1  0.4062100000000  0.4797200000000  0.4403940000000 1.0
C      1  0.4817790000000  0.5405310000000  0.5233850000000 1.0
C      1  0.5442120000000  0.4955150000000  0.5233850000000 1.0
C      1  0.4740090000000  0.4639540000000  0.5233850000000 1.0
C      1  0.4817790000000  0.5405310000000  0.4766150000000 1.0
C      1  0.5442120000000  0.4955140000000  0.4766150000000 1.0
C      1  0.4740090000000  0.4639540000000  0.4766150000000 1.0
C      1  0.5742760000000  0.5181520000000  0.4151350000000 1.0
C      1  0.4785830000000  0.4265990000000  0.4151350000000 1.0
C      1  0.4471420000000  0.5552480000000  0.4151340000000 1.0
C      1  0.5742760000000  0.5181530000000  0.5848650000000 1.0
C      1  0.4785820000000  0.4265990000000  0.5848650000000 1.0
C      1  0.4471410000000  0.5552490000000  0.5848650000000 1.0
C      1  0.5384750000000  0.4217500000000  0.4281310000000 1.0
C      1  0.4129960000000  0.5058040000000  0.4281300000000 1.0
C      1  0.5485290000000  0.5724450000000  0.4281310000000 1.0
C      1  0.5384750000000  0.4217500000000  0.5718700000000 1.0
C      1  0.4129960000000  0.5058050000000  0.5718690000000 1.0
C      1  0.5485280000000  0.5724460000000  0.5718690000000 1.0
C      1  0.4162730000000  0.5208880000000  0.5269340000000 1.0
C      1  0.5599520000000  0.5620660000000  0.5269350000000 1.0
C      1  0.5237740000000  0.4170470000000  0.5269350000000 1.0
C      1  0.4162740000000  0.5208880000000  0.4730650000000 1.0
C      1  0.5599530000000  0.5620650000000  0.4730650000000 1.0
C      1  0.5237740000000  0.4170470000000  0.4730650000000 1.0
C      1  0.5227320000000  0.5283250000000  0.4495810000000 1.0
C      1  0.5131650000000  0.4661510000000  0.4495810000000 1.0
C      1  0.4641040000000  0.5055240000000  0.4495810000000 1.0
C      1  0.5227310000000  0.5283250000000  0.5504190000000 1.0
C      1  0.5131640000000  0.4661510000000  0.5504190000000 1.0
C      1  0.4641040000000  0.5055240000000  0.5504190000000 1.0
C      1  0.4591750000000  0.5558160000000  0.5359790000000 1.0
C      1  0.5687500000000  0.5074470000000  0.5359800000000 1.0
C      1  0.4720740000000  0.4367370000000  0.5359790000000 1.0
C      1  0.4591760000000  0.5558160000000  0.4640200000000 1.0
C      1  0.5687510000000  0.5074470000000  0.4640210000000 1.0
C      1  0.4720740000000  0.4367370000000  0.4640210000000 1.0
C      1  0.5911050000000  0.4651880000000  0.4623170000000 1.0
C      1  0.4243000000000  0.4385060000000  0.4623160000000 1.0
C      1  0.4845960000000  0.5963050000000  0.4623160000000 1.0
C      1  0.5911050000000  0.4651890000000  0.5376840000000 1.0
C      1  0.4243000000000  0.4385070000000  0.5376830000000 1.0
C      1  0.4845950000000  0.5963050000000  0.5376830000000 1.0
C      1  0.4707260000000  0.4506990000000  0.5971000000000 1.0
C      1  0.4719400000000  0.5500020000000  0.5971000000000 1.0
C      1  0.5573320000000  0.4992990000000  0.5971000000000 1.0
C      1  0.4707270000000  0.4506990000000  0.4029000000000 1.0
C      1  0.4719410000000  0.5500020000000  0.4029000000000 1.0
C      1  0.5573330000000  0.4992990000000  0.4029000000000 1.0
C      1  0.5305970000000  0.5653230000000  0.5149710000000 1.0
C      1  0.5412720000000  0.4408400000000  0.5149720000000 1.0
C      1  0.4281300000000  0.4938370000000  0.5149710000000 1.0
C      1  0.5305980000000  0.5653230000000  0.4850280000000 1.0
C      1  0.5412730000000  0.4408400000000  0.4850290000000 1.0
C      1  0.4281300000000  0.4938370000000  0.4850280000000 1.0
C      1  0.4248090000000  0.4577590000000  0.4353550000000 1.0
C      1  0.5010150000000  0.5862380000000  0.4353550000000 1.0
C      1  0.5741770000000  0.4560020000000  0.4353560000000 1.0
C      1  0.4248080000000  0.4577600000000  0.5646440000000 1.0
C      1  0.5010140000000  0.5862380000000  0.5646440000000 1.0
C      1  0.5741770000000  0.4560030000000  0.5646450000000 1.0
C      1  0.4217720000000  0.5266440000000  0.4463640000000 1.0
C      1  0.5621890000000  0.5544250000000  0.4463640000000 1.0
C      1  0.5160400000000  0.4189300000000  0.4463640000000 1.0
C      1  0.4217710000000  0.5266440000000  0.5536350000000 1.0
C      1  0.5621880000000  0.5544260000000  0.5536360000000 1.0
C      1  0.5160400000000  0.4189310000000  0.5536360000000 1.0
C      1  0.4423410000000  0.5457640000000  0.4414560000000 1.0
C      1  0.5684630000000  0.5270520000000  0.4414570000000 1.0
C      1  0.4891970000000  0.4271830000000  0.4414570000000 1.0
C      1  0.4423400000000  0.5457640000000  0.5585430000000 1.0
C      1  0.5684620000000  0.5270530000000  0.5585440000000 1.0
C      1  0.4891970000000  0.4271840000000  0.5585440000000 1.0
C      1  0.5535740000000  0.4712440000000  0.4164490000000 1.0
C      1  0.4483100000000  0.4679810000000  0.4164490000000 1.0
C      1  0.4981170000000  0.5607740000000  0.4164480000000 1.0
C      1  0.5535740000000  0.4712450000000  0.5835520000000 1.0
C      1  0.4483090000000  0.4679820000000  0.5835510000000 1.0
C      1  0.4981160000000  0.5607750000000  0.5835510000000 1.0
C      1  0.4461290000000  0.3993440000000  0.5145680000000 1.0
C      1  0.4397640000000  0.5969820000000  0.5145670000000 1.0
C      1  0.6141070000000  0.5036750000000  0.5145680000000 1.0
C      1  0.4461290000000  0.3993430000000  0.4854330000000 1.0
C      1  0.4397650000000  0.5969820000000  0.4854320000000 1.0
C      1  0.6141070000000  0.5036740000000  0.4854330000000 1.0
C      1  0.4841880000000  0.5219240000000  0.4087600000000 1.0
C      1  0.5268940000000  0.5027320000000  0.4087600000000 1.0
C      1  0.4889200000000  0.4753430000000  0.4087600000000 1.0
C      1  0.4841870000000  0.5219250000000  0.5912400000000 1.0
C      1  0.5268930000000  0.5027320000000  0.5912400000000 1.0
C      1  0.4889190000000  0.4753440000000  0.5912400000000 1.0
C      1  0.5824860000000  0.5733900000000  0.4861660000000 1.0
C      1  0.5223150000000  0.3918700000000  0.4861660000000 1.0
C      1  0.3952000000000  0.5347390000000  0.4861650000000 1.0
C      1  0.5824850000000  0.5733900000000  0.5138340000000 1.0
C      1  0.5223150000000  0.3918700000000  0.5138350000000 1.0
C      1  0.3951990000000  0.5347390000000  0.5138330000000 1.0
C      1  0.5143880000000  0.5288940000000  0.4210140000000 1.0
C      1  0.5178300000000  0.4730930000000  0.4210140000000 1.0
C      1  0.4677840000000  0.4980130000000  0.4210140000000 1.0
C      1  0.5143870000000  0.5288940000000  0.5789860000000 1.0
C      1  0.5178290000000  0.4730930000000  0.5789860000000 1.0
C      1  0.4677830000000  0.4980130000000  0.5789860000000 1.0
C      1  0.5995810000000  0.4449350000000  0.4840810000000 1.0
C      1  0.4025220000000  0.4412920000000  0.4840800000000 1.0
C      1  0.4978970000000  0.6137720000000  0.4840800000000 1.0
C      1  0.5995820000000  0.4449350000000  0.5159200000000 1.0
C      1  0.4025220000000  0.4412920000000  0.5159190000000 1.0
C      1  0.4978970000000  0.6137730000000  0.5159190000000 1.0
C      1  0.5330590000000  0.4679600000000  0.4704330000000 1.0
C      1  0.4557230000000  0.4873900000000  0.4704330000000 1.0
C      1  0.5112180000000  0.5446500000000  0.4704330000000 1.0
C      1  0.5330590000000  0.4679600000000  0.5295670000000 1.0
C      1  0.4557230000000  0.4873900000000  0.5295670000000 1.0
C      1  0.5112180000000  0.5446500000000  0.5295670000000 1.0
C      1  0.5308850000000  0.5921820000000  0.4697910000000 1.0
C      1  0.5643900000000  0.4271620000000  0.4697920000000 1.0
C      1  0.4047260000000  0.4806560000000  0.4697910000000 1.0
C      1  0.5308840000000  0.5921820000000  0.5302080000000 1.0
C      1  0.5643900000000  0.4271630000000  0.5302090000000 1.0
C      1  0.4047260000000  0.4806560000000  0.5302080000000 1.0
C      1  0.4597240000000  0.5838190000000  0.4688150000000 1.0
C      1  0.5927280000000  0.4929710000000  0.4688160000000 1.0
C      1  0.4475490000000  0.4232100000000  0.4688160000000 1.0
C      1  0.4597230000000  0.5838190000000  0.5311840000000 1.0
C      1  0.5927270000000  0.4929710000000  0.5311850000000 1.0
C      1  0.4475490000000  0.4232100000000  0.5311840000000 1.0
END
