TITL C-862133-5440-1068 0.0449250257065497 125000 -625.002334281819 0 0 113 (C1) n - 1
REM
REM in /home/nfs/bkarasulu/CARBON/AIRSS/Generating-Clusters/TERSOFF/Higher-Symm/FIRE-HFTN
REM
REM
REM
REM
REM
REM ./C.cell (b20cbc046b6831c77cfcea5457e17084)
REM AIRSS Version 0.9.1 bugfix July 2018 build 013d7b7c2542+ Fri, 06 Jul 2018 19:26:36 +0100
REM compiler GCC version 9.2.1 20190827 (Red Hat 9.2.1-1)
REM options -cpp -mtune=generic -march=x86-64 -g -O0 -fpre-include=/usr/include/finclude/math-vector-fortran.h
REM seed 1074053713 453441770 -534270828 112962688 1191518839 -1973777017 293532306 -111660654 734819162 -1442519796 -335601647 824516612 1399947366 -697697602 -2121968408 248650118 1801346859 541501581 2012829201 -1595847120 283928650 1671011053 1943629566 -1319166270 -1446027905 1605286567 -1798509863 98741250 1197307350 683210471 -274071201 2114053008 568676442
REM
CELL 1.54180   50.00000   50.00000   50.00000   90.00000   90.00000   90.00000
LATT -1
SFAC C  
C      1  0.4596270000000  0.4343490000000  0.4831540000000 1.0
C      1  0.4609560000000  0.5186150000000  0.5645840000000 1.0
C      1  0.4617720000000  0.5459470000000  0.4517300000000 1.0
C      1  0.4565640000000  0.4431360000000  0.4191410000000 1.0
C      1  0.4583860000000  0.4590490000000  0.5895060000000 1.0
C      1  0.4578950000000  0.5967450000000  0.4914750000000 1.0
C      1  0.4802650000000  0.4988790000000  0.5552060000000 1.0
C      1  0.4806520000000  0.5479900000000  0.4739740000000 1.0
C      1  0.4788260000000  0.4523690000000  0.4708240000000 1.0
C      1  0.5177550000000  0.4866160000000  0.5802360000000 1.0
C      1  0.5162880000000  0.5754240000000  0.4722200000000 1.0
C      1  0.5149310000000  0.4395840000000  0.4485970000000 1.0
C      1  0.5844590000000  0.4467910000000  0.4640590000000 1.0
C      1  0.5781730000000  0.4966640000000  0.5591650000000 1.0
C      1  0.5845240000000  0.5559960000000  0.4735970000000 1.0
C      1  0.5124170000000  0.5143530000000  0.4512150000000 1.0
C      1  0.5112920000000  0.4468280000000  0.5097640000000 1.0
C      1  0.5137630000000  0.5355170000000  0.5416550000000 1.0
C      1  0.4918320000000  0.4093430000000  0.5056550000000 1.0
C      1  0.4923870000000  0.5511180000000  0.5754050000000 1.0
C      1  0.4942430000000  0.5375560000000  0.4193750000000 1.0
C      1  0.4296190000000  0.4703710000000  0.5455860000000 1.0
C      1  0.4290490000000  0.5532500000000  0.5025520000000 1.0
C      1  0.4281580000000  0.4754170000000  0.4518140000000 1.0
C      1  0.4617550000000  0.4107230000000  0.5458870000000 1.0
C      1  0.4627200000000  0.5840570000000  0.5528500000000 1.0
C      1  0.4637960000000  0.5033370000000  0.4002910000000 1.0
C      1  0.4353540000000  0.5233230000000  0.5481610000000 1.0
C      1  0.4358940000000  0.5295740000000  0.4553310000000 1.0
C      1  0.4342770000000  0.4462310000000  0.4963540000000 1.0
C      1  0.5835440000000  0.5142140000000  0.4391620000000 1.0
C      1  0.5764220000000  0.4409080000000  0.5206460000000 1.0
C      1  0.5803550000000  0.5560470000000  0.5387910000000 1.0
C      1  0.5540740000000  0.5145760000000  0.5214510000000 1.0
C      1  0.5557880000000  0.5133320000000  0.4843540000000 1.0
C      1  0.5551410000000  0.4771250000000  0.4901410000000 1.0
C      1  0.5287940000000  0.4611980000000  0.5345010000000 1.0
C      1  0.5316750000000  0.5498740000000  0.5163020000000 1.0
C      1  0.5351720000000  0.4891950000000  0.4416480000000 1.0
C      1  0.5409590000000  0.5560010000000  0.5661490000000 1.0
C      1  0.5435490000000  0.5275890000000  0.4265290000000 1.0
C      1  0.5421710000000  0.4184840000000  0.5098300000000 1.0
C      1  0.5298880000000  0.5686050000000  0.4461580000000 1.0
C      1  0.5287000000000  0.4187500000000  0.4659920000000 1.0
C      1  0.5315120000000  0.5135210000000  0.5856090000000 1.0
C      1  0.4315920000000  0.4510190000000  0.4343560000000 1.0
C      1  0.4330570000000  0.4671580000000  0.5752800000000 1.0
C      1  0.4327590000000  0.5803780000000  0.4903980000000 1.0
C      1  0.4711640000000  0.4714090000000  0.5515000000000 1.0
C      1  0.4706830000000  0.5575860000000  0.4994960000000 1.0
C      1  0.4695830000000  0.4692810000000  0.4492550000000 1.0
C      1  0.5615660000000  0.4257870000000  0.4687800000000 1.0
C      1  0.5609050000000  0.5167310000000  0.5723240000000 1.0
C      1  0.5617770000000  0.5611240000000  0.4528100000000 1.0
C      1  0.5013040000000  0.5960840000000  0.5071030000000 1.0
C      1  0.5018670000000  0.4570500000000  0.4113890000000 1.0
C      1  0.5002130000000  0.4457900000000  0.5797100000000 1.0
C      1  0.5673460000000  0.5531050000000  0.5118120000000 1.0
C      1  0.5696350000000  0.4889920000000  0.4466070000000 1.0
C      1  0.5608740000000  0.4634280000000  0.5318290000000 1.0
C      1  0.4703630000000  0.5353310000000  0.5861870000000 1.0
C      1  0.4721870000000  0.5554320000000  0.4265660000000 1.0
C      1  0.4696820000000  0.4075160000000  0.4865200000000 1.0
C      1  0.5037220000000  0.4586950000000  0.4842670000000 1.0
C      1  0.5065500000000  0.5071260000000  0.5453600000000 1.0
C      1  0.5066270000000  0.5345600000000  0.4726800000000 1.0
C      1  0.4301020000000  0.5035330000000  0.4389110000000 1.0
C      1  0.4292540000000  0.4452590000000  0.5273810000000 1.0
C      1  0.4297140000000  0.5503540000000  0.5333440000000 1.0
C      1  0.4828040000000  0.4943290000000  0.6141530000000 1.0
C      1  0.4829860000000  0.6008150000000  0.4483410000000 1.0
C      1  0.4833100000000  0.4047050000000  0.4365200000000 1.0
C      1  0.5601180000000  0.5294720000000  0.4520790000000 1.0
C      1  0.5580000000000  0.4414080000000  0.4962140000000 1.0
C      1  0.5583730000000  0.5373400000000  0.5496110000000 1.0
C      1  0.4747610000000  0.4971100000000  0.4445900000000 1.0
C      1  0.4744940000000  0.4534430000000  0.5288520000000 1.0
C      1  0.4766940000000  0.5474080000000  0.5259310000000 1.0
C      1  0.4762130000000  0.5843230000000  0.4252220000000 1.0
C      1  0.4738780000000  0.3926660000000  0.4615860000000 1.0
C      1  0.4738810000000  0.5218660000000  0.6117510000000 1.0
C      1  0.5348230000000  0.4580170000000  0.4376400000000 1.0
C      1  0.5336220000000  0.4679890000000  0.5651250000000 1.0
C      1  0.5339420000000  0.5727490000000  0.4946450000000 1.0
C      1  0.4864990000000  0.4351290000000  0.4316630000000 1.0
C      1  0.4876860000000  0.4755930000000  0.5902180000000 1.0
C      1  0.4869010000000  0.5899750000000  0.4770080000000 1.0
C      1  0.5189280000000  0.5285310000000  0.4974070000000 1.0
C      1  0.5150470000000  0.4835470000000  0.4796050000000 1.0
C      1  0.5195010000000  0.4898030000000  0.5274780000000 1.0
C      1  0.4599670000000  0.4858830000000  0.4875360000000 1.0
C      1  0.4610440000000  0.4955210000000  0.5180800000000 1.0
C      1  0.4608090000000  0.5171030000000  0.4942480000000 1.0
C      1  0.5094090000000  0.4856720000000  0.4188670000000 1.0
C      1  0.5070940000000  0.4387450000000  0.5508490000000 1.0
C      1  0.5084210000000  0.5748420000000  0.5279100000000 1.0
C      1  0.4849340000000  0.4234930000000  0.5324280000000 1.0
C      1  0.4860900000000  0.5660410000000  0.5493460000000 1.0
C      1  0.4871450000000  0.5077460000000  0.4183980000000 1.0
C      1  0.5809420000000  0.4759620000000  0.4715060000000 1.0
C      1  0.5733110000000  0.4899660000000  0.5300050000000 1.0
C      1  0.5825230000000  0.5315650000000  0.4934190000000 1.0
C      1  0.5215760000000  0.5463910000000  0.4252950000000 1.0
C      1  0.5193580000000  0.4084710000000  0.4947230000000 1.0
C      1  0.5200080000000  0.5436330000000  0.5823440000000 1.0
C      1  0.4360790000000  0.4723030000000  0.4800510000000 1.0
C      1  0.4376550000000  0.4961260000000  0.5341450000000 1.0
C      1  0.4371040000000  0.5305140000000  0.4859370000000 1.0
C      1  0.4366930000000  0.5040150000000  0.4102940000000 1.0
C      1  0.4349260000000  0.4199260000000  0.5409340000000 1.0
C      1  0.4357980000000  0.5749720000000  0.5480060000000 1.0
C      1  0.5199480000000  0.5002750000000  0.5015940000000 1.0
C      1  0.5910610000000  0.4967820000000  0.4994260000000 1.0
END
