TITL C-862507-1800-176 5.09268471201853 125000 -994.269457084308 0 0 170 (C2) n - 1
REM
REM in /home/nfs/bkarasulu/CARBON/AIRSS/Generating-Clusters/TERSOFF/Higher-Symm/FIRE-HFTN
REM
REM
REM
REM
REM
REM ./C.cell (b20cbc046b6831c77cfcea5457e17084)
REM AIRSS Version 0.9.1 bugfix July 2018 build 013d7b7c2542+ Fri, 06 Jul 2018 19:26:36 +0100
REM compiler GCC version 9.2.1 20190827 (Red Hat 9.2.1-1)
REM options -cpp -mtune=generic -march=x86-64 -g -O0 -fpre-include=/usr/include/finclude/math-vector-fortran.h
REM seed -89836292 -583823451 2086495420 -198864032 1597733356 -1381349506 371614981 1903578144 1387452228 -659054536 -838227664 328203379 -854221292 1564066748 1755888275 -407000159 -2052525990 -1581560629 1403910796 1901053291 -135263793 1797070684 1611979517 -512622928 -682376563 -1535915237 -312566280 351076714 1447985782 -426077748 -1453021274 -1492555927 -1789768401
REM
CELL 1.54180   50.00000   50.00000   50.00000   90.00000   90.00000   90.00000
LATT -1
SFAC C  
C      1  0.4683430000000  0.6081410000000  0.5215030000000 1.0
C      1  0.5303350000000  0.3911740000000  0.5173410000000 1.0
C      1  0.4696640000000  0.3911740000000  0.4833820000000 1.0
C      1  0.5316580000000  0.6081400000000  0.4792210000000 1.0
C      1  0.5349130000000  0.4093100000000  0.4914080000000 1.0
C      1  0.4637390000000  0.5908160000000  0.4947410000000 1.0
C      1  0.5362620000000  0.5908160000000  0.5059820000000 1.0
C      1  0.4650860000000  0.4093100000000  0.5093150000000 1.0
C      1  0.5154730000000  0.5364900000000  0.3850800000000 1.0
C      1  0.4964660000000  0.4735730000000  0.3983090000000 1.0
C      1  0.5035340000000  0.4735720000000  0.6024140000000 1.0
C      1  0.4845270000000  0.5364890000000  0.6156430000000 1.0
C      1  0.5760540000000  0.4805870000000  0.4061040000000 1.0
C      1  0.4282630000000  0.5147860000000  0.4029310000000 1.0
C      1  0.5717370000000  0.5147850000000  0.5977920000000 1.0
C      1  0.4239460000000  0.4805870000000  0.5946190000000 1.0
C      1  0.5494340000000  0.4226650000000  0.4127830000000 1.0
C      1  0.4527320000000  0.5727320000000  0.4111210000000 1.0
C      1  0.5472690000000  0.5727310000000  0.5896020000000 1.0
C      1  0.4505650000000  0.4226650000000  0.5879390000000 1.0
C      1  0.4192510000000  0.5631060000000  0.4813170000000 1.0
C      1  0.5783290000000  0.4386480000000  0.4791530000000 1.0
C      1  0.4216700000000  0.4386490000000  0.5215690000000 1.0
C      1  0.5807490000000  0.5631050000000  0.5194060000000 1.0
C      1  0.5351120000000  0.4626660000000  0.5045310000000 1.0
C      1  0.4633760000000  0.5385320000000  0.5085730000000 1.0
C      1  0.5366240000000  0.5385320000000  0.4921500000000 1.0
C      1  0.4648870000000  0.4626660000000  0.4961920000000 1.0
C      1  0.4181110000000  0.5355030000000  0.5355580000000 1.0
C      1  0.5787780000000  0.4656710000000  0.5344960000000 1.0
C      1  0.4212220000000  0.4656720000000  0.4662270000000 1.0
C      1  0.5818890000000  0.5355020000000  0.4651650000000 1.0
C      1  0.5430380000000  0.5246190000000  0.6006280000000 1.0
C      1  0.4504280000000  0.4693350000000  0.6061820000000 1.0
C      1  0.5495720000000  0.4693350000000  0.3945410000000 1.0
C      1  0.4569620000000  0.5246200000000  0.4000950000000 1.0
C      1  0.4996240000000  0.4242850000000  0.4573900000000 1.0
C      1  0.5008450000000  0.5738170000000  0.4551690000000 1.0
C      1  0.4991560000000  0.5738170000000  0.5455550000000 1.0
C      1  0.5003750000000  0.4242850000000  0.5433330000000 1.0
C      1  0.4715430000000  0.4360850000000  0.5466090000000 1.0
C      1  0.5296470000000  0.5649490000000  0.5453670000000 1.0
C      1  0.4703540000000  0.5649500000000  0.4553560000000 1.0
C      1  0.5284560000000  0.4360850000000  0.4541140000000 1.0
C      1  0.5944760000000  0.5429410000000  0.4982140000000 1.0
C      1  0.4081000000000  0.4578630000000  0.4990280000000 1.0
C      1  0.5919000000000  0.4578620000000  0.5016950000000 1.0
C      1  0.4055250000000  0.5429420000000  0.5025090000000 1.0
C      1  0.4423740000000  0.6075280000000  0.5393520000000 1.0
C      1  0.5558390000000  0.3933260000000  0.5353470000000 1.0
C      1  0.4441600000000  0.3933260000000  0.4653750000000 1.0
C      1  0.5576270000000  0.6075280000000  0.4613720000000 1.0
C      1  0.6005300000000  0.5157140000000  0.5148120000000 1.0
C      1  0.4060740000000  0.4840090000000  0.5157940000000 1.0
C      1  0.5939260000000  0.4840080000000  0.4849290000000 1.0
C      1  0.3994700000000  0.5157150000000  0.4859110000000 1.0
C      1  0.4303350000000  0.5122640000000  0.4856800000000 1.0
C      1  0.5640530000000  0.4912430000000  0.4792480000000 1.0
C      1  0.4359470000000  0.4912430000000  0.5214750000000 1.0
C      1  0.5696650000000  0.5122630000000  0.5150430000000 1.0
C      1  0.4272630000000  0.4505570000000  0.5497710000000 1.0
C      1  0.5747620000000  0.5521130000000  0.5477810000000 1.0
C      1  0.4252390000000  0.5521140000000  0.4529420000000 1.0
C      1  0.5727360000000  0.4505570000000  0.4509510000000 1.0
C      1  0.5981120000000  0.5371780000000  0.5593970000000 1.0
C      1  0.4013230000000  0.4628010000000  0.5589720000000 1.0
C      1  0.5986760000000  0.4628000000000  0.4417510000000 1.0
C      1  0.4018880000000  0.5371800000000  0.4413260000000 1.0
C      1  0.4692840000000  0.5516590000000  0.4006880000000 1.0
C      1  0.5347350000000  0.4433430000000  0.3998000000000 1.0
C      1  0.4652640000000  0.4433430000000  0.6009220000000 1.0
C      1  0.5307170000000  0.5516580000000  0.6000350000000 1.0
C      1  0.5290090000000  0.4639040000000  0.4602280000000 1.0
C      1  0.4666810000000  0.5387800000000  0.4658820000000 1.0
C      1  0.5333200000000  0.5387800000000  0.5348410000000 1.0
C      1  0.4709910000000  0.4639040000000  0.5404950000000 1.0
C      1  0.5584070000000  0.4808960000000  0.5120350000000 1.0
C      1  0.4396180000000  0.5218760000000  0.5149820000000 1.0
C      1  0.5603820000000  0.5218750000000  0.4857410000000 1.0
C      1  0.4415920000000  0.4808970000000  0.4886880000000 1.0
C      1  0.4071900000000  0.5124030000000  0.5555680000000 1.0
C      1  0.5899220000000  0.4871650000000  0.5556980000000 1.0
C      1  0.4100770000000  0.4871660000000  0.4450250000000 1.0
C      1  0.5928100000000  0.5124020000000  0.4451550000000 1.0
C      1  0.5765970000000  0.4882500000000  0.5839410000000 1.0
C      1  0.4217880000000  0.5084290000000  0.5821990000000 1.0
C      1  0.5782120000000  0.5084290000000  0.4185240000000 1.0
C      1  0.4234030000000  0.4882510000000  0.4167820000000 1.0
C      1  0.4924290000000  0.4945320000000  0.4169970000000 1.0
C      1  0.5175310000000  0.5077740000000  0.3860420000000 1.0
C      1  0.4824690000000  0.5077740000000  0.6146810000000 1.0
C      1  0.5075710000000  0.4945310000000  0.5837260000000 1.0
C      1  0.3949720000000  0.4875300000000  0.5437530000000 1.0
C      1  0.6038410000000  0.5118240000000  0.5452490000000 1.0
C      1  0.3961590000000  0.5118250000000  0.4554740000000 1.0
C      1  0.6050280000000  0.4875290000000  0.4569690000000 1.0
C      1  0.4424100000000  0.5774210000000  0.5340940000000 1.0
C      1  0.5559770000000  0.4233860000000  0.5306240000000 1.0
C      1  0.4440220000000  0.4233870000000  0.4700980000000 1.0
C      1  0.5575900000000  0.5774210000000  0.4666290000000 1.0
C      1  0.4420040000000  0.5252090000000  0.4615990000000 1.0
C      1  0.5526480000000  0.4788790000000  0.4538790000000 1.0
C      1  0.4473520000000  0.4788790000000  0.5468440000000 1.0
C      1  0.5579960000000  0.5252080000000  0.5391240000000 1.0
C      1  0.4465740000000  0.5728840000000  0.4391370000000 1.0
C      1  0.5533810000000  0.4265620000000  0.4406450000000 1.0
C      1  0.4466180000000  0.4265630000000  0.5600780000000 1.0
C      1  0.5534270000000  0.5728830000000  0.5615860000000 1.0
C      1  0.5476250000000  0.5496590000000  0.4290010000000 1.0
C      1  0.4543040000000  0.4479690000000  0.4299770000000 1.0
C      1  0.5456960000000  0.4479680000000  0.5707460000000 1.0
C      1  0.4523750000000  0.5496590000000  0.5717220000000 1.0
C      1  0.4683460000000  0.6280350000000  0.5773300000000 1.0
C      1  0.5310270000000  0.3704620000000  0.5727870000000 1.0
C      1  0.4689720000000  0.3704630000000  0.4279350000000 1.0
C      1  0.5316560000000  0.6280350000000  0.4233940000000 1.0
C      1  0.4917610000000  0.6026390000000  0.5406750000000 1.0
C      1  0.5067360000000  0.3956870000000  0.5367520000000 1.0
C      1  0.4932630000000  0.3956870000000  0.4639700000000 1.0
C      1  0.5082400000000  0.6026390000000  0.4600480000000 1.0
C      1  0.4436360000000  0.4669980000000  0.4103720000000 1.0
C      1  0.5582560000000  0.5293020000000  0.4104960000000 1.0
C      1  0.4417440000000  0.5293020000000  0.5902270000000 1.0
C      1  0.5563640000000  0.4669970000000  0.5903510000000 1.0
C      1  0.4431640000000  0.6199180000000  0.5657220000000 1.0
C      1  0.5557230000000  0.3804280000000  0.5615120000000 1.0
C      1  0.4442760000000  0.3804290000000  0.4392100000000 1.0
C      1  0.5568380000000  0.6199180000000  0.4350010000000 1.0
C      1  0.5072180000000  0.6206540000000  0.4368960000000 1.0
C      1  0.4937040000000  0.3768240000000  0.4414530000000 1.0
C      1  0.5062940000000  0.3768230000000  0.5592690000000 1.0
C      1  0.4927830000000  0.6206540000000  0.5638280000000 1.0
C      1  0.4516140000000  0.5036520000000  0.4437960000000 1.0
C      1  0.5399400000000  0.4989140000000  0.4329650000000 1.0
C      1  0.4600600000000  0.4989140000000  0.5677580000000 1.0
C      1  0.5483860000000  0.5036520000000  0.5569270000000 1.0
C      1  0.4357010000000  0.4426700000000  0.4521710000000 1.0
C      1  0.5670250000000  0.5575610000000  0.4497600000000 1.0
C      1  0.4329760000000  0.5575610000000  0.5509630000000 1.0
C      1  0.5642980000000  0.4426690000000  0.5485520000000 1.0
C      1  0.5156910000000  0.5592690000000  0.4294780000000 1.0
C      1  0.4856800000000  0.4372340000000  0.4301390000000 1.0
C      1  0.5143190000000  0.4372330000000  0.5705830000000 1.0
C      1  0.4843090000000  0.5592690000000  0.5712450000000 1.0
C      1  0.5652000000000  0.4124230000000  0.4839720000000 1.0
C      1  0.4332120000000  0.5884620000000  0.4882480000000 1.0
C      1  0.5667890000000  0.5884610000000  0.5124750000000 1.0
C      1  0.4348000000000  0.4124230000000  0.5167500000000 1.0
C      1  0.4861110000000  0.4721460000000  0.5175330000000 1.0
C      1  0.5156720000000  0.5293000000000  0.5143400000000 1.0
C      1  0.4843290000000  0.5293000000000  0.4863830000000 1.0
C      1  0.5138880000000  0.4721460000000  0.4831890000000 1.0
C      1  0.4956610000000  0.4470470000000  0.5947020000000 1.0
C      1  0.4999100000000  0.5524520000000  0.5969750000000 1.0
C      1  0.5000910000000  0.5524530000000  0.4037480000000 1.0
C      1  0.5043380000000  0.4470480000000  0.4060210000000 1.0
C      1  0.4606670000000  0.4332690000000  0.4910700000000 1.0
C      1  0.5402370000000  0.5677690000000  0.4870010000000 1.0
C      1  0.4597630000000  0.5677690000000  0.5137220000000 1.0
C      1  0.5393320000000  0.4332690000000  0.5096520000000 1.0
C      1  0.4652890000000  0.4925410000000  0.5963730000000 1.0
C      1  0.5320330000000  0.5078420000000  0.5799320000000 1.0
C      1  0.4679670000000  0.5078430000000  0.4207900000000 1.0
C      1  0.5347110000000  0.4925410000000  0.4043500000000 1.0
C      1  0.5006540000000  0.4439720000000  0.4845690000000 1.0
C      1  0.4998010000000  0.5569880000000  0.4841860000000 1.0
C      1  0.5002000000000  0.5569880000000  0.5165370000000 1.0
C      1  0.4993450000000  0.4439720000000  0.5161530000000 1.0
C      1  0.5017900000000  0.5001860000000  0.5156300000000 1.0
C      1  0.4982100000000  0.5001860000000  0.4850930000000 1.0
END
