TITL C-862500-986-513 295756.658512745 125000 -1136.46803854225 0 0 200 (C2) n - 1
REM
REM in /home/nfs/bkarasulu/CARBON/AIRSS/Generating-Clusters/TERSOFF/Higher-Symm/FIRE-HFTN
REM
REM
REM
REM
REM
REM ./C.cell (b20cbc046b6831c77cfcea5457e17084)
REM AIRSS Version 0.9.1 bugfix July 2018 build 013d7b7c2542+ Fri, 06 Jul 2018 19:26:36 +0100
REM compiler GCC version 9.2.1 20190827 (Red Hat 9.2.1-1)
REM options -cpp -mtune=generic -march=x86-64 -g -O0 -fpre-include=/usr/include/finclude/math-vector-fortran.h
REM seed -1262421619 -816261870 887383840 -1687009789 1351608517 2029311680 -1522019403 -40216028 339167267 655830827 -2089574048 -1308843982 -1220974385 424200153 -1955180882 -1750740932 32720875 317911385 -1408758602 1587209733 -530409423 -1659359379 -1078784793 104363990 1530675079 1128566838 -1514521857 -856709398 1787859776 2051333353 1781293005 965919929 -2088017459
REM
CELL 1.54180   50.00000   50.00000   50.00000   90.00000   90.00000   90.00000
LATT -1
SFAC C  
C      1  0.4192200000000  0.4561590000000  0.5065090000000 1.0
C      1  0.5807800000000  0.4561590000000  0.4934910000000 1.0
C      1  0.5362100000000  0.4104410000000  0.4250600000000 1.0
C      1  0.4637900000000  0.4104410000000  0.5749400000000 1.0
C      1  0.4011890000000  0.5556670000000  0.5549960000000 1.0
C      1  0.5988110000000  0.5556670000000  0.4450040000000 1.0
C      1  0.4220130000000  0.4215910000000  0.4455360000000 1.0
C      1  0.5779870000000  0.4215910000000  0.5544640000000 1.0
C      1  0.5408240000000  0.5218400000000  0.3902390000000 1.0
C      1  0.4591760000000  0.5218400000000  0.6097610000000 1.0
C      1  0.4316910000000  0.4369960000000  0.5802470000000 1.0
C      1  0.5683090000000  0.4369960000000  0.4197530000000 1.0
C      1  0.4408980000000  0.4549050000000  0.5527160000000 1.0
C      1  0.5591020000000  0.4549050000000  0.4472840000000 1.0
C      1  0.5245800000000  0.3909280000000  0.4786560000000 1.0
C      1  0.4754200000000  0.3909280000000  0.5213440000000 1.0
C      1  0.4227790000000  0.4695660000000  0.4255470000000 1.0
C      1  0.5772210000000  0.4695660000000  0.5744530000000 1.0
C      1  0.4994760000000  0.4540040000000  0.3759700000000 1.0
C      1  0.5005240000000  0.4540040000000  0.6240300000000 1.0
C      1  0.4177980000000  0.4743420000000  0.5673240000000 1.0
C      1  0.5822020000000  0.4743420000000  0.4326760000000 1.0
C      1  0.5957580000000  0.4990200000000  0.4439430000000 1.0
C      1  0.4042420000000  0.4990200000000  0.5560570000000 1.0
C      1  0.5526690000000  0.4578260000000  0.5052470000000 1.0
C      1  0.4473310000000  0.4578260000000  0.4947520000000 1.0
C      1  0.5407610000000  0.4044820000000  0.5418600000000 1.0
C      1  0.4592390000000  0.4044820000000  0.4581400000000 1.0
C      1  0.5568890000000  0.6217750000000  0.4795730000000 1.0
C      1  0.4431110000000  0.6217750000000  0.5204270000000 1.0
C      1  0.5180130000000  0.4794530000000  0.4155840000000 1.0
C      1  0.4819870000000  0.4794530000000  0.5844160000000 1.0
C      1  0.5205790000000  0.3858650000000  0.4292340000000 1.0
C      1  0.4794210000000  0.3858650000000  0.5707660000000 1.0
C      1  0.5660490000000  0.5836780000000  0.5436220000000 1.0
C      1  0.4339510000000  0.5836780000000  0.4563780000000 1.0
C      1  0.5171990000000  0.5271850000000  0.6257730000000 1.0
C      1  0.4828010000000  0.5271850000000  0.3742270000000 1.0
C      1  0.3994000000000  0.5712610000000  0.5279320000000 1.0
C      1  0.6006000000000  0.5712610000000  0.4720680000000 1.0
C      1  0.4653980000000  0.5640660000000  0.4066720000000 1.0
C      1  0.5346020000000  0.5640660000000  0.5933280000000 1.0
C      1  0.5251780000000  0.4924820000000  0.3646250000000 1.0
C      1  0.4748210000000  0.4924820000000  0.6353750000000 1.0
C      1  0.4530810000000  0.4931420000000  0.3941670000000 1.0
C      1  0.5469190000000  0.4931420000000  0.6058330000000 1.0
C      1  0.4853310000000  0.4302570000000  0.4158780000000 1.0
C      1  0.5146690000000  0.4302570000000  0.5841220000000 1.0
C      1  0.5432430000000  0.4363390000000  0.5905200000000 1.0
C      1  0.4567570000000  0.4363390000000  0.4094800000000 1.0
C      1  0.5262970000000  0.5867910000000  0.5760250000000 1.0
C      1  0.4737030000000  0.5867910000000  0.4239750000000 1.0
C      1  0.4936270000000  0.4695260000000  0.4352830000000 1.0
C      1  0.5063730000000  0.4695260000000  0.5647160000000 1.0
C      1  0.5012410000000  0.5579360000000  0.5389330000000 1.0
C      1  0.4987590000000  0.5579360000000  0.4610670000000 1.0
C      1  0.5279680000000  0.3836170000000  0.5572510000000 1.0
C      1  0.4720320000000  0.3836170000000  0.4427490000000 1.0
C      1  0.3991840000000  0.5194020000000  0.5063400000000 1.0
C      1  0.6008160000000  0.5194030000000  0.4936600000000 1.0
C      1  0.4932610000000  0.4403390000000  0.4450360000000 1.0
C      1  0.5067390000000  0.4403390000000  0.5549640000000 1.0
C      1  0.4468940000000  0.4522620000000  0.4652290000000 1.0
C      1  0.5531060000000  0.4522620000000  0.5347710000000 1.0
C      1  0.4591820000000  0.5970200000000  0.4481490000000 1.0
C      1  0.5408180000000  0.5970200000000  0.5518510000000 1.0
C      1  0.4415610000000  0.5458550000000  0.4183990000000 1.0
C      1  0.5584390000000  0.5458550000000  0.5816010000000 1.0
C      1  0.5569630000000  0.5756910000000  0.4187700000000 1.0
C      1  0.4430370000000  0.5756910000000  0.5812300000000 1.0
C      1  0.4254650000000  0.5354330000000  0.4643550000000 1.0
C      1  0.5745350000000  0.5354330000000  0.5356450000000 1.0
C      1  0.4402210000000  0.5196680000000  0.5337630000000 1.0
C      1  0.5597790000000  0.5196680000000  0.4662370000000 1.0
C      1  0.4765400000000  0.6143820000000  0.4681220000000 1.0
C      1  0.5234600000000  0.6143820000000  0.5318780000000 1.0
C      1  0.4805570000000  0.6047960000000  0.5632160000000 1.0
C      1  0.5194430000000  0.6047960000000  0.4367840000000 1.0
C      1  0.4142020000000  0.4979930000000  0.4223890000000 1.0
C      1  0.5857980000000  0.4979930000000  0.5776110000000 1.0
C      1  0.4316540000000  0.4017310000000  0.4698830000000 1.0
C      1  0.5683460000000  0.4017310000000  0.5301170000000 1.0
C      1  0.5466790000000  0.5196140000000  0.5369640000000 1.0
C      1  0.4533210000000  0.5196140000000  0.4630360000000 1.0
C      1  0.5319390000000  0.5609220000000  0.4205640000000 1.0
C      1  0.4680610000000  0.5609220000000  0.5794360000000 1.0
C      1  0.5242750000000  0.4973360000000  0.4662660000000 1.0
C      1  0.4757250000000  0.4973360000000  0.5337340000000 1.0
C      1  0.3841520000000  0.4865410000000  0.4681250000000 1.0
C      1  0.6158480000000  0.4865410000000  0.5318750000000 1.0
C      1  0.4142280000000  0.5092400000000  0.5294200000000 1.0
C      1  0.5857720000000  0.5092400000000  0.4705800000000 1.0
C      1  0.4840740000000  0.4309000000000  0.5376940000000 1.0
C      1  0.5159260000000  0.4309000000000  0.4623060000000 1.0
C      1  0.5997500000000  0.4774280000000  0.4941680000000 1.0
C      1  0.4002500000000  0.4774280000000  0.5058320000000 1.0
C      1  0.4558500000000  0.5320150000000  0.5124390000000 1.0
C      1  0.5441500000000  0.5320150000000  0.4875610000000 1.0
C      1  0.4986800000000  0.5837180000000  0.4385100000000 1.0
C      1  0.5013200000000  0.5837180000000  0.5614900000000 1.0
C      1  0.5108880000000  0.5634710000000  0.5098790000000 1.0
C      1  0.4891120000000  0.5634710000000  0.4901210000000 1.0
C      1  0.5121280000000  0.3769620000000  0.4559130000000 1.0
C      1  0.4878720000000  0.3769620000000  0.5440870000000 1.0
C      1  0.5714780000000  0.4759350000000  0.4040490000000 1.0
C      1  0.4285220000000  0.4759350000000  0.5959510000000 1.0
C      1  0.5806750000000  0.4526890000000  0.5489540000000 1.0
C      1  0.4193250000000  0.4526890000000  0.4510460000000 1.0
C      1  0.5565280000000  0.5261880000000  0.4380310000000 1.0
C      1  0.4434720000000  0.5261880000000  0.5619690000000 1.0
C      1  0.5041640000000  0.4820560000000  0.3832430000000 1.0
C      1  0.4958360000000  0.4820560000000  0.6167570000000 1.0
C      1  0.5913200000000  0.5156050000000  0.4170730000000 1.0
C      1  0.4086800000000  0.5156050000000  0.5829270000000 1.0
C      1  0.5340050000000  0.4775740000000  0.4437520000000 1.0
C      1  0.4659950000000  0.4775740000000  0.5562480000000 1.0
C      1  0.4320070000000  0.4096040000000  0.5008090000000 1.0
C      1  0.5679930000000  0.4096040000000  0.4991910000000 1.0
C      1  0.5125880000000  0.4188290000000  0.4915130000000 1.0
C      1  0.4874120000000  0.4188290000000  0.5084870000000 1.0
C      1  0.5699460000000  0.5061780000000  0.3953340000000 1.0
C      1  0.4300540000000  0.5061780000000  0.6046660000000 1.0
C      1  0.5366640000000  0.5356650000000  0.5623640000000 1.0
C      1  0.4633360000000  0.5356650000000  0.4376360000000 1.0
C      1  0.5351520000000  0.5114890000000  0.4190130000000 1.0
C      1  0.4648480000000  0.5114890000000  0.5809870000000 1.0
C      1  0.4088010000000  0.5406560000000  0.4884900000000 1.0
C      1  0.5911990000000  0.5406560000000  0.5115100000000 1.0
C      1  0.5234900000000  0.5881480000000  0.4988310000000 1.0
C      1  0.4765100000000  0.5881480000000  0.5011690000000 1.0
C      1  0.4780840000000  0.5471870000000  0.6024940000000 1.0
C      1  0.5219160000000  0.5471870000000  0.3975060000000 1.0
C      1  0.4507910000000  0.4923050000000  0.4533850000000 1.0
C      1  0.5492090000000  0.4923050000000  0.5466150000000 1.0
C      1  0.4359500000000  0.4177260000000  0.4194770000000 1.0
C      1  0.5640500000000  0.4177260000000  0.5805230000000 1.0
C      1  0.3726640000000  0.4752320000000  0.5143350000000 1.0
C      1  0.6273360000000  0.4752320000000  0.4856660000000 1.0
C      1  0.5731030000000  0.5511650000000  0.4300070000000 1.0
C      1  0.4268970000000  0.5511650000000  0.5699930000000 1.0
C      1  0.4667680000000  0.4324700000000  0.4562550000000 1.0
C      1  0.5332320000000  0.4324700000000  0.5437450000000 1.0
C      1  0.4212690000000  0.5906660000000  0.4825770000000 1.0
C      1  0.5787310000000  0.5906660000000  0.5174230000000 1.0
C      1  0.5052750000000  0.5255350000000  0.4730840000000 1.0
C      1  0.4947250000000  0.5255350000000  0.5269160000000 1.0
C      1  0.4326840000000  0.5164940000000  0.4063870000000 1.0
C      1  0.5673160000000  0.5164940000000  0.5936130000000 1.0
C      1  0.4054930000000  0.5684120000000  0.4973580000000 1.0
C      1  0.5945070000000  0.5684120000000  0.5026420000000 1.0
C      1  0.5730580000000  0.5569420000000  0.5558820000000 1.0
C      1  0.4269420000000  0.5569420000000  0.4441180000000 1.0
C      1  0.4707030000000  0.6313620000000  0.5197440000000 1.0
C      1  0.5292970000000  0.6313620000000  0.4802560000000 1.0
C      1  0.5094220000000  0.5458920000000  0.6052290000000 1.0
C      1  0.4905780000000  0.5458920000000  0.3947710000000 1.0
C      1  0.5508390000000  0.4660760000000  0.5891800000000 1.0
C      1  0.4491610000000  0.4660760000000  0.4108200000000 1.0
C      1  0.5086780000000  0.5167050000000  0.4324480000000 1.0
C      1  0.4913220000000  0.5167050000000  0.5675520000000 1.0
C      1  0.5565300000000  0.4475590000000  0.3927360000000 1.0
C      1  0.4434700000000  0.4475590000000  0.6072640000000 1.0
C      1  0.4787780000000  0.4997120000000  0.3809320000000 1.0
C      1  0.5212220000000  0.4997120000000  0.6190680000000 1.0
C      1  0.4664200000000  0.4800550000000  0.4317730000000 1.0
C      1  0.5335800000000  0.4800550000000  0.5682270000000 1.0
C      1  0.5722050000000  0.5781910000000  0.4684270000000 1.0
C      1  0.4277950000000  0.5781910000000  0.5315730000000 1.0
C      1  0.4674860000000  0.5175830000000  0.4895000000000 1.0
C      1  0.5325140000000  0.5175830000000  0.5105000000000 1.0
C      1  0.5250750000000  0.5523190000000  0.4475000000000 1.0
C      1  0.4749250000000  0.5523190000000  0.5525000000000 1.0
C      1  0.4369560000000  0.6026580000000  0.5408820000000 1.0
C      1  0.5630440000000  0.6026580000000  0.4591180000000 1.0
C      1  0.5043280000000  0.3533290000000  0.5402850000000 1.0
C      1  0.4956710000000  0.3533300000000  0.4597150000000 1.0
C      1  0.5528900000000  0.4008750000000  0.4728840000000 1.0
C      1  0.4471100000000  0.4008750000000  0.5271160000000 1.0
C      1  0.4517300000000  0.5998850000000  0.5650990000000 1.0
C      1  0.5482700000000  0.5998850000000  0.4349010000000 1.0
C      1  0.5322680000000  0.4268700000000  0.4007700000000 1.0
C      1  0.4677320000000  0.4268700000000  0.5992300000000 1.0
C      1  0.5435940000000  0.4244360000000  0.4512190000000 1.0
C      1  0.4564060000000  0.4244360000000  0.5487810000000 1.0
C      1  0.4864300000000  0.4939670000000  0.4933090000000 1.0
C      1  0.5135700000000  0.4939670000000  0.5066910000000 1.0
C      1  0.4934530000000  0.6126980000000  0.5149010000000 1.0
C      1  0.5065470000000  0.6126980000000  0.4850990000000 1.0
C      1  0.4883660000000  0.5329800000000  0.4230800000000 1.0
C      1  0.5116340000000  0.5329800000000  0.5769200000000 1.0
C      1  0.4952530000000  0.4330670000000  0.6055490000000 1.0
C      1  0.5047470000000  0.4330670000000  0.3944510000000 1.0
C      1  0.3963030000000  0.4602630000000  0.4677040000000 1.0
C      1  0.6036970000000  0.4602630000000  0.5322960000000 1.0
C      1  0.5412720000000  0.4285430000000  0.5022140000000 1.0
C      1  0.4587280000000  0.4285430000000  0.4977860000000 1.0
C      1  0.4272920000000  0.6177080000000  0.4952230000000 1.0
C      1  0.5727080000000  0.6177080000000  0.5047770000000 1.0
C      1  0.5891480000000  0.4286550000000  0.4916660000000 1.0
C      1  0.4108520000000  0.4286550000000  0.5083340000000 1.0
END
