TITL C-862130-1496-344 0.000114433319168081 125000 -140.299388764864 0 0 26 (C3) n - 1
REM
REM in /home/nfs/bkarasulu/CARBON/AIRSS/Generating-Clusters/TERSOFF/Higher-Symm/FIRE-HFTN
REM
REM
REM
REM
REM
REM ./C.cell (b20cbc046b6831c77cfcea5457e17084)
REM AIRSS Version 0.9.1 bugfix July 2018 build 013d7b7c2542+ Fri, 06 Jul 2018 19:26:36 +0100
REM compiler GCC version 9.2.1 20190827 (Red Hat 9.2.1-1)
REM options -cpp -mtune=generic -march=x86-64 -g -O0 -fpre-include=/usr/include/finclude/math-vector-fortran.h
REM seed -1748390112 -603783096 -1061377793 -748489899 -529772935 -967469276 -1708200615 1801690082 217396516 380136598 -4198543 1653942195 429766591 -1501735012 -866855553 2013238434 -79956179 1693788677 302362844 563027026 33160147 -255882168 1239632169 -1178568020 161031864 -444279947 -509376710 -1890924261 1942934290 902404323 -936618030 1463213977 -1638667011
REM
CELL 1.54180   50.00000   50.00000   50.00000   90.00000   90.00000   90.00000
LATT -1
SFAC C  
C      1  0.4802010000000  0.4797460000000  0.5119890000000 1.0
C      1  0.5286070000000  0.4951440000000  0.5119890000000 1.0
C      1  0.4910690000000  0.5293650000000  0.5119890000000 1.0
C      1  0.4642040000000  0.4951970000000  0.5310990000000 1.0
C      1  0.5232240000000  0.4735640000000  0.5310990000000 1.0
C      1  0.5124490000000  0.5354940000000  0.5310990000000 1.0
C      1  0.5156730000000  0.4747960000000  0.4673910000000 1.0
C      1  0.5151580000000  0.5283380000000  0.4673910000000 1.0
C      1  0.4690470000000  0.5011210000000  0.4673910000000 1.0
C      1  0.4794590000000  0.4999470000000  0.5562510000000 1.0
C      1  0.5114830000000  0.4844000000000  0.5562510000000 1.0
C      1  0.5089350000000  0.5199080000000  0.5562510000000 1.0
C      1  0.4669870000000  0.4616460000000  0.4932000000000 1.0
C      1  0.5508890000000  0.4927500000000  0.4932000000000 1.0
C      1  0.4820010000000  0.5498590000000  0.4932000000000 1.0
C      1  0.4591940000000  0.4733620000000  0.4679730000000 1.0
C      1  0.5446390000000  0.4801430000000  0.4679730000000 1.0
C      1  0.4960440000000  0.5507500000000  0.4679730000000 1.0
C      1  0.4504870000000  0.5164740000000  0.5151960000000 1.0
C      1  0.5116570000000  0.4510470000000  0.5151960000000 1.0
C      1  0.5377330000000  0.5367350000000  0.5151960000000 1.0
C      1  0.5071240000000  0.4520130000000  0.4854490000000 1.0
C      1  0.5391630000000  0.5323270000000  0.4854490000000 1.0
C      1  0.4535900000000  0.5199160000000  0.4854490000000 1.0
C      1  0.4999590000000  0.5014180000000  0.5015190000000 1.0
C      1  0.4999590000000  0.5014180000000  0.4707970000000 1.0
END
