TITL C-862507-1800-739 2.36270987355377e-05 125000 -932.203642080413 0 0 164 (C5) n - 1
REM
REM in /home/nfs/bkarasulu/CARBON/AIRSS/Generating-Clusters/TERSOFF/Higher-Symm/FIRE-HFTN
REM
REM
REM
REM
REM
REM ./C.cell (b20cbc046b6831c77cfcea5457e17084)
REM AIRSS Version 0.9.1 bugfix July 2018 build 013d7b7c2542+ Fri, 06 Jul 2018 19:26:36 +0100
REM compiler GCC version 9.2.1 20190827 (Red Hat 9.2.1-1)
REM options -cpp -mtune=generic -march=x86-64 -g -O0 -fpre-include=/usr/include/finclude/math-vector-fortran.h
REM seed 1664381434 -1963412202 1081262885 -1800240947 575613680 -1547940191 1928271387 1448557608 944918105 -1390429403 341359790 2030060989 1057471067 1803334698 -2018037030 -320166496 1794981761 2035224575 161324094 -549503852 1790030295 870070879 259350707 712450154 -1100648065 -1763523755 -510784673 1705221011 1653190218 -492282271 1249457109 188632300 -1232100677
REM
CELL 1.54180   50.00000   50.00000   50.00000   90.00000   90.00000   90.00000
LATT -1
SFAC C  
C      1  0.5338880000000  0.5270680000000  0.5107530000000 1.0
C      1  0.5204300000000  0.5270680000000  0.4711420000000 1.0
C      1  0.4785980000000  0.5270680000000  0.4717010000000 1.0
C      1  0.4662030000000  0.5270680000000  0.5116570000000 1.0
C      1  0.5003740000000  0.5270680000000  0.5357930000000 1.0
C      1  0.5338880000000  0.4712370000000  0.5107530000000 1.0
C      1  0.5204300000000  0.4712370000000  0.4711420000000 1.0
C      1  0.4785980000000  0.4712370000000  0.4717010000000 1.0
C      1  0.4662030000000  0.4712370000000  0.5116570000000 1.0
C      1  0.5003740000000  0.4712370000000  0.5357930000000 1.0
C      1  0.4698960000000  0.4398580000000  0.4811720000000 1.0
C      1  0.4725220000000  0.4398580000000  0.5228600000000 1.0
C      1  0.5129820000000  0.4398580000000  0.5332450000000 1.0
C      1  0.5353610000000  0.4398580000000  0.4979750000000 1.0
C      1  0.5087320000000  0.4398580000000  0.4657920000000 1.0
C      1  0.4698960000000  0.5584470000000  0.4811720000000 1.0
C      1  0.4725220000000  0.5584470000000  0.5228600000000 1.0
C      1  0.5129820000000  0.5584470000000  0.5332450000000 1.0
C      1  0.5353610000000  0.5584470000000  0.4979750000000 1.0
C      1  0.5087320000000  0.5584470000000  0.4657920000000 1.0
C      1  0.5397820000000  0.3978050000000  0.5288000000000 1.0
C      1  0.5394150000000  0.3978050000000  0.4711130000000 1.0
C      1  0.4844380000000  0.3978050000000  0.4536360000000 1.0
C      1  0.4508270000000  0.3978050000000  0.5005210000000 1.0
C      1  0.4850320000000  0.3978050000000  0.5469750000000 1.0
C      1  0.5397820000000  0.6005000000000  0.5288000000000 1.0
C      1  0.5394150000000  0.6005000000000  0.4711130000000 1.0
C      1  0.4844380000000  0.6005000000000  0.4536360000000 1.0
C      1  0.4508270000000  0.6005000000000  0.5005210000000 1.0
C      1  0.4850320000000  0.6005000000000  0.5469750000000 1.0
C      1  0.4614870000000  0.4338840000000  0.4268440000000 1.0
C      1  0.4182550000000  0.4338840000000  0.5140700000000 1.0
C      1  0.4878520000000  0.4338840000000  0.5821400000000 1.0
C      1  0.5740970000000  0.4338840000000  0.5369840000000 1.0
C      1  0.5578030000000  0.4338840000000  0.4410060000000 1.0
C      1  0.4614870000000  0.5644210000000  0.4268440000000 1.0
C      1  0.4182550000000  0.5644210000000  0.5140700000000 1.0
C      1  0.4878520000000  0.5644210000000  0.5821400000000 1.0
C      1  0.5740970000000  0.5644210000000  0.5369840000000 1.0
C      1  0.5578030000000  0.5644210000000  0.4410060000000 1.0
C      1  0.5447090000000  0.4428080000000  0.5396360000000 1.0
C      1  0.5512430000000  0.4428080000000  0.4697760000000 1.0
C      1  0.4868210000000  0.4428080000000  0.4419730000000 1.0
C      1  0.4404720000000  0.4428080000000  0.4946510000000 1.0
C      1  0.4762490000000  0.4428080000000  0.5550100000000 1.0
C      1  0.5447090000000  0.5554970000000  0.5396360000000 1.0
C      1  0.5512430000000  0.5554970000000  0.4697760000000 1.0
C      1  0.4868210000000  0.5554970000000  0.4419730000000 1.0
C      1  0.4404720000000  0.5554970000000  0.4946510000000 1.0
C      1  0.4762490000000  0.5554970000000  0.5550100000000 1.0
C      1  0.4734920000000  0.5255130000000  0.5529840000000 1.0
C      1  0.5419300000000  0.5255130000000  0.5416310000000 1.0
C      1  0.5522820000000  0.5255130000000  0.4730350000000 1.0
C      1  0.4902420000000  0.5255130000000  0.4419920000000 1.0
C      1  0.4415470000000  0.5255130000000  0.4914030000000 1.0
C      1  0.4734920000000  0.4727920000000  0.5529840000000 1.0
C      1  0.5419300000000  0.4727920000000  0.5416310000000 1.0
C      1  0.5522820000000  0.4727920000000  0.4730350000000 1.0
C      1  0.4902420000000  0.4727920000000  0.4419920000000 1.0
C      1  0.4415470000000  0.4727920000000  0.4914030000000 1.0
C      1  0.6172120000000  0.5142320000000  0.4676970000000 1.0
C      1  0.5052290000000  0.5142320000000  0.3785900000000 1.0
C      1  0.3858800000000  0.5142320000000  0.4575570000000 1.0
C      1  0.4241010000000  0.5142320000000  0.5954670000000 1.0
C      1  0.5670720000000  0.5142320000000  0.6017340000000 1.0
C      1  0.6172120000000  0.4840730000000  0.4676970000000 1.0
C      1  0.5052290000000  0.4840730000000  0.3785900000000 1.0
C      1  0.3858800000000  0.4840730000000  0.4575570000000 1.0
C      1  0.4241010000000  0.4840730000000  0.5954670000000 1.0
C      1  0.5670720000000  0.4840730000000  0.6017340000000 1.0
C      1  0.4911950000000  0.6198180000000  0.5247260000000 1.0
C      1  0.5205260000000  0.6198180000000  0.5160620000000 1.0
C      1  0.5213500000000  0.6198180000000  0.4854900000000 1.0
C      1  0.4925290000000  0.6198180000000  0.4752590000000 1.0
C      1  0.4738930000000  0.6198180000000  0.4995080000000 1.0
C      1  0.4911950000000  0.3784870000000  0.5247260000000 1.0
C      1  0.5205260000000  0.3784870000000  0.5160620000000 1.0
C      1  0.5213500000000  0.3784870000000  0.4854900000000 1.0
C      1  0.4925290000000  0.3784870000000  0.4752590000000 1.0
C      1  0.4738930000000  0.3784870000000  0.4995080000000 1.0
C      1  0.5697340000000  0.4835900000000  0.5489040000000 1.0
C      1  0.5677910000000  0.4835900000000  0.4488390000000 1.0
C      1  0.4720230000000  0.4835900000000  0.4197650000000 1.0
C      1  0.4147780000000  0.4835900000000  0.5018620000000 1.0
C      1  0.4751670000000  0.4835900000000  0.5816740000000 1.0
C      1  0.5697340000000  0.5147150000000  0.5489040000000 1.0
C      1  0.5677910000000  0.5147150000000  0.4488390000000 1.0
C      1  0.4720230000000  0.5147150000000  0.4197650000000 1.0
C      1  0.4147780000000  0.5147150000000  0.5018620000000 1.0
C      1  0.4751670000000  0.5147150000000  0.5816740000000 1.0
C      1  0.4467690000000  0.5234380000000  0.4373410000000 1.0
C      1  0.4236900000000  0.5234380000000  0.5313110000000 1.0
C      1  0.5059290000000  0.5234380000000  0.5822990000000 1.0
C      1  0.5798340000000  0.5234380000000  0.5198420000000 1.0
C      1  0.5432720000000  0.5234380000000  0.4302530000000 1.0
C      1  0.4467690000000  0.4748670000000  0.4373410000000 1.0
C      1  0.4236900000000  0.4748670000000  0.5313110000000 1.0
C      1  0.5059290000000  0.4748670000000  0.5822990000000 1.0
C      1  0.5798340000000  0.4748670000000  0.5198420000000 1.0
C      1  0.5432720000000  0.4748670000000  0.4302530000000 1.0
C      1  0.5593390000000  0.5135410000000  0.4995620000000 1.0
C      1  0.5176510000000  0.5135410000000  0.4434780000000 1.0
C      1  0.4514300000000  0.5135410000000  0.4657950000000 1.0
C      1  0.4521910000000  0.5135410000000  0.5356710000000 1.0
C      1  0.5188820000000  0.5135410000000  0.5565400000000 1.0
C      1  0.5593390000000  0.4847640000000  0.4995620000000 1.0
C      1  0.5176510000000  0.4847640000000  0.4434780000000 1.0
C      1  0.4514300000000  0.4847640000000  0.4657950000000 1.0
C      1  0.4521910000000  0.4847640000000  0.5356710000000 1.0
C      1  0.5188820000000  0.4847640000000  0.5565400000000 1.0
C      1  0.4362770000000  0.5505970000000  0.4346480000000 1.0
C      1  0.4178870000000  0.5505970000000  0.5404580000000 1.0
C      1  0.5128340000000  0.5505970000000  0.5906450000000 1.0
C      1  0.5899050000000  0.5505970000000  0.5158530000000 1.0
C      1  0.5425900000000  0.5505970000000  0.4194420000000 1.0
C      1  0.4362770000000  0.4477080000000  0.4346480000000 1.0
C      1  0.4178870000000  0.4477080000000  0.5404580000000 1.0
C      1  0.5128340000000  0.4477080000000  0.5906450000000 1.0
C      1  0.5899050000000  0.4477080000000  0.5158530000000 1.0
C      1  0.5425900000000  0.4477080000000  0.4194420000000 1.0
C      1  0.4549660000000  0.4161080000000  0.5236510000000 1.0
C      1  0.5083080000000  0.4161080000000  0.5501860000000 1.0
C      1  0.5500280000000  0.4161080000000  0.5076550000000 1.0
C      1  0.5224710000000  0.4161080000000  0.4548340000000 1.0
C      1  0.4637200000000  0.4161080000000  0.4647200000000 1.0
C      1  0.4549660000000  0.5821970000000  0.5236510000000 1.0
C      1  0.5083080000000  0.5821970000000  0.5501860000000 1.0
C      1  0.5500280000000  0.5821970000000  0.5076550000000 1.0
C      1  0.5224710000000  0.5821970000000  0.4548340000000 1.0
C      1  0.4637200000000  0.5821970000000  0.4647200000000 1.0
C      1  0.5146280000000  0.4385690000000  0.4110730000000 1.0
C      1  0.4196770000000  0.4385690000000  0.4586570000000 1.0
C      1  0.4355900000000  0.4385690000000  0.5636640000000 1.0
C      1  0.5403750000000  0.4385690000000  0.5809790000000 1.0
C      1  0.5892230000000  0.4385690000000  0.4866730000000 1.0
C      1  0.5146280000000  0.5597360000000  0.4110730000000 1.0
C      1  0.4196770000000  0.5597360000000  0.4586570000000 1.0
C      1  0.4355900000000  0.5597360000000  0.5636640000000 1.0
C      1  0.5403750000000  0.5597360000000  0.5809790000000 1.0
C      1  0.5892230000000  0.5597360000000  0.4866730000000 1.0
C      1  0.5628000000000  0.4666000000000  0.5775910000000 1.0
C      1  0.5929300000000  0.4666000000000  0.4642990000000 1.0
C      1  0.4944940000000  0.4666000000000  0.4006340000000 1.0
C      1  0.4035270000000  0.4666000000000  0.4745780000000 1.0
C      1  0.4457420000000  0.4666000000000  0.5839440000000 1.0
C      1  0.5628000000000  0.5317050000000  0.5775910000000 1.0
C      1  0.5929300000000  0.5317050000000  0.4642990000000 1.0
C      1  0.4944940000000  0.5317050000000  0.4006340000000 1.0
C      1  0.4035270000000  0.5317050000000  0.4745780000000 1.0
C      1  0.4457420000000  0.5317050000000  0.5839440000000 1.0
C      1  0.4525950000000  0.5900050000000  0.5538860000000 1.0
C      1  0.5363310000000  0.5900050000000  0.5617850000000 1.0
C      1  0.5697190000000  0.5900050000000  0.4845880000000 1.0
C      1  0.5066180000000  0.5900050000000  0.4289790000000 1.0
C      1  0.4342310000000  0.5900050000000  0.4718080000000 1.0
C      1  0.4525950000000  0.4083000000000  0.5538860000000 1.0
C      1  0.5363310000000  0.4083000000000  0.5617850000000 1.0
C      1  0.5697190000000  0.4083000000000  0.4845880000000 1.0
C      1  0.5066180000000  0.4083000000000  0.4289790000000 1.0
C      1  0.4342310000000  0.4083000000000  0.4718080000000 1.0
C      1  0.4998990000000  0.4336270000000  0.5002090000000 1.0
C      1  0.4998990000000  0.5646780000000  0.5002090000000 1.0
C      1  0.4998990000000  0.4812140000000  0.5002090000000 1.0
C      1  0.4998990000000  0.5170910000000  0.5002090000000 1.0
END
