TITL C-862134-6730-1366 -12.2987122224075 125000 -901.467353031977 0 0 158 (C1) n - 1
REM
REM in /home/nfs/bkarasulu/CARBON/AIRSS/Generating-Clusters/TERSOFF/Higher-Symm/FIRE-HFTN
REM
REM
REM
REM
REM
REM ./C.cell (b20cbc046b6831c77cfcea5457e17084)
REM AIRSS Version 0.9.1 bugfix July 2018 build 013d7b7c2542+ Fri, 06 Jul 2018 19:26:36 +0100
REM compiler GCC version 9.2.1 20190827 (Red Hat 9.2.1-1)
REM options -cpp -mtune=generic -march=x86-64 -g -O0 -fpre-include=/usr/include/finclude/math-vector-fortran.h
REM seed 962739228 -1869234943 627661296 -2013042945 -1051251782 1221390654 -837367120 1608604478 -1178268323 1816147528 625231279 1911658038 -1344502419 -422322454 -401828068 1573425752 -1550541886 -757246928 -658745129 -166763678 -110473221 -897539014 1365225549 1961284131 199966696 163006404 138086112 1864074659 -1849345255 -1098106007 -1768640933 -440426777 -435868138
REM
CELL 1.54180   50.00000   50.00000   50.00000   90.00000   90.00000   90.00000
LATT -1
SFAC C  
C      1  0.4653760000000  0.5485840000000  0.4689190000000 1.0
C      1  0.5570580000000  0.4967010000000  0.5812360000000 1.0
C      1  0.5489440000000  0.4223720000000  0.5904010000000 1.0
C      1  0.4472010000000  0.4173020000000  0.4170610000000 1.0
C      1  0.5692820000000  0.4721440000000  0.4058540000000 1.0
C      1  0.4610040000000  0.4854240000000  0.5705630000000 1.0
C      1  0.4558090000000  0.5811150000000  0.5686340000000 1.0
C      1  0.5750560000000  0.5127260000000  0.4989850000000 1.0
C      1  0.4363990000000  0.5206220000000  0.5822710000000 1.0
C      1  0.4336150000000  0.5188380000000  0.5531540000000 1.0
C      1  0.4837750000000  0.6172910000000  0.5313990000000 1.0
C      1  0.4088860000000  0.4967520000000  0.4647170000000 1.0
C      1  0.5247110000000  0.6011720000000  0.5011220000000 1.0
C      1  0.4724580000000  0.4490570000000  0.4969740000000 1.0
C      1  0.5742710000000  0.4665390000000  0.4576170000000 1.0
C      1  0.5998140000000  0.4704740000000  0.4762470000000 1.0
C      1  0.5412600000000  0.5070010000000  0.5437110000000 1.0
C      1  0.4988010000000  0.4838860000000  0.5248770000000 1.0
C      1  0.4728340000000  0.4973350000000  0.6090500000000 1.0
C      1  0.4073910000000  0.5223810000000  0.5410570000000 1.0
C      1  0.4251730000000  0.5348240000000  0.4950910000000 1.0
C      1  0.3672010000000  0.5285540000000  0.4883040000000 1.0
C      1  0.5558580000000  0.3992960000000  0.5259790000000 1.0
C      1  0.4822290000000  0.4350940000000  0.4705360000000 1.0
C      1  0.4410370000000  0.5852710000000  0.5118970000000 1.0
C      1  0.5169770000000  0.5096220000000  0.4861640000000 1.0
C      1  0.4290180000000  0.4505360000000  0.4765210000000 1.0
C      1  0.5035760000000  0.3915980000000  0.4841950000000 1.0
C      1  0.5369320000000  0.5441870000000  0.5247300000000 1.0
C      1  0.5737330000000  0.4375130000000  0.5890650000000 1.0
C      1  0.5156390000000  0.4273740000000  0.5035450000000 1.0
C      1  0.5312970000000  0.5465640000000  0.4722670000000 1.0
C      1  0.5805850000000  0.5208370000000  0.4102150000000 1.0
C      1  0.5820760000000  0.4405700000000  0.5185740000000 1.0
C      1  0.3786720000000  0.5020850000000  0.4836340000000 1.0
C      1  0.5823140000000  0.5176850000000  0.4696320000000 1.0
C      1  0.4347420000000  0.5725090000000  0.4532630000000 1.0
C      1  0.6225630000000  0.5052030000000  0.5048370000000 1.0
C      1  0.5851270000000  0.4851600000000  0.5753090000000 1.0
C      1  0.4170300000000  0.4459650000000  0.5366390000000 1.0
C      1  0.5239910000000  0.5191230000000  0.5618800000000 1.0
C      1  0.5038810000000  0.5821520000000  0.4624730000000 1.0
C      1  0.4814740000000  0.4649730000000  0.5643740000000 1.0
C      1  0.4610320000000  0.5205600000000  0.5968520000000 1.0
C      1  0.5764620000000  0.5531520000000  0.5715180000000 1.0
C      1  0.5173060000000  0.4685560000000  0.5608700000000 1.0
C      1  0.5067250000000  0.4399630000000  0.4531350000000 1.0
C      1  0.5371090000000  0.5850320000000  0.5836670000000 1.0
C      1  0.5119900000000  0.5821690000000  0.5463920000000 1.0
C      1  0.4742390000000  0.5173340000000  0.4271260000000 1.0
C      1  0.5413180000000  0.4929770000000  0.4836770000000 1.0
C      1  0.5269730000000  0.4594810000000  0.4573290000000 1.0
C      1  0.4554100000000  0.5140840000000  0.5325370000000 1.0
C      1  0.5668430000000  0.4544590000000  0.4296850000000 1.0
C      1  0.4319250000000  0.4800930000000  0.5722140000000 1.0
C      1  0.5697070000000  0.5122790000000  0.5443440000000 1.0
C      1  0.4039980000000  0.4406000000000  0.4874170000000 1.0
C      1  0.5116850000000  0.4755920000000  0.3965270000000 1.0
C      1  0.5233850000000  0.3945810000000  0.4616930000000 1.0
C      1  0.6094860000000  0.4911190000000  0.5291570000000 1.0
C      1  0.5822390000000  0.5386760000000  0.5457320000000 1.0
C      1  0.5470470000000  0.5192880000000  0.5969830000000 1.0
C      1  0.4192300000000  0.5713840000000  0.5307220000000 1.0
C      1  0.4464300000000  0.4915490000000  0.4982660000000 1.0
C      1  0.4271640000000  0.5242610000000  0.4390150000000 1.0
C      1  0.5033200000000  0.5495640000000  0.6016130000000 1.0
C      1  0.4994320000000  0.6167910000000  0.5058030000000 1.0
C      1  0.4055370000000  0.5453550000000  0.5192640000000 1.0
C      1  0.5320420000000  0.5905800000000  0.4727660000000 1.0
C      1  0.4906090000000  0.4330220000000  0.5388270000000 1.0
C      1  0.5431250000000  0.5974580000000  0.5227090000000 1.0
C      1  0.5505270000000  0.5717310000000  0.5339390000000 1.0
C      1  0.4439200000000  0.5008680000000  0.4569370000000 1.0
C      1  0.5580730000000  0.4223290000000  0.4803260000000 1.0
C      1  0.4974590000000  0.5582830000000  0.5045010000000 1.0
C      1  0.5107260000000  0.3828040000000  0.5121850000000 1.0
C      1  0.5801610000000  0.5595340000000  0.4944420000000 1.0
C      1  0.5171370000000  0.5315360000000  0.4482820000000 1.0
C      1  0.4759750000000  0.4323490000000  0.4171900000000 1.0
C      1  0.4224090000000  0.5052360000000  0.4927300000000 1.0
C      1  0.4871490000000  0.5665700000000  0.5340140000000 1.0
C      1  0.4276940000000  0.5733650000000  0.5598430000000 1.0
C      1  0.6065040000000  0.4975990000000  0.5582380000000 1.0
C      1  0.4626830000000  0.5906530000000  0.4900360000000 1.0
C      1  0.5759750000000  0.5596030000000  0.5235760000000 1.0
C      1  0.4858080000000  0.4724190000000  0.4093490000000 1.0
C      1  0.4448700000000  0.4982420000000  0.3969550000000 1.0
C      1  0.4689640000000  0.5195730000000  0.4687110000000 1.0
C      1  0.4595540000000  0.4509000000000  0.4389310000000 1.0
C      1  0.4536760000000  0.4257390000000  0.5066420000000 1.0
C      1  0.4639380000000  0.5260920000000  0.3990110000000 1.0
C      1  0.5672420000000  0.4528500000000  0.5426220000000 1.0
C      1  0.4612560000000  0.4797010000000  0.4426220000000 1.0
C      1  0.5764220000000  0.5436100000000  0.4557630000000 1.0
C      1  0.5006690000000  0.4151720000000  0.4185910000000 1.0
C      1  0.4395480000000  0.4452400000000  0.4007420000000 1.0
C      1  0.5003480000000  0.4887000000000  0.6038590000000 1.0
C      1  0.5139110000000  0.4202850000000  0.5498860000000 1.0
C      1  0.4577050000000  0.4707520000000  0.3977280000000 1.0
C      1  0.5357580000000  0.5260630000000  0.3980970000000 1.0
C      1  0.4512740000000  0.5352810000000  0.5115260000000 1.0
C      1  0.4220240000000  0.5041550000000  0.4152400000000 1.0
C      1  0.3981850000000  0.4915280000000  0.5058200000000 1.0
C      1  0.4891890000000  0.4559730000000  0.5192310000000 1.0
C      1  0.5201510000000  0.5401700000000  0.5005780000000 1.0
C      1  0.5544030000000  0.5712820000000  0.5643800000000 1.0
C      1  0.4834620000000  0.5698260000000  0.4812650000000 1.0
C      1  0.4964230000000  0.5223810000000  0.5565490000000 1.0
C      1  0.3782640000000  0.5477640000000  0.5072510000000 1.0
C      1  0.4499020000000  0.3995530000000  0.4838200000000 1.0
C      1  0.5176380000000  0.5200440000000  0.6033380000000 1.0
C      1  0.5625570000000  0.4958340000000  0.4626320000000 1.0
C      1  0.4865110000000  0.4910170000000  0.4343400000000 1.0
C      1  0.5041020000000  0.4533090000000  0.5977090000000 1.0
C      1  0.5222800000000  0.5719200000000  0.6053050000000 1.0
C      1  0.4901030000000  0.5498480000000  0.4058880000000 1.0
C      1  0.4433520000000  0.4318090000000  0.5350000000000 1.0
C      1  0.4146320000000  0.4728650000000  0.5492800000000 1.0
C      1  0.6038910000000  0.4535550000000  0.5017880000000 1.0
C      1  0.4795820000000  0.4070660000000  0.4793750000000 1.0
C      1  0.4948710000000  0.5898650000000  0.4362520000000 1.0
C      1  0.4755290000000  0.5578710000000  0.5841450000000 1.0
C      1  0.5276200000000  0.4913340000000  0.5233100000000 1.0
C      1  0.5159340000000  0.5379360000000  0.4176000000000 1.0
C      1  0.5270570000000  0.4846730000000  0.4431980000000 1.0
C      1  0.5429130000000  0.6129170000000  0.4560420000000 1.0
C      1  0.4236990000000  0.5459860000000  0.4644370000000 1.0
C      1  0.4487490000000  0.5694380000000  0.4263180000000 1.0
C      1  0.5792070000000  0.5443800000000  0.4270590000000 1.0
C      1  0.5273660000000  0.3986330000000  0.5318150000000 1.0
C      1  0.4383670000000  0.4068090000000  0.4503630000000 1.0
C      1  0.4487260000000  0.4648070000000  0.4920470000000 1.0
C      1  0.5449780000000  0.4659910000000  0.4946690000000 1.0
C      1  0.4475700000000  0.4346810000000  0.4597310000000 1.0
C      1  0.4854050000000  0.5478600000000  0.5580000000000 1.0
C      1  0.4417920000000  0.5420580000000  0.4171730000000 1.0
C      1  0.3988410000000  0.4945760000000  0.5346880000000 1.0
C      1  0.3979740000000  0.4391510000000  0.5156740000000 1.0
C      1  0.4663360000000  0.4365360000000  0.5556390000000 1.0
C      1  0.4585840000000  0.5614660000000  0.5199540000000 1.0
C      1  0.5565470000000  0.5640750000000  0.4714900000000 1.0
C      1  0.4779860000000  0.5734850000000  0.4197990000000 1.0
C      1  0.5685300000000  0.4176830000000  0.5072620000000 1.0
C      1  0.5569240000000  0.5023330000000  0.4040420000000 1.0
C      1  0.5312590000000  0.4875920000000  0.4147370000000 1.0
C      1  0.5220140000000  0.4171760000000  0.4401750000000 1.0
C      1  0.5368180000000  0.4541250000000  0.5404210000000 1.0
C      1  0.4824310000000  0.5040700000000  0.5396440000000 1.0
C      1  0.5798920000000  0.4568690000000  0.5683800000000 1.0
C      1  0.6091410000000  0.4999550000000  0.4780290000000 1.0
C      1  0.5845490000000  0.4891810000000  0.5127140000000 1.0
C      1  0.4977730000000  0.5096750000000  0.4610410000000 1.0
C      1  0.4715170000000  0.5931090000000  0.5442940000000 1.0
C      1  0.5526800000000  0.4499970000000  0.4715030000000 1.0
C      1  0.5303380000000  0.4506920000000  0.5131050000000 1.0
C      1  0.5509280000000  0.4269900000000  0.4283350000000 1.0
C      1  0.5350530000000  0.4775180000000  0.5830440000000 1.0
C      1  0.5232760000000  0.4311590000000  0.5789930000000 1.0
END
