TITL C-862131-2149-917 0.0737318569250378 125000 -499.836425119552 0 0 86 (C1) n - 1
REM
REM in /home/nfs/bkarasulu/CARBON/AIRSS/Generating-Clusters/TERSOFF/Higher-Symm/FIRE-HFTN
REM
REM
REM
REM
REM
REM ./C.cell (b20cbc046b6831c77cfcea5457e17084)
REM AIRSS Version 0.9.1 bugfix July 2018 build 013d7b7c2542+ Fri, 06 Jul 2018 19:26:36 +0100
REM compiler GCC version 9.2.1 20190827 (Red Hat 9.2.1-1)
REM options -cpp -mtune=generic -march=x86-64 -g -O0 -fpre-include=/usr/include/finclude/math-vector-fortran.h
REM seed 1705587612 -962569044 -1884515404 -669975592 -244326284 1296765752 -1503755155 -225518842 -1862777499 1264204629 -906695632 1396220335 1904172788 518379140 -1975862649 855369681 -35749976 -394323959 -288194152 -1760054221 611769027 567689821 -918918135 817127218 -613472560 -446712280 1930414770 -923717542 728521681 -1998954700 -468074131 526354090 471791500
REM
CELL 1.54180   50.00000   50.00000   50.00000   90.00000   90.00000   90.00000
LATT -1
SFAC C  
C      1  0.5044280000000  0.4925620000000  0.4246830000000 1.0
C      1  0.4431880000000  0.5253810000000  0.5522720000000 1.0
C      1  0.5474050000000  0.5432840000000  0.5070360000000 1.0
C      1  0.4886560000000  0.5096350000000  0.5631480000000 1.0
C      1  0.4733110000000  0.5043240000000  0.4636090000000 1.0
C      1  0.4823630000000  0.5506240000000  0.5565650000000 1.0
C      1  0.4936330000000  0.5080650000000  0.4831280000000 1.0
C      1  0.5111570000000  0.4433330000000  0.5522550000000 1.0
C      1  0.4260890000000  0.5113340000000  0.5316290000000 1.0
C      1  0.5237030000000  0.5708400000000  0.4677640000000 1.0
C      1  0.5235900000000  0.4277460000000  0.4494520000000 1.0
C      1  0.5386230000000  0.5014300000000  0.4316740000000 1.0
C      1  0.5394520000000  0.4528100000000  0.5475580000000 1.0
C      1  0.5216120000000  0.4500930000000  0.4308490000000 1.0
C      1  0.4804680000000  0.5652790000000  0.4920700000000 1.0
C      1  0.4374970000000  0.5239190000000  0.4534690000000 1.0
C      1  0.4906840000000  0.4213730000000  0.4882780000000 1.0
C      1  0.4635680000000  0.4348270000000  0.4461360000000 1.0
C      1  0.4888840000000  0.4634070000000  0.5519120000000 1.0
C      1  0.4258520000000  0.4780570000000  0.4717100000000 1.0
C      1  0.5508280000000  0.5307920000000  0.4802750000000 1.0
C      1  0.5085850000000  0.4960080000000  0.5788980000000 1.0
C      1  0.5359390000000  0.4353620000000  0.4748900000000 1.0
C      1  0.4215100000000  0.5184080000000  0.5015740000000 1.0
C      1  0.5897750000000  0.5227570000000  0.5503820000000 1.0
C      1  0.4370810000000  0.5458890000000  0.4345950000000 1.0
C      1  0.4586760000000  0.4604230000000  0.5570150000000 1.0
C      1  0.5234620000000  0.4246520000000  0.5028210000000 1.0
C      1  0.5268870000000  0.5318220000000  0.4373790000000 1.0
C      1  0.5354030000000  0.4938100000000  0.5162530000000 1.0
C      1  0.4080320000000  0.4940160000000  0.4900530000000 1.0
C      1  0.3970630000000  0.4785480000000  0.5127740000000 1.0
C      1  0.5533640000000  0.4780470000000  0.5594190000000 1.0
C      1  0.4996950000000  0.5690780000000  0.5701850000000 1.0
C      1  0.4576740000000  0.4807120000000  0.4734570000000 1.0
C      1  0.5521690000000  0.5103000000000  0.5325590000000 1.0
C      1  0.5965520000000  0.4860150000000  0.4866000000000 1.0
C      1  0.5403950000000  0.5231200000000  0.5556480000000 1.0
C      1  0.4860140000000  0.5800330000000  0.5171510000000 1.0
C      1  0.4174200000000  0.4812690000000  0.5343360000000 1.0
C      1  0.5415660000000  0.4991880000000  0.4750900000000 1.0
C      1  0.4962620000000  0.5294660000000  0.5397650000000 1.0
C      1  0.4947790000000  0.5717080000000  0.4671020000000 1.0
C      1  0.5392330000000  0.4709740000000  0.4430680000000 1.0
C      1  0.4845600000000  0.5606960000000  0.4418730000000 1.0
C      1  0.4576320000000  0.5657550000000  0.4331330000000 1.0
C      1  0.5213960000000  0.5420700000000  0.5233590000000 1.0
C      1  0.5701840000000  0.5556220000000  0.5196240000000 1.0
C      1  0.4621060000000  0.5803570000000  0.5349000000000 1.0
C      1  0.4529400000000  0.5558010000000  0.5516550000000 1.0
C      1  0.4691150000000  0.4586630000000  0.4300720000000 1.0
C      1  0.5791170000000  0.5293380000000  0.4733800000000 1.0
C      1  0.5752530000000  0.5494950000000  0.5473600000000 1.0
C      1  0.4382150000000  0.4598700000000  0.5345850000000 1.0
C      1  0.5062640000000  0.4930920000000  0.5213180000000 1.0
C      1  0.5516290000000  0.4701670000000  0.5036940000000 1.0
C      1  0.4848400000000  0.5166720000000  0.5120320000000 1.0
C      1  0.4601830000000  0.5077540000000  0.5691700000000 1.0
C      1  0.4509480000000  0.4812920000000  0.5758850000000 1.0
C      1  0.5733470000000  0.4951120000000  0.4389850000000 1.0
C      1  0.5880880000000  0.5041100000000  0.4641690000000 1.0
C      1  0.4835320000000  0.5105690000000  0.4356690000000 1.0
C      1  0.5377110000000  0.5468260000000  0.4597080000000 1.0
C      1  0.5071150000000  0.4201450000000  0.5338740000000 1.0
C      1  0.4283240000000  0.4496470000000  0.4843110000000 1.0
C      1  0.5249890000000  0.5735440000000  0.5560540000000 1.0
C      1  0.4414430000000  0.5303070000000  0.4837350000000 1.0
C      1  0.5142540000000  0.4896190000000  0.4802400000000 1.0
C      1  0.5365390000000  0.4999290000000  0.5740960000000 1.0
C      1  0.4471560000000  0.4792650000000  0.4237570000000 1.0
C      1  0.5152130000000  0.5833420000000  0.5280760000000 1.0
C      1  0.4976530000000  0.5362220000000  0.4327350000000 1.0
C      1  0.5784020000000  0.4948380000000  0.5395720000000 1.0
C      1  0.4971570000000  0.4647460000000  0.4223460000000 1.0
C      1  0.5795230000000  0.4796040000000  0.5105620000000 1.0
C      1  0.5505400000000  0.4653270000000  0.4725820000000 1.0
C      1  0.5471650000000  0.5517850000000  0.5612060000000 1.0
C      1  0.4839250000000  0.4188550000000  0.4599660000000 1.0
C      1  0.5095880000000  0.4633100000000  0.4918500000000 1.0
C      1  0.4307390000000  0.4944150000000  0.4443240000000 1.0
C      1  0.4787980000000  0.4133670000000  0.5305260000000 1.0
C      1  0.4429440000000  0.4437050000000  0.5096440000000 1.0
C      1  0.4677050000000  0.5385590000000  0.4957340000000 1.0
C      1  0.5432150000000  0.4466070000000  0.5185910000000 1.0
C      1  0.4701510000000  0.4319380000000  0.5087330000000 1.0
C      1  0.4878730000000  0.4569430000000  0.5104290000000 1.0
END
