TITL C-862134-6730-1060 0.00386999331207296 125000 -926.544608609207 0 0 162 (Ci) n - 1
REM
REM in /home/nfs/bkarasulu/CARBON/AIRSS/Generating-Clusters/TERSOFF/Higher-Symm/FIRE-HFTN
REM
REM
REM
REM
REM
REM ./C.cell (b20cbc046b6831c77cfcea5457e17084)
REM AIRSS Version 0.9.1 bugfix July 2018 build 013d7b7c2542+ Fri, 06 Jul 2018 19:26:36 +0100
REM compiler GCC version 9.2.1 20190827 (Red Hat 9.2.1-1)
REM options -cpp -mtune=generic -march=x86-64 -g -O0 -fpre-include=/usr/include/finclude/math-vector-fortran.h
REM seed 2134076847 1892018831 831488289 -1580831971 -1121386450 -84348001 -79125203 -495872158 -1108705371 -855036749 -1982549704 -415162262 68308090 -293199002 -414208915 1825052370 1317064048 638106874 -715534825 -165542446 -1097379712 -929651394 994755522 -2113655634 -921846641 -1683209184 -117706328 1066756327 40260057 1140098414 -802019886 1491416927 631472415
REM
CELL 1.54180   50.00000   50.00000   50.00000   90.00000   90.00000   90.00000
LATT -1
SFAC C  
C      1  0.4577250000000  0.5644250000000  0.5507430000000 1.0
C      1  0.5422750000000  0.4355750000000  0.4492570000000 1.0
C      1  0.4739170000000  0.4486560000000  0.5263120000000 1.0
C      1  0.5260830000000  0.5513440000000  0.4736880000000 1.0
C      1  0.5386900000000  0.4852520000000  0.5820610000000 1.0
C      1  0.4613100000000  0.5147480000000  0.4179390000000 1.0
C      1  0.4769690000000  0.6091830000000  0.5253360000000 1.0
C      1  0.5230310000000  0.3908170000000  0.4746640000000 1.0
C      1  0.5659960000000  0.4632660000000  0.4058400000000 1.0
C      1  0.4340040000000  0.5367340000000  0.5941600000000 1.0
C      1  0.4034150000000  0.5197940000000  0.4822980000000 1.0
C      1  0.5965850000000  0.4802060000000  0.5177020000000 1.0
C      1  0.5315630000000  0.4957060000000  0.3804240000000 1.0
C      1  0.4684370000000  0.5042940000000  0.6195760000000 1.0
C      1  0.4799540000000  0.5107150000000  0.4677940000000 1.0
C      1  0.5200460000000  0.4892850000000  0.5322060000000 1.0
C      1  0.5194810000000  0.4251000000000  0.4304400000000 1.0
C      1  0.4805190000000  0.5749000000000  0.5695600000000 1.0
C      1  0.5600420000000  0.4006850000000  0.5137340000000 1.0
C      1  0.4399580000000  0.5993150000000  0.4862660000000 1.0
C      1  0.5833860000000  0.4334390000000  0.4823910000000 1.0
C      1  0.4166140000000  0.5665610000000  0.5176090000000 1.0
C      1  0.5309010000000  0.3960710000000  0.5040900000000 1.0
C      1  0.4690990000000  0.6039290000000  0.4959100000000 1.0
C      1  0.4141780000000  0.4761810000000  0.5501240000000 1.0
C      1  0.5858220000000  0.5238190000000  0.4498760000000 1.0
C      1  0.4556520000000  0.4657820000000  0.5787210000000 1.0
C      1  0.5443480000000  0.5342180000000  0.4212790000000 1.0
C      1  0.4526990000000  0.4937280000000  0.5937410000000 1.0
C      1  0.5473010000000  0.5062720000000  0.4062590000000 1.0
C      1  0.5187730000000  0.5405200000000  0.5189700000000 1.0
C      1  0.4812270000000  0.4594800000000  0.4810300000000 1.0
C      1  0.3925820000000  0.4773500000000  0.5209960000000 1.0
C      1  0.6074180000000  0.5226500000000  0.4790040000000 1.0
C      1  0.4871110000000  0.4287200000000  0.5715680000000 1.0
C      1  0.5128890000000  0.5712800000000  0.4284320000000 1.0
C      1  0.5164900000000  0.5042560000000  0.4645090000000 1.0
C      1  0.4835100000000  0.4957440000000  0.5354910000000 1.0
C      1  0.5862270000000  0.4688010000000  0.5650540000000 1.0
C      1  0.4137730000000  0.5311990000000  0.4349460000000 1.0
C      1  0.4534010000000  0.5609420000000  0.4753710000000 1.0
C      1  0.5465990000000  0.4390580000000  0.5246290000000 1.0
C      1  0.3952380000000  0.4497170000000  0.5022360000000 1.0
C      1  0.6047620000000  0.5502830000000  0.4977640000000 1.0
C      1  0.4358960000000  0.4645870000000  0.4262810000000 1.0
C      1  0.5641040000000  0.5354130000000  0.5737190000000 1.0
C      1  0.5663810000000  0.4524590000000  0.4368240000000 1.0
C      1  0.4336190000000  0.5475410000000  0.5631760000000 1.0
C      1  0.4672400000000  0.5166710000000  0.5509940000000 1.0
C      1  0.5327600000000  0.4833290000000  0.4490060000000 1.0
C      1  0.5453440000000  0.6071410000000  0.4929440000000 1.0
C      1  0.4546560000000  0.3928590000000  0.5070560000000 1.0
C      1  0.5506230000000  0.4599680000000  0.5013000000000 1.0
C      1  0.4493770000000  0.5400320000000  0.4987000000000 1.0
C      1  0.4779460000000  0.4675620000000  0.5516040000000 1.0
C      1  0.5220540000000  0.5324380000000  0.4483960000000 1.0
C      1  0.5683440000000  0.5463090000000  0.4356080000000 1.0
C      1  0.4316560000000  0.4536910000000  0.5643920000000 1.0
C      1  0.5209730000000  0.4676510000000  0.5076090000000 1.0
C      1  0.4790270000000  0.5323490000000  0.4923910000000 1.0
C      1  0.4259060000000  0.4582020000000  0.5040670000000 1.0
C      1  0.5740940000000  0.5417980000000  0.4959330000000 1.0
C      1  0.4856170000000  0.4192030000000  0.4944600000000 1.0
C      1  0.5143830000000  0.5807970000000  0.5055400000000 1.0
C      1  0.4431550000000  0.4300350000000  0.4715190000000 1.0
C      1  0.5568450000000  0.5699650000000  0.5284810000000 1.0
C      1  0.4681120000000  0.4155500000000  0.5514810000000 1.0
C      1  0.5318880000000  0.5844500000000  0.4485190000000 1.0
C      1  0.4798660000000  0.4005650000000  0.5237370000000 1.0
C      1  0.5201340000000  0.5994350000000  0.4762630000000 1.0
C      1  0.5675690000000  0.5159230000000  0.5485360000000 1.0
C      1  0.4324310000000  0.4840770000000  0.4514640000000 1.0
C      1  0.5072500000000  0.5423720000000  0.5452220000000 1.0
C      1  0.4927500000000  0.4576280000000  0.4547780000000 1.0
C      1  0.4075930000000  0.5041680000000  0.5076460000000 1.0
C      1  0.5924070000000  0.4958320000000  0.4923540000000 1.0
C      1  0.4257150000000  0.5068740000000  0.5910470000000 1.0
C      1  0.5742850000000  0.4931260000000  0.4089530000000 1.0
C      1  0.4170480000000  0.5476290000000  0.4916480000000 1.0
C      1  0.5829520000000  0.4523710000000  0.5083520000000 1.0
C      1  0.5223980000000  0.4578050000000  0.4566140000000 1.0
C      1  0.4776020000000  0.5421950000000  0.5433860000000 1.0
C      1  0.5628310000000  0.4801530000000  0.4529150000000 1.0
C      1  0.4371690000000  0.5198470000000  0.5470850000000 1.0
C      1  0.4956430000000  0.4900650000000  0.6196100000000 1.0
C      1  0.5043570000000  0.5099350000000  0.3803900000000 1.0
C      1  0.5051870000000  0.5527410000000  0.4956830000000 1.0
C      1  0.4948130000000  0.4472590000000  0.5043170000000 1.0
C      1  0.4805030000000  0.4949160000000  0.3945370000000 1.0
C      1  0.5194970000000  0.5050840000000  0.6054630000000 1.0
C      1  0.5219200000000  0.5635980000000  0.5589090000000 1.0
C      1  0.4780800000000  0.4364020000000  0.4410910000000 1.0
C      1  0.4119630000000  0.5092380000000  0.4549380000000 1.0
C      1  0.5880370000000  0.4907620000000  0.5450620000000 1.0
C      1  0.4826930000000  0.4809320000000  0.4384510000000 1.0
C      1  0.5173070000000  0.5190680000000  0.5615490000000 1.0
C      1  0.5143630000000  0.4532180000000  0.4084480000000 1.0
C      1  0.4856370000000  0.5467820000000  0.5915520000000 1.0
C      1  0.5255520000000  0.5544560000000  0.4073580000000 1.0
C      1  0.4744480000000  0.4455440000000  0.5926420000000 1.0
C      1  0.5384730000000  0.4532020000000  0.5760350000000 1.0
C      1  0.4615270000000  0.5467980000000  0.4239650000000 1.0
C      1  0.5680610000000  0.4808210000000  0.4813050000000 1.0
C      1  0.4319390000000  0.5191790000000  0.5186950000000 1.0
C      1  0.4333200000000  0.5536440000000  0.4363510000000 1.0
C      1  0.5666800000000  0.4463560000000  0.5636490000000 1.0
C      1  0.5167100000000  0.5374240000000  0.5992900000000 1.0
C      1  0.4832900000000  0.4625760000000  0.4007100000000 1.0
C      1  0.4853350000000  0.5622750000000  0.4384030000000 1.0
C      1  0.5146650000000  0.4377250000000  0.5615970000000 1.0
C      1  0.5272180000000  0.5849110000000  0.5362360000000 1.0
C      1  0.4727820000000  0.4150890000000  0.4637640000000 1.0
C      1  0.4740120000000  0.5145410000000  0.5792430000000 1.0
C      1  0.5259880000000  0.4854590000000  0.4207570000000 1.0
C      1  0.4617940000000  0.4498020000000  0.4191090000000 1.0
C      1  0.5382060000000  0.5501980000000  0.5808910000000 1.0
C      1  0.5809860000000  0.4975320000000  0.4374430000000 1.0
C      1  0.4190140000000  0.5024680000000  0.5625570000000 1.0
C      1  0.5629340000000  0.5847000000000  0.5010290000000 1.0
C      1  0.4370660000000  0.4153000000000  0.4989710000000 1.0
C      1  0.5070900000000  0.4904170000000  0.4923370000000 1.0
C      1  0.4929100000000  0.5095830000000  0.5076630000000 1.0
C      1  0.5925170000000  0.5794050000000  0.4927440000000 1.0
C      1  0.4074830000000  0.4205950000000  0.5072560000000 1.0
C      1  0.5560480000000  0.4221410000000  0.4730070000000 1.0
C      1  0.4439520000000  0.5778590000000  0.5269930000000 1.0
C      1  0.5549010000000  0.5629610000000  0.4807270000000 1.0
C      1  0.4450990000000  0.4370390000000  0.5192730000000 1.0
C      1  0.5904710000000  0.4437670000000  0.4544640000000 1.0
C      1  0.4095290000000  0.5562330000000  0.5455360000000 1.0
C      1  0.4154610000000  0.4329360000000  0.4574530000000 1.0
C      1  0.5845390000000  0.5670640000000  0.5425470000000 1.0
C      1  0.5209350000000  0.4306540000000  0.5346400000000 1.0
C      1  0.4790650000000  0.5693460000000  0.4653600000000 1.0
C      1  0.5010940000000  0.5255710000000  0.4255210000000 1.0
C      1  0.4989060000000  0.4744290000000  0.5744790000000 1.0
C      1  0.5390030000000  0.4626670000000  0.3881860000000 1.0
C      1  0.4609970000000  0.5373330000000  0.6118140000000 1.0
C      1  0.4590050000000  0.4866190000000  0.5163080000000 1.0
C      1  0.5409950000000  0.5133810000000  0.4836920000000 1.0
C      1  0.6067250000000  0.5540600000000  0.5282800000000 1.0
C      1  0.3932750000000  0.4459400000000  0.4717200000000 1.0
C      1  0.4884530000000  0.5946200000000  0.4756380000000 1.0
C      1  0.5115470000000  0.4053800000000  0.5243620000000 1.0
C      1  0.4303510000000  0.5754610000000  0.4628950000000 1.0
C      1  0.5696490000000  0.4245390000000  0.5371050000000 1.0
C      1  0.4649970000000  0.4835720000000  0.4865790000000 1.0
C      1  0.5350030000000  0.5164280000000  0.5134210000000 1.0
C      1  0.4397950000000  0.4294970000000  0.5481030000000 1.0
C      1  0.5602050000000  0.5705030000000  0.4518970000000 1.0
C      1  0.4965980000000  0.4626330000000  0.6043470000000 1.0
C      1  0.5034020000000  0.5373670000000  0.3956530000000 1.0
C      1  0.4341610000000  0.4770110000000  0.5254890000000 1.0
C      1  0.5658390000000  0.5229890000000  0.4745110000000 1.0
C      1  0.4400070000000  0.4657890000000  0.4762170000000 1.0
C      1  0.5599930000000  0.5342110000000  0.5237830000000 1.0
C      1  0.4947340000000  0.5921070000000  0.5444100000000 1.0
C      1  0.5052660000000  0.4078930000000  0.4555900000000 1.0
C      1  0.4989560000000  0.4963770000000  0.4205290000000 1.0
C      1  0.5010440000000  0.5036230000000  0.5794710000000 1.0
C      1  0.5411340000000  0.5015850000000  0.5552060000000 1.0
C      1  0.4588660000000  0.4984150000000  0.4447940000000 1.0
END
