TITL C-862505-1648-274 1.44043450609548e-05 125000 -916.489819940082 0 0 155 (S4) n - 1
REM
REM in /home/nfs/bkarasulu/CARBON/AIRSS/Generating-Clusters/TERSOFF/Higher-Symm/FIRE-HFTN
REM
REM
REM
REM
REM
REM ./C.cell (b20cbc046b6831c77cfcea5457e17084)
REM AIRSS Version 0.9.1 bugfix July 2018 build 013d7b7c2542+ Fri, 06 Jul 2018 19:26:36 +0100
REM compiler GCC version 9.2.1 20190827 (Red Hat 9.2.1-1)
REM options -cpp -mtune=generic -march=x86-64 -g -O0 -fpre-include=/usr/include/finclude/math-vector-fortran.h
REM seed 1363218131 -92847129 2017004559 -1589877323 1603825108 -907314711 2027274253 -1400273935 678973688 594472718 -1523064566 409908542 1145042280 -2142480862 -1519550579 1132993720 1524187989 -1098196452 -1205525764 -1867273083 279602215 1625032072 -862019598 -1761189603 -26884311 1584595590 -1454484245 -1590837087 -237386339 -623472394 1912176268 -334376076 400525261
REM
CELL 1.54180   50.00000   50.00000   50.00000   90.00000   90.00000   90.00000
LATT -1
SFAC C  
C      1  0.5804240000000  0.5047850000000  0.4971890000000 1.0
C      1  0.4959910000000  0.5801070000000  0.5032540000000 1.0
C      1  0.4206690000000  0.4956740000000  0.4971910000000 1.0
C      1  0.5051020000000  0.4203520000000  0.5032550000000 1.0
C      1  0.4890220000000  0.6049630000000  0.4483610000000 1.0
C      1  0.3958130000000  0.4887070000000  0.5520840000000 1.0
C      1  0.5120690000000  0.3954950000000  0.4483630000000 1.0
C      1  0.6052810000000  0.5117530000000  0.5520810000000 1.0
C      1  0.4435220000000  0.5054750000000  0.5621540000000 1.0
C      1  0.4953010000000  0.4432040000000  0.4382910000000 1.0
C      1  0.5575720000000  0.4949860000000  0.5621530000000 1.0
C      1  0.5057900000000  0.5572540000000  0.4382900000000 1.0
C      1  0.4017020000000  0.5166020000000  0.5456050000000 1.0
C      1  0.4841730000000  0.4013850000000  0.4548420000000 1.0
C      1  0.5993910000000  0.4838580000000  0.5456030000000 1.0
C      1  0.5169180000000  0.5990730000000  0.4548400000000 1.0
C      1  0.5496360000000  0.4543630000000  0.4459380000000 1.0
C      1  0.5464130000000  0.5493210000000  0.5545060000000 1.0
C      1  0.4514550000000  0.5460950000000  0.4459380000000 1.0
C      1  0.4546810000000  0.4511390000000  0.5545070000000 1.0
C      1  0.4667070000000  0.5609360000000  0.4651900000000 1.0
C      1  0.4398400000000  0.4663910000000  0.5352550000000 1.0
C      1  0.5343840000000  0.4395220000000  0.4651900000000 1.0
C      1  0.5612530000000  0.5340680000000  0.5352540000000 1.0
C      1  0.5287980000000  0.4993010000000  0.4870950000000 1.0
C      1  0.5014750000000  0.5284810000000  0.5133490000000 1.0
C      1  0.4722940000000  0.5011580000000  0.4870960000000 1.0
C      1  0.4996180000000  0.4719780000000  0.5133490000000 1.0
C      1  0.5683030000000  0.4170940000000  0.4928770000000 1.0
C      1  0.5836820000000  0.5679860000000  0.5075670000000 1.0
C      1  0.4327900000000  0.5833650000000  0.4928770000000 1.0
C      1  0.4174110000000  0.4324730000000  0.5075690000000 1.0
C      1  0.4522730000000  0.4567730000000  0.5852480000000 1.0
C      1  0.5440030000000  0.4519550000000  0.4151970000000 1.0
C      1  0.5488210000000  0.5436870000000  0.5852470000000 1.0
C      1  0.4570880000000  0.5485030000000  0.4151970000000 1.0
C      1  0.5598520000000  0.5487460000000  0.5091980000000 1.0
C      1  0.4520300000000  0.5595350000000  0.4912450000000 1.0
C      1  0.4412410000000  0.4517130000000  0.5092000000000 1.0
C      1  0.5490620000000  0.4409240000000  0.4912450000000 1.0
C      1  0.4986550000000  0.4307630000000  0.5615860000000 1.0
C      1  0.5700130000000  0.4983370000000  0.4388580000000 1.0
C      1  0.5024390000000  0.5696970000000  0.5615850000000 1.0
C      1  0.4310780000000  0.5021210000000  0.4388590000000 1.0
C      1  0.5216610000000  0.5637280000000  0.5866190000000 1.0
C      1  0.4370480000000  0.5213430000000  0.4138250000000 1.0
C      1  0.4794330000000  0.4367330000000  0.5866200000000 1.0
C      1  0.5640430000000  0.4791150000000  0.4138250000000 1.0
C      1  0.4414100000000  0.6011840000000  0.4695720000000 1.0
C      1  0.3995910000000  0.4410940000000  0.5308740000000 1.0
C      1  0.5596820000000  0.3992740000000  0.4695730000000 1.0
C      1  0.6015020000000  0.5593660000000  0.5308710000000 1.0
C      1  0.5581870000000  0.6032950000000  0.4798730000000 1.0
C      1  0.3974810000000  0.5578700000000  0.5205710000000 1.0
C      1  0.4429050000000  0.3971640000000  0.4798760000000 1.0
C      1  0.6036120000000  0.4425890000000  0.5205700000000 1.0
C      1  0.4654870000000  0.4994480000000  0.5387100000000 1.0
C      1  0.5013280000000  0.4651700000000  0.4617350000000 1.0
C      1  0.5356060000000  0.5010120000000  0.5387090000000 1.0
C      1  0.4997640000000  0.5352880000000  0.4617350000000 1.0
C      1  0.4803350000000  0.5683900000000  0.4251380000000 1.0
C      1  0.4323860000000  0.4800190000000  0.5753070000000 1.0
C      1  0.5207560000000  0.4320680000000  0.4251390000000 1.0
C      1  0.5687080000000  0.5204410000000  0.5753050000000 1.0
C      1  0.5881540000000  0.5218420000000  0.4477270000000 1.0
C      1  0.4789330000000  0.5878380000000  0.5527160000000 1.0
C      1  0.4129370000000  0.4786160000000  0.4477290000000 1.0
C      1  0.5221600000000  0.4126220000000  0.5527170000000 1.0
C      1  0.4522790000000  0.5827540000000  0.5670870000000 1.0
C      1  0.4180220000000  0.4519610000000  0.4333590000000 1.0
C      1  0.5488150000000  0.4177060000000  0.5670870000000 1.0
C      1  0.5830690000000  0.5484970000000  0.4333560000000 1.0
C      1  0.5546180000000  0.4061820000000  0.5163020000000 1.0
C      1  0.5945940000000  0.5543010000000  0.4841410000000 1.0
C      1  0.4464750000000  0.5942770000000  0.5163020000000 1.0
C      1  0.4064980000000  0.4461580000000  0.4841440000000 1.0
C      1  0.5325510000000  0.5199380000000  0.5966830000000 1.0
C      1  0.4808380000000  0.5322320000000  0.4037610000000 1.0
C      1  0.4685440000000  0.4805230000000  0.5966840000000 1.0
C      1  0.5202530000000  0.4682250000000  0.4037610000000 1.0
C      1  0.5333760000000  0.5747680000000  0.4403740000000 1.0
C      1  0.4260070000000  0.5330600000000  0.5600710000000 1.0
C      1  0.4677160000000  0.4256900000000  0.4403750000000 1.0
C      1  0.5750860000000  0.4674000000000  0.5600700000000 1.0
C      1  0.5386810000000  0.5461610000000  0.4877850000000 1.0
C      1  0.4546150000000  0.5383640000000  0.5126590000000 1.0
C      1  0.4624110000000  0.4542980000000  0.4877860000000 1.0
C      1  0.5464780000000  0.4620950000000  0.5126590000000 1.0
C      1  0.4803880000000  0.4880100000000  0.4262320000000 1.0
C      1  0.5127650000000  0.4800720000000  0.5742130000000 1.0
C      1  0.5207040000000  0.5124470000000  0.4262320000000 1.0
C      1  0.4883280000000  0.5203880000000  0.5742130000000 1.0
C      1  0.5176690000000  0.5993550000000  0.5046710000000 1.0
C      1  0.4014210000000  0.5173520000000  0.4957730000000 1.0
C      1  0.4834230000000  0.4011040000000  0.5046730000000 1.0
C      1  0.5996710000000  0.4831070000000  0.4957720000000 1.0
C      1  0.4720410000000  0.3913080000000  0.4795660000000 1.0
C      1  0.6094680000000  0.4717240000000  0.5208790000000 1.0
C      1  0.5290510000000  0.6091510000000  0.4795640000000 1.0
C      1  0.3916250000000  0.5287350000000  0.5208800000000 1.0
C      1  0.4629030000000  0.4789880000000  0.4714640000000 1.0
C      1  0.5217880000000  0.4625860000000  0.5289810000000 1.0
C      1  0.5381890000000  0.5214710000000  0.4714630000000 1.0
C      1  0.4793050000000  0.5378730000000  0.5289810000000 1.0
C      1  0.4139850000000  0.5611480000000  0.5453490000000 1.0
C      1  0.4396280000000  0.4136670000000  0.4550970000000 1.0
C      1  0.5871090000000  0.4393120000000  0.5453480000000 1.0
C      1  0.5614640000000  0.5867910000000  0.4550950000000 1.0
C      1  0.4717010000000  0.4300080000000  0.5454340000000 1.0
C      1  0.5707680000000  0.4713840000000  0.4550110000000 1.0
C      1  0.5293920000000  0.5704520000000  0.5454330000000 1.0
C      1  0.4303240000000  0.5290750000000  0.4550120000000 1.0
C      1  0.5875370000000  0.5270540000000  0.4766180000000 1.0
C      1  0.4737220000000  0.5872200000000  0.5238250000000 1.0
C      1  0.4135550000000  0.4734040000000  0.4766200000000 1.0
C      1  0.5273710000000  0.4132390000000  0.5238260000000 1.0
C      1  0.5865600000000  0.5741670000000  0.4473780000000 1.0
C      1  0.4266090000000  0.5862440000000  0.5530660000000 1.0
C      1  0.4145310000000  0.4262910000000  0.4473800000000 1.0
C      1  0.5744850000000  0.4142160000000  0.5530660000000 1.0
C      1  0.4108590000000  0.4658420000000  0.5421760000000 1.0
C      1  0.5349340000000  0.4105410000000  0.4582700000000 1.0
C      1  0.5902350000000  0.5346180000000  0.5421740000000 1.0
C      1  0.4661580000000  0.5899170000000  0.4582700000000 1.0
C      1  0.5918130000000  0.4626710000000  0.4759210000000 1.0
C      1  0.5381050000000  0.5914970000000  0.5245220000000 1.0
C      1  0.4092790000000  0.5377870000000  0.4759220000000 1.0
C      1  0.4629880000000  0.4089630000000  0.5245250000000 1.0
C      1  0.4945480000000  0.4638900000000  0.4171290000000 1.0
C      1  0.5368860000000  0.4942320000000  0.5833150000000 1.0
C      1  0.5065430000000  0.5365680000000  0.4171290000000 1.0
C      1  0.4642080000000  0.5062280000000  0.5833160000000 1.0
C      1  0.4748870000000  0.5046990000000  0.4032690000000 1.0
C      1  0.4960770000000  0.4745720000000  0.5971760000000 1.0
C      1  0.5262030000000  0.4957580000000  0.4032680000000 1.0
C      1  0.5050180000000  0.5258880000000  0.5971760000000 1.0
C      1  0.5201540000000  0.4560020000000  0.5581870000000 1.0
C      1  0.5447740000000  0.5198360000000  0.4422570000000 1.0
C      1  0.4809390000000  0.5444580000000  0.5581870000000 1.0
C      1  0.4563170000000  0.4806220000000  0.4422580000000 1.0
C      1  0.5529330000000  0.5472260000000  0.4325740000000 1.0
C      1  0.4535500000000  0.5526170000000  0.5678700000000 1.0
C      1  0.4481580000000  0.4532320000000  0.4325760000000 1.0
C      1  0.5475440000000  0.4478430000000  0.5678700000000 1.0
C      1  0.4509300000000  0.5072910000000  0.5070390000000 1.0
C      1  0.4934850000000  0.4506140000000  0.4934060000000 1.0
C      1  0.5501620000000  0.4931680000000  0.5070380000000 1.0
C      1  0.5076080000000  0.5498450000000  0.4934050000000 1.0
C      1  0.5653540000000  0.5921060000000  0.5072970000000 1.0
C      1  0.4086690000000  0.5650370000000  0.4931460000000 1.0
C      1  0.4357380000000  0.4083530000000  0.5073000000000 1.0
C      1  0.5924230000000  0.4354220000000  0.4931460000000 1.0
C      1  0.5005470000000  0.5002300000000  0.5488470000000 1.0
C      1  0.5005460000000  0.5002290000000  0.4515980000000 1.0
C      1  0.5005460000000  0.5002300000000  0.5002220000000 1.0
END
