TITL C-862501-1041-389 0.000131193153791651 125000 -547.030270568745 0 0 106 (C3) n - 1
REM
REM in /home/nfs/bkarasulu/CARBON/AIRSS/Generating-Clusters/TERSOFF/Higher-Symm/FIRE-HFTN
REM
REM
REM
REM
REM
REM ./C.cell (b20cbc046b6831c77cfcea5457e17084)
REM AIRSS Version 0.9.1 bugfix July 2018 build 013d7b7c2542+ Fri, 06 Jul 2018 19:26:36 +0100
REM compiler GCC version 9.2.1 20190827 (Red Hat 9.2.1-1)
REM options -cpp -mtune=generic -march=x86-64 -g -O0 -fpre-include=/usr/include/finclude/math-vector-fortran.h
REM seed -361158436 -2091953246 632166765 1653647170 -288589258 -1123990980 1415281951 -1137449757 -789592212 -1574026505 -1985902272 -643568481 248435231 -368675309 191903788 -1353995862 789961285 -425621299 893970143 863945345 -2101580265 1325682595 1559384522 -1187681129 2052275420 -577208052 1290265727 -1640182669 434736068 -1599666564 864912425 468757457 -1152762363
REM
CELL 1.54180   50.00000   50.00000   50.00000   90.00000   90.00000   90.00000
LATT -1
SFAC C  
C      1  0.4751440000000  0.4498740000000  0.5064480000000 1.0
C      1  0.4698700000000  0.5468480000000  0.5064480000000 1.0
C      1  0.5564890000000  0.5029280000000  0.5064480000000 1.0
C      1  0.5621420000000  0.5582920000000  0.4898810000000 1.0
C      1  0.5202630000000  0.4172960000000  0.4898810000000 1.0
C      1  0.4190960000000  0.5240620000000  0.4898810000000 1.0
C      1  0.4481370000000  0.5003420000000  0.5815040000000 1.0
C      1  0.5270800000000  0.5450030000000  0.5815040000000 1.0
C      1  0.5262860000000  0.4543060000000  0.5815040000000 1.0
C      1  0.5136610000000  0.5504380000000  0.5275260000000 1.0
C      1  0.5377020000000  0.4632090000000  0.5275260000000 1.0
C      1  0.4501390000000  0.4860030000000  0.5275260000000 1.0
C      1  0.5799620000000  0.4802160000000  0.4988310000000 1.0
C      1  0.4437380000000  0.4409020000000  0.4988310000000 1.0
C      1  0.4778020000000  0.5785320000000  0.4988310000000 1.0
C      1  0.5133150000000  0.5239040000000  0.4431340000000 1.0
C      1  0.5148960000000  0.4767760000000  0.4431340000000 1.0
C      1  0.4732910000000  0.4989710000000  0.4431340000000 1.0
C      1  0.5098210000000  0.5801380000000  0.4888090000000 1.0
C      1  0.5653430000000  0.4516850000000  0.4888090000000 1.0
C      1  0.4263380000000  0.4678280000000  0.4888090000000 1.0
C      1  0.5111470000000  0.5620690000000  0.4651230000000 1.0
C      1  0.5490310000000  0.4595710000000  0.4651230000000 1.0
C      1  0.4413240000000  0.4780110000000  0.4651230000000 1.0
C      1  0.4795210000000  0.5035890000000  0.5921450000000 1.0
C      1  0.5141990000000  0.5162000000000  0.5921450000000 1.0
C      1  0.5077820000000  0.4798620000000  0.5921450000000 1.0
C      1  0.5511060000000  0.4277920000000  0.5059520000000 1.0
C      1  0.4127650000000  0.4921040000000  0.5059520000000 1.0
C      1  0.5376310000000  0.5797550000000  0.5059520000000 1.0
C      1  0.4979990000000  0.5199140000000  0.3952980000000 1.0
C      1  0.5190980000000  0.4920350000000  0.3952980000000 1.0
C      1  0.4844050000000  0.4877020000000  0.3952980000000 1.0
C      1  0.5002360000000  0.4320660000000  0.4718010000000 1.0
C      1  0.4419010000000  0.5340210000000  0.4718010000000 1.0
C      1  0.5593650000000  0.5335640000000  0.4718010000000 1.0
C      1  0.5679280000000  0.5799730000000  0.5253320000000 1.0
C      1  0.5361470000000  0.4014450000000  0.5253320000000 1.0
C      1  0.3974280000000  0.5182320000000  0.5253320000000 1.0
C      1  0.5689090000000  0.5265230000000  0.5252430000000 1.0
C      1  0.4893670000000  0.4273200000000  0.5252440000000 1.0
C      1  0.4432260000000  0.5458070000000  0.5252440000000 1.0
C      1  0.5576270000000  0.5396750000000  0.5754390000000 1.0
C      1  0.5063980000000  0.4305150000000  0.5754390000000 1.0
C      1  0.4374780000000  0.5294610000000  0.5754390000000 1.0
C      1  0.4485490000000  0.5495350000000  0.5541090000000 1.0
C      1  0.5694760000000  0.5200500000000  0.5541080000000 1.0
C      1  0.4834770000000  0.4300660000000  0.5541090000000 1.0
C      1  0.4395830000000  0.5272840000000  0.4413260000000 1.0
C      1  0.5546890000000  0.5389390000000  0.4413260000000 1.0
C      1  0.5072300000000  0.4334270000000  0.4413260000000 1.0
C      1  0.4841620000000  0.5403230000000  0.4740230000000 1.0
C      1  0.5436920000000  0.4938140000000  0.4740230000000 1.0
C      1  0.4736490000000  0.4655140000000  0.4740230000000 1.0
C      1  0.5112520000000  0.5674040000000  0.5658420000000 1.0
C      1  0.5535990000000  0.4568120000000  0.5658420000000 1.0
C      1  0.4366510000000  0.4754340000000  0.5658420000000 1.0
C      1  0.4665940000000  0.5075770000000  0.5211470000000 1.0
C      1  0.5241170000000  0.5254010000000  0.5211470000000 1.0
C      1  0.5107920000000  0.4666720000000  0.5211470000000 1.0
C      1  0.4796410000000  0.5238230000000  0.5424430000000 1.0
C      1  0.5316620000000  0.5059790000000  0.5424430000000 1.0
C      1  0.4901990000000  0.4698490000000  0.5424430000000 1.0
C      1  0.5070910000000  0.4063030000000  0.5147470000000 1.0
C      1  0.4161630000000  0.5409660000000  0.5147470000000 1.0
C      1  0.5782480000000  0.5523810000000  0.5147470000000 1.0
C      1  0.5330880000000  0.5608120000000  0.4399090000000 1.0
C      1  0.5369720000000  0.4411980000000  0.4399090000000 1.0
C      1  0.4314410000000  0.4976410000000  0.4399090000000 1.0
C      1  0.5347160000000  0.4826020000000  0.4185640000000 1.0
C      1  0.4684260000000  0.4788930000000  0.4185640000000 1.0
C      1  0.4983590000000  0.5381560000000  0.4185640000000 1.0
C      1  0.5256970000000  0.5316020000000  0.4707980000000 1.0
C      1  0.5153720000000  0.4622030000000  0.4707980000000 1.0
C      1  0.4604330000000  0.5058450000000  0.4707980000000 1.0
C      1  0.4647560000000  0.4629970000000  0.5320120000000 1.0
C      1  0.4864290000000  0.5492820000000  0.5320120000000 1.0
C      1  0.5503170000000  0.4873710000000  0.5320120000000 1.0
C      1  0.5509410000000  0.5055080000000  0.4405720000000 1.0
C      1  0.4801510000000  0.4533880000000  0.4405720000000 1.0
C      1  0.4704090000000  0.5407540000000  0.4405720000000 1.0
C      1  0.4878820000000  0.4680060000000  0.5715390000000 1.0
C      1  0.4792030000000  0.5267510000000  0.5715390000000 1.0
C      1  0.5344170000000  0.5048940000000  0.5715390000000 1.0
C      1  0.5835310000000  0.5070420000000  0.4747610000000 1.0
C      1  0.4651850000000  0.4243980000000  0.4747610000000 1.0
C      1  0.4527860000000  0.5682110000000  0.4747610000000 1.0
C      1  0.4519690000000  0.4446510000000  0.5550310000000 1.0
C      1  0.4769340000000  0.5695290000000  0.5550310000000 1.0
C      1  0.5725990000000  0.4854700000000  0.5550310000000 1.0
C      1  0.4371260000000  0.4315860000000  0.5284080000000 1.0
C      1  0.4730410000000  0.5889160000000  0.5284080000000 1.0
C      1  0.5913350000000  0.4791480000000  0.5284080000000 1.0
C      1  0.4864030000000  0.5693870000000  0.4439460000000 1.0
C      1  0.5677420000000  0.4773410000000  0.4439460000000 1.0
C      1  0.4473570000000  0.4529230000000  0.4439460000000 1.0
C      1  0.4799500000000  0.5040770000000  0.4946610000000 1.0
C      1  0.5144080000000  0.5155850000000  0.4946610000000 1.0
C      1  0.5071450000000  0.4799890000000  0.4946610000000 1.0
C      1  0.5289320000000  0.5737160000000  0.5388410000000 1.0
C      1  0.5502260000000  0.4383450000000  0.5388410000000 1.0
C      1  0.4223440000000  0.4875900000000  0.5388410000000 1.0
C      1  0.5165360000000  0.5615030000000  0.4157900000000 1.0
C      1  0.5458470000000  0.4551870000000  0.4157900000000 1.0
C      1  0.4391190000000  0.4829610000000  0.4157900000000 1.0
C      1  0.5005010000000  0.4998840000000  0.4453860000000 1.0
END
