TITL C-862504-1170-139 -3.86191122846348e-06 125000 -837.596322474629 0 0 154 (D2h) n - 1
REM
REM in /home/nfs/bkarasulu/CARBON/AIRSS/Generating-Clusters/TERSOFF/Higher-Symm/FIRE-HFTN
REM
REM
REM
REM
REM
REM ./C.cell (b20cbc046b6831c77cfcea5457e17084)
REM AIRSS Version 0.9.1 bugfix July 2018 build 013d7b7c2542+ Fri, 06 Jul 2018 19:26:36 +0100
REM compiler GCC version 9.2.1 20190827 (Red Hat 9.2.1-1)
REM options -cpp -mtune=generic -march=x86-64 -g -O0 -fpre-include=/usr/include/finclude/math-vector-fortran.h
REM seed 2012524685 819296463 -1327726239 1687218038 -1642018198 -1891702296 190785093 -676965922 1777470695 -221867190 -1865956008 -1470935442 -103742234 -1086285372 -1304426048 703522407 -1906997743 -470561299 -1444336167 811784415 -1786747912 -2101671418 2104520930 1116318627 -1876908145 199643503 -1078524610 1318874453 790651005 -1720768356 1962554033 470235820 -1940492953
REM
CELL 1.54180   50.00000   50.00000   50.00000   90.00000   90.00000   90.00000
LATT -1
SFAC C  
C      1  0.4839890000000  0.4071300000000  0.4710810000000 1.0
C      1  0.5160110000000  0.5928700000000  0.4710810000000 1.0
C      1  0.4839890000000  0.4071300000000  0.5296370000000 1.0
C      1  0.5160110000000  0.5928700000000  0.5296370000000 1.0
C      1  0.4839890000000  0.5928700000000  0.4710810000000 1.0
C      1  0.5160110000000  0.4071300000000  0.4710810000000 1.0
C      1  0.4839890000000  0.5928700000000  0.5296370000000 1.0
C      1  0.5160110000000  0.4071300000000  0.5296370000000 1.0
C      1  0.5530640000000  0.4767180000000  0.5806610000000 1.0
C      1  0.4469360000000  0.5232820000000  0.5806610000000 1.0
C      1  0.5530640000000  0.4767180000000  0.4200570000000 1.0
C      1  0.4469360000000  0.5232820000000  0.4200570000000 1.0
C      1  0.5530640000000  0.5232820000000  0.5806610000000 1.0
C      1  0.4469360000000  0.4767180000000  0.5806610000000 1.0
C      1  0.5530640000000  0.5232820000000  0.4200570000000 1.0
C      1  0.4469360000000  0.4767180000000  0.4200570000000 1.0
C      1  0.4847930000000  0.4592960000000  0.5905650000000 1.0
C      1  0.5152070000000  0.5407040000000  0.5905650000000 1.0
C      1  0.4847930000000  0.4592960000000  0.4101540000000 1.0
C      1  0.5152070000000  0.5407040000000  0.4101540000000 1.0
C      1  0.4847930000000  0.5407040000000  0.5905650000000 1.0
C      1  0.5152070000000  0.4592960000000  0.5905650000000 1.0
C      1  0.4847930000000  0.5407040000000  0.4101540000000 1.0
C      1  0.5152070000000  0.4592960000000  0.4101540000000 1.0
C      1  0.5898670000000  0.5471090000000  0.5530720000000 1.0
C      1  0.4101330000000  0.4528910000000  0.5530720000000 1.0
C      1  0.5898670000000  0.5471090000000  0.4476470000000 1.0
C      1  0.4101330000000  0.4528910000000  0.4476470000000 1.0
C      1  0.5898670000000  0.4528910000000  0.5530720000000 1.0
C      1  0.4101330000000  0.5471090000000  0.5530720000000 1.0
C      1  0.5898670000000  0.4528910000000  0.4476470000000 1.0
C      1  0.4101330000000  0.5471090000000  0.4476470000000 1.0
C      1  0.5675550000000  0.5729290000000  0.4847390000000 1.0
C      1  0.4324450000000  0.4270710000000  0.4847390000000 1.0
C      1  0.5675550000000  0.5729290000000  0.5159800000000 1.0
C      1  0.4324450000000  0.4270710000000  0.5159800000000 1.0
C      1  0.5675550000000  0.4270710000000  0.4847390000000 1.0
C      1  0.4324450000000  0.5729290000000  0.4847390000000 1.0
C      1  0.5675550000000  0.4270710000000  0.5159800000000 1.0
C      1  0.4324450000000  0.5729290000000  0.5159800000000 1.0
C      1  0.4670420000000  0.4402000000000  0.4351280000000 1.0
C      1  0.5329580000000  0.5598000000000  0.4351280000000 1.0
C      1  0.4670420000000  0.4402000000000  0.5655900000000 1.0
C      1  0.5329580000000  0.5598000000000  0.5655900000000 1.0
C      1  0.4670420000000  0.5598000000000  0.4351280000000 1.0
C      1  0.5329580000000  0.4402000000000  0.4351280000000 1.0
C      1  0.4670420000000  0.5598000000000  0.5655900000000 1.0
C      1  0.5329580000000  0.4402000000000  0.5655900000000 1.0
C      1  0.5913590000000  0.5684870000000  0.4681390000000 1.0
C      1  0.4086410000000  0.4315130000000  0.4681390000000 1.0
C      1  0.5913590000000  0.5684870000000  0.5325800000000 1.0
C      1  0.4086410000000  0.4315130000000  0.5325800000000 1.0
C      1  0.5913590000000  0.4315130000000  0.4681390000000 1.0
C      1  0.4086410000000  0.5684870000000  0.4681390000000 1.0
C      1  0.5913590000000  0.4315130000000  0.5325800000000 1.0
C      1  0.4086410000000  0.5684870000000  0.5325800000000 1.0
C      1  0.5976890000000  0.5180330000000  0.4598400000000 1.0
C      1  0.4023110000000  0.4819670000000  0.4598400000000 1.0
C      1  0.5976890000000  0.5180330000000  0.5408790000000 1.0
C      1  0.4023110000000  0.4819670000000  0.5408790000000 1.0
C      1  0.5976890000000  0.4819670000000  0.4598400000000 1.0
C      1  0.4023110000000  0.5180330000000  0.4598400000000 1.0
C      1  0.5976890000000  0.4819670000000  0.5408790000000 1.0
C      1  0.4023110000000  0.5180330000000  0.5408790000000 1.0
C      1  0.5666170000000  0.5495880000000  0.5738580000000 1.0
C      1  0.4333830000000  0.4504120000000  0.5738580000000 1.0
C      1  0.5666170000000  0.5495880000000  0.4268610000000 1.0
C      1  0.4333830000000  0.4504120000000  0.4268610000000 1.0
C      1  0.5666170000000  0.4504120000000  0.5738580000000 1.0
C      1  0.4333830000000  0.5495880000000  0.5738580000000 1.0
C      1  0.5666170000000  0.4504120000000  0.4268610000000 1.0
C      1  0.4333830000000  0.5495880000000  0.4268610000000 1.0
C      1  0.4830680000000  0.4134510000000  0.5610980000000 1.0
C      1  0.5169320000000  0.5865490000000  0.5610980000000 1.0
C      1  0.4830680000000  0.4134510000000  0.4396210000000 1.0
C      1  0.5169320000000  0.5865490000000  0.4396210000000 1.0
C      1  0.4830680000000  0.5865490000000  0.5610980000000 1.0
C      1  0.5169320000000  0.4134510000000  0.5610980000000 1.0
C      1  0.4830680000000  0.5865490000000  0.4396210000000 1.0
C      1  0.5169320000000  0.4134510000000  0.4396210000000 1.0
C      1  0.5450890000000  0.4418410000000  0.4694410000000 1.0
C      1  0.4549110000000  0.5581590000000  0.4694410000000 1.0
C      1  0.5450890000000  0.4418410000000  0.5312780000000 1.0
C      1  0.4549110000000  0.5581590000000  0.5312780000000 1.0
C      1  0.5450890000000  0.5581590000000  0.4694410000000 1.0
C      1  0.4549110000000  0.4418410000000  0.4694410000000 1.0
C      1  0.5450890000000  0.5581590000000  0.5312780000000 1.0
C      1  0.4549110000000  0.4418410000000  0.5312780000000 1.0
C      1  0.5328840000000  0.4831920000000  0.6035280000000 1.0
C      1  0.4671160000000  0.5168080000000  0.6035280000000 1.0
C      1  0.5328840000000  0.4831920000000  0.3971910000000 1.0
C      1  0.4671160000000  0.5168080000000  0.3971910000000 1.0
C      1  0.5328840000000  0.5168080000000  0.6035280000000 1.0
C      1  0.4671160000000  0.4831920000000  0.6035280000000 1.0
C      1  0.5328840000000  0.5168080000000  0.3971910000000 1.0
C      1  0.4671160000000  0.4831920000000  0.3971910000000 1.0
C      1  0.4696660000000  0.3863240000000  0.5148730000000 1.0
C      1  0.5303340000000  0.6136760000000  0.5148730000000 1.0
C      1  0.4696660000000  0.3863240000000  0.4858460000000 1.0
C      1  0.5303340000000  0.6136760000000  0.4858460000000 1.0
C      1  0.4696660000000  0.6136760000000  0.5148730000000 1.0
C      1  0.5303340000000  0.3863240000000  0.5148730000000 1.0
C      1  0.4696660000000  0.6136760000000  0.4858460000000 1.0
C      1  0.5303340000000  0.3863240000000  0.4858460000000 1.0
C      1  0.5169310000000  0.5624760000000  0.4843680000000 1.0
C      1  0.4830690000000  0.4375240000000  0.4843680000000 1.0
C      1  0.5169310000000  0.5624760000000  0.5163510000000 1.0
C      1  0.4830690000000  0.4375240000000  0.5163510000000 1.0
C      1  0.5169310000000  0.4375240000000  0.4843680000000 1.0
C      1  0.4830690000000  0.5624760000000  0.4843680000000 1.0
C      1  0.5169310000000  0.4375240000000  0.5163510000000 1.0
C      1  0.4830690000000  0.5624760000000  0.5163510000000 1.0
C      1  0.5405660000000  0.5141650000000  0.5558740000000 1.0
C      1  0.4594340000000  0.4858350000000  0.5558740000000 1.0
C      1  0.5405660000000  0.5141650000000  0.4448450000000 1.0
C      1  0.4594340000000  0.4858350000000  0.4448450000000 1.0
C      1  0.5405660000000  0.4858350000000  0.5558740000000 1.0
C      1  0.4594340000000  0.5141650000000  0.5558740000000 1.0
C      1  0.5405660000000  0.4858350000000  0.4448450000000 1.0
C      1  0.4594340000000  0.5141650000000  0.4448450000000 1.0
C      1  0.5151100000000  0.5333730000000  0.5492630000000 1.0
C      1  0.4848900000000  0.4666270000000  0.5492630000000 1.0
C      1  0.5151100000000  0.5333730000000  0.4514560000000 1.0
C      1  0.4848900000000  0.4666270000000  0.4514560000000 1.0
C      1  0.5151100000000  0.4666270000000  0.5492630000000 1.0
C      1  0.4848900000000  0.5333730000000  0.5492630000000 1.0
C      1  0.5151100000000  0.4666270000000  0.4514560000000 1.0
C      1  0.4848900000000  0.5333730000000  0.4514560000000 1.0
C      1  0.4242220000000  0.4838520000000  0.4839390000000 1.0
C      1  0.5757780000000  0.5161480000000  0.4839390000000 1.0
C      1  0.4242220000000  0.4838520000000  0.5167800000000 1.0
C      1  0.5757780000000  0.5161480000000  0.5167800000000 1.0
C      1  0.4242220000000  0.5161480000000  0.4839390000000 1.0
C      1  0.5757780000000  0.4838520000000  0.4839390000000 1.0
C      1  0.4242220000000  0.5161480000000  0.5167800000000 1.0
C      1  0.5757780000000  0.4838520000000  0.5167800000000 1.0
C      1  0.4784300000000  0.5266510000000  0.5166800000000 1.0
C      1  0.5215700000000  0.4733490000000  0.5166800000000 1.0
C      1  0.4784300000000  0.5266510000000  0.4840390000000 1.0
C      1  0.5215700000000  0.4733490000000  0.4840390000000 1.0
C      1  0.4784300000000  0.4733490000000  0.5166800000000 1.0
C      1  0.5215700000000  0.5266510000000  0.5166800000000 1.0
C      1  0.4784300000000  0.4733490000000  0.4840390000000 1.0
C      1  0.5215700000000  0.5266510000000  0.4840390000000 1.0
C      1  0.4484910000000  0.5269430000000  0.4713180000000 1.0
C      1  0.5515090000000  0.4730570000000  0.4713180000000 1.0
C      1  0.4484910000000  0.5269430000000  0.5294010000000 1.0
C      1  0.5515090000000  0.4730570000000  0.5294010000000 1.0
C      1  0.4484910000000  0.4730570000000  0.4713180000000 1.0
C      1  0.5515090000000  0.5269430000000  0.4713180000000 1.0
C      1  0.4484910000000  0.4730570000000  0.5294010000000 1.0
C      1  0.5515090000000  0.5269430000000  0.5294010000000 1.0
C      1  0.5000000000000  0.5000000000000  0.5174340000000 1.0
C      1  0.5000000000000  0.5000000000000  0.4832850000000 1.0
END
