TITL C-862134-6730-1242 -0.0140913570955747 125000 -357.136040162852 0 0 64 (C1) n - 1
REM
REM in /home/nfs/bkarasulu/CARBON/AIRSS/Generating-Clusters/TERSOFF/Higher-Symm/FIRE-HFTN
REM
REM
REM
REM
REM
REM ./C.cell (b20cbc046b6831c77cfcea5457e17084)
REM AIRSS Version 0.9.1 bugfix July 2018 build 013d7b7c2542+ Fri, 06 Jul 2018 19:26:36 +0100
REM compiler GCC version 9.2.1 20190827 (Red Hat 9.2.1-1)
REM options -cpp -mtune=generic -march=x86-64 -g -O0 -fpre-include=/usr/include/finclude/math-vector-fortran.h
REM seed -717484591 -1291991646 -73048756 -1711788400 920189289 -24643753 -804360160 300593272 -690993572 -850101634 89030144 679917394 2059872970 1403530865 1759658959 -1681759949 50020115 216161888 1410291945 -1767917691 -492349983 -2020534068 -327181629 2033241603 -410273343 326919393 2008667479 -997430069 -2077197206 -906865497 -1372134634 -1695250254 311677228
REM
CELL 1.54180   50.00000   50.00000   50.00000   90.00000   90.00000   90.00000
LATT -1
SFAC C  
C      1  0.5373150000000  0.4445720000000  0.4785360000000 1.0
C      1  0.4606650000000  0.5043220000000  0.4499770000000 1.0
C      1  0.4955610000000  0.4241530000000  0.5320820000000 1.0
C      1  0.4752860000000  0.4106130000000  0.4825470000000 1.0
C      1  0.5210760000000  0.5456600000000  0.5476800000000 1.0
C      1  0.4329870000000  0.4825720000000  0.5190140000000 1.0
C      1  0.5921030000000  0.5260910000000  0.4786460000000 1.0
C      1  0.4735080000000  0.5242220000000  0.4331670000000 1.0
C      1  0.4969510000000  0.5733630000000  0.5145910000000 1.0
C      1  0.5476240000000  0.4981890000000  0.5135400000000 1.0
C      1  0.5509830000000  0.5314060000000  0.4490860000000 1.0
C      1  0.4554850000000  0.5595970000000  0.4883630000000 1.0
C      1  0.4593390000000  0.4909720000000  0.5569890000000 1.0
C      1  0.4862380000000  0.4365460000000  0.4617570000000 1.0
C      1  0.4577080000000  0.5521450000000  0.5385000000000 1.0
C      1  0.5160030000000  0.4966840000000  0.5127990000000 1.0
C      1  0.5117030000000  0.4312900000000  0.4800800000000 1.0
C      1  0.4355690000000  0.5391230000000  0.4994450000000 1.0
C      1  0.4686150000000  0.5683360000000  0.5147150000000 1.0
C      1  0.5487500000000  0.4384090000000  0.5309250000000 1.0
C      1  0.5257970000000  0.5481560000000  0.4474540000000 1.0
C      1  0.4747030000000  0.4869830000000  0.5177850000000 1.0
C      1  0.4992940000000  0.5324830000000  0.5613710000000 1.0
C      1  0.5370600000000  0.5704300000000  0.5026720000000 1.0
C      1  0.4798350000000  0.4760590000000  0.4911810000000 1.0
C      1  0.5004730000000  0.5208580000000  0.4239430000000 1.0
C      1  0.4737820000000  0.5463300000000  0.5620350000000 1.0
C      1  0.4387680000000  0.5037030000000  0.5385080000000 1.0
C      1  0.4999300000000  0.4529400000000  0.5435650000000 1.0
C      1  0.5469490000000  0.5013510000000  0.4435920000000 1.0
C      1  0.4585730000000  0.4761250000000  0.4411040000000 1.0
C      1  0.5583880000000  0.4767630000000  0.4952650000000 1.0
C      1  0.5086670000000  0.4840950000000  0.4841110000000 1.0
C      1  0.5017530000000  0.5412750000000  0.4657240000000 1.0
C      1  0.4467520000000  0.4565190000000  0.5270730000000 1.0
C      1  0.5040680000000  0.5238190000000  0.5069200000000 1.0
C      1  0.5644980000000  0.5357640000000  0.4762270000000 1.0
C      1  0.4998270000000  0.4146270000000  0.5043390000000 1.0
C      1  0.5007920000000  0.5032770000000  0.5628510000000 1.0
C      1  0.5168310000000  0.4994150000000  0.4364310000000 1.0
C      1  0.5593690000000  0.5630450000000  0.4859570000000 1.0
C      1  0.4729910000000  0.5521550000000  0.4645220000000 1.0
C      1  0.4439880000000  0.4603660000000  0.4612550000000 1.0
C      1  0.5168480000000  0.5491340000000  0.5189590000000 1.0
C      1  0.4557490000000  0.5082620000000  0.4791840000000 1.0
C      1  0.5565040000000  0.4466430000000  0.5040550000000 1.0
C      1  0.4387580000000  0.5318200000000  0.5286290000000 1.0
C      1  0.5314400000000  0.4539930000000  0.5487120000000 1.0
C      1  0.4669190000000  0.4615990000000  0.5502830000000 1.0
C      1  0.5082360000000  0.4721570000000  0.4297760000000 1.0
C      1  0.4752340000000  0.5238260000000  0.4975330000000 1.0
C      1  0.5144560000000  0.5112060000000  0.4682700000000 1.0
C      1  0.4982270000000  0.4862430000000  0.5371330000000 1.0
C      1  0.5398140000000  0.4767680000000  0.4687010000000 1.0
C      1  0.5450480000000  0.5546580000000  0.5612520000000 1.0
C      1  0.4842240000000  0.4597100000000  0.4397100000000 1.0
C      1  0.5231150000000  0.4922120000000  0.5779330000000 1.0
C      1  0.5140140000000  0.5925800000000  0.4956090000000 1.0
C      1  0.4650230000000  0.4516560000000  0.4807920000000 1.0
C      1  0.5567430000000  0.4958720000000  0.5419890000000 1.0
C      1  0.5424530000000  0.5175750000000  0.4877920000000 1.0
C      1  0.4542850000000  0.4391520000000  0.5050970000000 1.0
C      1  0.5424700000000  0.4785390000000  0.5611930000000 1.0
C      1  0.4338820000000  0.4915940000000  0.4910760000000 1.0
END
