TITL C-862506-1665-1042 2.38694511035813 125000 -734.306269649472 0 0 124 (D2) n - 1
REM
REM in /home/nfs/bkarasulu/CARBON/AIRSS/Generating-Clusters/TERSOFF/Higher-Symm/FIRE-HFTN
REM
REM
REM
REM
REM
REM ./C.cell (b20cbc046b6831c77cfcea5457e17084)
REM AIRSS Version 0.9.1 bugfix July 2018 build 013d7b7c2542+ Fri, 06 Jul 2018 19:26:36 +0100
REM compiler GCC version 9.2.1 20190827 (Red Hat 9.2.1-1)
REM options -cpp -mtune=generic -march=x86-64 -g -O0 -fpre-include=/usr/include/finclude/math-vector-fortran.h
REM seed 1791366139 -1077124782 1924583012 -1195182880 1793438534 -619508874 381648452 1749216594 -2052037327 171373976 148774421 -670729614 1013082617 -824830279 1941104182 1321291309 -1669502613 1190749484 -1505196536 -1069400182 -877118249 1334838309 -627154895 -1096006604 -1429398578 1286773718 -869912900 -1959601540 -503132226 -747271152 -1358079317 -1898372553 -1464327933
REM
CELL 1.54180   50.00000   50.00000   50.00000   90.00000   90.00000   90.00000
LATT -1
SFAC C  
C      1  0.5153330000000  0.5695220000000  0.4344980000000 1.0
C      1  0.4846700000000  0.5695220000000  0.5655010000000 1.0
C      1  0.5132250000000  0.4235960000000  0.4425720000000 1.0
C      1  0.4867720000000  0.4235960000000  0.5574280000000 1.0
C      1  0.4867750000000  0.5764040000000  0.4425720000000 1.0
C      1  0.5132280000000  0.5764040000000  0.5574280000000 1.0
C      1  0.4846670000000  0.4304780000000  0.4344990000000 1.0
C      1  0.5153300000000  0.4304780000000  0.5655020000000 1.0
C      1  0.4090950000000  0.5340250000000  0.5184860000000 1.0
C      1  0.5909060000000  0.5340220000000  0.4815140000000 1.0
C      1  0.4103930000000  0.4647180000000  0.5119100000000 1.0
C      1  0.5896060000000  0.4647140000000  0.4880900000000 1.0
C      1  0.5896070000000  0.5352820000000  0.5119100000000 1.0
C      1  0.4103940000000  0.5352860000000  0.4880900000000 1.0
C      1  0.5909050000000  0.4659750000000  0.5184860000000 1.0
C      1  0.4090940000000  0.4659780000000  0.4815140000000 1.0
C      1  0.4349040000000  0.5867550000000  0.5684240000000 1.0
C      1  0.5650990000000  0.5867520000000  0.4315760000000 1.0
C      1  0.4353010000000  0.4187680000000  0.5643230000000 1.0
C      1  0.5646950000000  0.4187660000000  0.4356770000000 1.0
C      1  0.5646990000000  0.5812320000000  0.5643230000000 1.0
C      1  0.4353050000000  0.5812340000000  0.4356770000000 1.0
C      1  0.5650960000000  0.4132450000000  0.5684240000000 1.0
C      1  0.4349010000000  0.4132480000000  0.4315760000000 1.0
C      1  0.3852330000000  0.5784740000000  0.4892690000000 1.0
C      1  0.6147700000000  0.5784700000000  0.5107310000000 1.0
C      1  0.3834570000000  0.4227120000000  0.4819470000000 1.0
C      1  0.6165400000000  0.4227080000000  0.5180530000000 1.0
C      1  0.6165430000000  0.5772880000000  0.4819470000000 1.0
C      1  0.3834600000000  0.5772920000000  0.5180530000000 1.0
C      1  0.6147670000000  0.4215260000000  0.4892690000000 1.0
C      1  0.3852300000000  0.4215300000000  0.5107310000000 1.0
C      1  0.5460210000000  0.4261930000000  0.4799050000000 1.0
C      1  0.4539770000000  0.4261950000000  0.5200950000000 1.0
C      1  0.5494230000000  0.5623240000000  0.4694210000000 1.0
C      1  0.4505800000000  0.5623260000000  0.5305790000000 1.0
C      1  0.4505770000000  0.4376760000000  0.4694210000000 1.0
C      1  0.5494200000000  0.4376740000000  0.5305790000000 1.0
C      1  0.4539790000000  0.5738070000000  0.4799050000000 1.0
C      1  0.5460230000000  0.5738050000000  0.5200950000000 1.0
C      1  0.5975610000000  0.4393880000000  0.5327810000000 1.0
C      1  0.4024370000000  0.4393920000000  0.4672190000000 1.0
C      1  0.5946440000000  0.5623750000000  0.5245250000000 1.0
C      1  0.4053590000000  0.5623790000000  0.4754750000000 1.0
C      1  0.4053560000000  0.4376250000000  0.5245250000000 1.0
C      1  0.5946410000000  0.4376210000000  0.4754750000000 1.0
C      1  0.4024390000000  0.5606120000000  0.5327810000000 1.0
C      1  0.5975630000000  0.5606080000000  0.4672190000000 1.0
C      1  0.5607300000000  0.5280450000000  0.5544030000000 1.0
C      1  0.4392710000000  0.5280480000000  0.4455970000000 1.0
C      1  0.5645210000000  0.4811010000000  0.5626940000000 1.0
C      1  0.4354780000000  0.4811040000000  0.4373060000000 1.0
C      1  0.4354790000000  0.5188990000000  0.5626940000000 1.0
C      1  0.5645220000000  0.5188960000000  0.4373060000000 1.0
C      1  0.4392700000000  0.4719550000000  0.5544030000000 1.0
C      1  0.5607290000000  0.4719520000000  0.4455970000000 1.0
C      1  0.4241110000000  0.5134950000000  0.5339390000000 1.0
C      1  0.5758890000000  0.5134930000000  0.4660610000000 1.0
C      1  0.4272340000000  0.4830380000000  0.5279610000000 1.0
C      1  0.5727660000000  0.4830360000000  0.4720390000000 1.0
C      1  0.5727660000000  0.5169620000000  0.5279610000000 1.0
C      1  0.4272340000000  0.5169640000000  0.4720390000000 1.0
C      1  0.5758890000000  0.4865050000000  0.5339390000000 1.0
C      1  0.4241110000000  0.4865070000000  0.4660610000000 1.0
C      1  0.4867100000000  0.4631760000000  0.5271420000000 1.0
C      1  0.5132890000000  0.4631750000000  0.4728580000000 1.0
C      1  0.4862940000000  0.5298360000000  0.5340900000000 1.0
C      1  0.5137070000000  0.5298350000000  0.4659100000000 1.0
C      1  0.5137060000000  0.4701640000000  0.5340900000000 1.0
C      1  0.4862930000000  0.4701650000000  0.4659100000000 1.0
C      1  0.5132900000000  0.5368240000000  0.5271420000000 1.0
C      1  0.4867110000000  0.5368250000000  0.4728580000000 1.0
C      1  0.4782120000000  0.4358980000000  0.5320960000000 1.0
C      1  0.5217860000000  0.4358970000000  0.4679040000000 1.0
C      1  0.4721140000000  0.5516930000000  0.5456650000000 1.0
C      1  0.5278880000000  0.5516920000000  0.4543350000000 1.0
C      1  0.5278860000000  0.4483070000000  0.5456650000000 1.0
C      1  0.4721120000000  0.4483080000000  0.4543350000000 1.0
C      1  0.5217880000000  0.5641020000000  0.5320960000000 1.0
C      1  0.4782140000000  0.5641030000000  0.4679040000000 1.0
C      1  0.5365980000000  0.5831240000000  0.5747380000000 1.0
C      1  0.4634050000000  0.5831250000000  0.4252620000000 1.0
C      1  0.5363350000000  0.4124600000000  0.5775040000000 1.0
C      1  0.4636610000000  0.4124620000000  0.4224960000000 1.0
C      1  0.4636650000000  0.5875400000000  0.5775040000000 1.0
C      1  0.5363390000000  0.5875380000000  0.4224960000000 1.0
C      1  0.4634020000000  0.4168760000000  0.5747380000000 1.0
C      1  0.5365950000000  0.4168750000000  0.4252620000000 1.0
C      1  0.5105780000000  0.5355690000000  0.5690350000000 1.0
C      1  0.4894230000000  0.5355700000000  0.4309650000000 1.0
C      1  0.5145560000000  0.4739390000000  0.5800430000000 1.0
C      1  0.4854430000000  0.4739390000000  0.4199570000000 1.0
C      1  0.4854440000000  0.5260610000000  0.5800430000000 1.0
C      1  0.5145570000000  0.5260600000000  0.4199570000000 1.0
C      1  0.4894220000000  0.4644310000000  0.5690350000000 1.0
C      1  0.5105770000000  0.4644300000000  0.4309650000000 1.0
C      1  0.4656020000000  0.5108540000000  0.5653170000000 1.0
C      1  0.5343990000000  0.5108530000000  0.4346830000000 1.0
C      1  0.4677200000000  0.4815520000000  0.5597860000000 1.0
C      1  0.5322790000000  0.4815510000000  0.4402140000000 1.0
C      1  0.5322800000000  0.5184480000000  0.5597860000000 1.0
C      1  0.4677210000000  0.5184490000000  0.4402140000000 1.0
C      1  0.5343980000000  0.4891460000000  0.5653170000000 1.0
C      1  0.4656010000000  0.4891470000000  0.4346830000000 1.0
C      1  0.5306630000000  0.4816330000000  0.4857040000000 1.0
C      1  0.4693360000000  0.4816340000000  0.5142960000000 1.0
C      1  0.5295350000000  0.5131210000000  0.4836130000000 1.0
C      1  0.4704660000000  0.5131220000000  0.5163870000000 1.0
C      1  0.4704650000000  0.4868790000000  0.4836130000000 1.0
C      1  0.5295340000000  0.4868780000000  0.5163870000000 1.0
C      1  0.4693370000000  0.5183670000000  0.4857040000000 1.0
C      1  0.5306640000000  0.5183660000000  0.5142960000000 1.0
C      1  0.4296470000000  0.5758880000000  0.4645450000000 1.0
C      1  0.5703560000000  0.5758850000000  0.5354550000000 1.0
C      1  0.4275420000000  0.4264650000000  0.4573640000000 1.0
C      1  0.5724550000000  0.4264620000000  0.5426360000000 1.0
C      1  0.5724580000000  0.5735350000000  0.4573640000000 1.0
C      1  0.4275450000000  0.5735380000000  0.5426360000000 1.0
C      1  0.5703530000000  0.4241120000000  0.4645450000000 1.0
C      1  0.4296440000000  0.4241150000000  0.5354550000000 1.0
C      1  0.5752300000000  0.4914230000000  0.4257710000000 1.0
C      1  0.4247700000000  0.4914260000000  0.5742290000000 1.0
C      1  0.4247700000000  0.5085770000000  0.4257710000000 1.0
C      1  0.5752300000000  0.5085740000000  0.5742290000000 1.0
END
