TITL C-862501-1041-1132 0.000301276594107634 125000 -333.116194204889 0 0 58 (Cs) n - 1
REM
REM in /home/nfs/bkarasulu/CARBON/AIRSS/Generating-Clusters/TERSOFF/Higher-Symm/FIRE-HFTN
REM
REM
REM
REM
REM
REM ./C.cell (b20cbc046b6831c77cfcea5457e17084)
REM AIRSS Version 0.9.1 bugfix July 2018 build 013d7b7c2542+ Fri, 06 Jul 2018 19:26:36 +0100
REM compiler GCC version 9.2.1 20190827 (Red Hat 9.2.1-1)
REM options -cpp -mtune=generic -march=x86-64 -g -O0 -fpre-include=/usr/include/finclude/math-vector-fortran.h
REM seed 1869048585 901155062 1718766314 1134935513 -671660137 -2050308128 -2133996421 -397005877 -1700615669 -991807575 742019501 -1250719766 1824645695 893193960 558751561 -531606768 1923628435 -806329935 169505438 484184494 373764964 -1375459661 324924065 -706667456 977274161 -879091578 -1014849106 1272930918 1751092549 1629618434 -1125997296 -154825909 1421358624
REM
CELL 1.54180   50.00000   50.00000   50.00000   90.00000   90.00000   90.00000
LATT -1
SFAC C  
C      1  0.5216140000000  0.5142180000000  0.4350900000000 1.0
C      1  0.5690400000000  0.5142250000000  0.5009990000000 1.0
C      1  0.5214000000000  0.5142220000000  0.5666390000000 1.0
C      1  0.4441630000000  0.5141530000000  0.5411450000000 1.0
C      1  0.4441220000000  0.5142510000000  0.4594350000000 1.0
C      1  0.5216140000000  0.4844710000000  0.4350900000000 1.0
C      1  0.5690400000000  0.4844640000000  0.5009990000000 1.0
C      1  0.5214000000000  0.4844670000000  0.5666390000000 1.0
C      1  0.4441630000000  0.4845360000000  0.5411450000000 1.0
C      1  0.4441220000000  0.4844380000000  0.4594350000000 1.0
C      1  0.4939320000000  0.4741420000000  0.5716360000000 1.0
C      1  0.4314060000000  0.4743180000000  0.5161320000000 1.0
C      1  0.4634890000000  0.4738580000000  0.4394250000000 1.0
C      1  0.5466060000000  0.4738310000000  0.4472320000000 1.0
C      1  0.5652640000000  0.4738300000000  0.5285170000000 1.0
C      1  0.4939330000000  0.5245470000000  0.5716360000000 1.0
C      1  0.4314060000000  0.5243720000000  0.5161320000000 1.0
C      1  0.4634890000000  0.5248320000000  0.4394250000000 1.0
C      1  0.5466060000000  0.5248580000000  0.4472320000000 1.0
C      1  0.5652640000000  0.5248600000000  0.5285170000000 1.0
C      1  0.5410940000000  0.5654880000000  0.5101330000000 1.0
C      1  0.5036840000000  0.5653450000000  0.5429910000000 1.0
C      1  0.4609170000000  0.5649600000000  0.5174930000000 1.0
C      1  0.4723710000000  0.5654170000000  0.4689810000000 1.0
C      1  0.5218450000000  0.5654080000000  0.4642070000000 1.0
C      1  0.5410940000000  0.4332020000000  0.5101330000000 1.0
C      1  0.5036840000000  0.4333440000000  0.5429910000000 1.0
C      1  0.4609170000000  0.4337290000000  0.5174920000000 1.0
C      1  0.4723710000000  0.4332720000000  0.4689810000000 1.0
C      1  0.5218450000000  0.4332810000000  0.4642070000000 1.0
C      1  0.5396280000000  0.5541730000000  0.4837510000000 1.0
C      1  0.5282510000000  0.5541340000000  0.5331860000000 1.0
C      1  0.4778080000000  0.5539260000000  0.5380430000000 1.0
C      1  0.4582680000000  0.5537780000000  0.4911050000000 1.0
C      1  0.4962170000000  0.5542330000000  0.4576040000000 1.0
C      1  0.5396280000000  0.4445160000000  0.4837510000000 1.0
C      1  0.5282510000000  0.4445550000000  0.5331860000000 1.0
C      1  0.4778080000000  0.4447630000000  0.5380430000000 1.0
C      1  0.4582680000000  0.4449110000000  0.4911050000000 1.0
C      1  0.4962170000000  0.4444570000000  0.4576040000000 1.0
C      1  0.5505620000000  0.4715410000000  0.4779310000000 1.0
C      1  0.5373280000000  0.4715380000000  0.5417290000000 1.0
C      1  0.4727780000000  0.4719070000000  0.5492530000000 1.0
C      1  0.4465000000000  0.4721550000000  0.4891990000000 1.0
C      1  0.4938970000000  0.4714640000000  0.4453320000000 1.0
C      1  0.5505620000000  0.5271480000000  0.4779310000000 1.0
C      1  0.5373280000000  0.5271510000000  0.5417290000000 1.0
C      1  0.4727780000000  0.5267820000000  0.5492530000000 1.0
C      1  0.4465000000000  0.5265340000000  0.4891990000000 1.0
C      1  0.4938970000000  0.5272260000000  0.4453320000000 1.0
C      1  0.5351110000000  0.4993450000000  0.4812270000000 1.0
C      1  0.4830540000000  0.4993450000000  0.5355320000000 1.0
C      1  0.4628700000000  0.4993450000000  0.4939240000000 1.0
C      1  0.4921310000000  0.4993450000000  0.4610330000000 1.0
C      1  0.5292280000000  0.4993450000000  0.5281560000000 1.0
C      1  0.5050570000000  0.4748160000000  0.4992220000000 1.0
C      1  0.5050570000000  0.5238730000000  0.4992220000000 1.0
C      1  0.4898920000000  0.4993450000000  0.5065730000000 1.0
END
