TITL C-862506-1665-259 -20.0162217999013 125000 -822.22091285513 0 0 141 (C1) n - 1
REM
REM in /home/nfs/bkarasulu/CARBON/AIRSS/Generating-Clusters/TERSOFF/Higher-Symm/FIRE-HFTN
REM
REM
REM
REM
REM
REM ./C.cell (b20cbc046b6831c77cfcea5457e17084)
REM AIRSS Version 0.9.1 bugfix July 2018 build 013d7b7c2542+ Fri, 06 Jul 2018 19:26:36 +0100
REM compiler GCC version 9.2.1 20190827 (Red Hat 9.2.1-1)
REM options -cpp -mtune=generic -march=x86-64 -g -O0 -fpre-include=/usr/include/finclude/math-vector-fortran.h
REM seed -855975919 2054865663 1040425286 -901834813 -783886734 2114470026 -1761663893 -1387756410 2130578767 -88146646 -548336835 2055328690 -512877732 -401070666 -1937558694 298214673 -1339338865 -823984635 891888322 1954929723 -957383694 -1343277822 1258979267 539997496 -428827018 555703868 1893667911 -1762927515 -1973159841 -1667647185 -1282076314 -1506173411 672714665
REM
CELL 1.54180   50.00000   50.00000   50.00000   90.00000   90.00000   90.00000
LATT -1
SFAC C  
C      1  0.5920040000000  0.5419800000000  0.4510040000000 1.0
C      1  0.4177650000000  0.5592690000000  0.4500720000000 1.0
C      1  0.4904910000000  0.3998430000000  0.4515440000000 1.0
C      1  0.5122430000000  0.5301100000000  0.3671260000000 1.0
C      1  0.4681090000000  0.4951600000000  0.3674790000000 1.0
C      1  0.5200920000000  0.4742750000000  0.3675270000000 1.0
C      1  0.4668150000000  0.4522070000000  0.5946860000000 1.0
C      1  0.5601610000000  0.4944250000000  0.5931370000000 1.0
C      1  0.4737090000000  0.5518130000000  0.5939380000000 1.0
C      1  0.5821240000000  0.4278770000000  0.5370330000000 1.0
C      1  0.5202290000000  0.6069000000000  0.5385780000000 1.0
C      1  0.3968290000000  0.4628000000000  0.5380570000000 1.0
C      1  0.4482160000000  0.4580840000000  0.4320360000000 1.0
C      1  0.5627710000000  0.4761280000000  0.4311490000000 1.0
C      1  0.4897860000000  0.5665590000000  0.4311880000000 1.0
C      1  0.3946810000000  0.4915490000000  0.4719840000000 1.0
C      1  0.5593970000000  0.4126280000000  0.4704500000000 1.0
C      1  0.5457270000000  0.5955080000000  0.4720980000000 1.0
C      1  0.5362720000000  0.5484000000000  0.4766950000000 1.0
C      1  0.4397320000000  0.5081230000000  0.4767240000000 1.0
C      1  0.5237940000000  0.4445540000000  0.4761860000000 1.0
C      1  0.4431610000000  0.5486080000000  0.4392410000000 1.0
C      1  0.4870720000000  0.4271270000000  0.4405610000000 1.0
C      1  0.5702850000000  0.5253530000000  0.4396880000000 1.0
C      1  0.4420090000000  0.4514590000000  0.4869330000000 1.0
C      1  0.5715120000000  0.4731670000000  0.4854850000000 1.0
C      1  0.4870660000000  0.5759030000000  0.4856920000000 1.0
C      1  0.3884090000000  0.4961780000000  0.4994980000000 1.0
C      1  0.5579270000000  0.4043460000000  0.4978330000000 1.0
C      1  0.5532300000000  0.5982090000000  0.4996200000000 1.0
C      1  0.5396090000000  0.4902110000000  0.3837440000000 1.0
C      1  0.4890110000000  0.5389720000000  0.3837650000000 1.0
C      1  0.4719150000000  0.4706900000000  0.3842870000000 1.0
C      1  0.4217610000000  0.4314550000000  0.5009990000000 1.0
C      1  0.5983970000000  0.4649350000000  0.5000270000000 1.0
C      1  0.4808870000000  0.6034070000000  0.5002750000000 1.0
C      1  0.4684050000000  0.4995620000000  0.4758440000000 1.0
C      1  0.5169970000000  0.4735820000000  0.4750960000000 1.0
C      1  0.5146250000000  0.5279070000000  0.4748080000000 1.0
C      1  0.4145780000000  0.5074560000000  0.5614490000000 1.0
C      1  0.5349270000000  0.4229770000000  0.5616480000000 1.0
C      1  0.5480950000000  0.5680830000000  0.5625200000000 1.0
C      1  0.4662240000000  0.5201150000000  0.3836320000000 1.0
C      1  0.4996240000000  0.4603290000000  0.3841710000000 1.0
C      1  0.5347660000000  0.5193960000000  0.3834220000000 1.0
C      1  0.4287970000000  0.5336710000000  0.4883870000000 1.0
C      1  0.5076920000000  0.4228030000000  0.4891650000000 1.0
C      1  0.5635000000000  0.5446220000000  0.4888790000000 1.0
C      1  0.5031860000000  0.5483560000000  0.4101430000000 1.0
C      1  0.4567810000000  0.4785390000000  0.4106000000000 1.0
C      1  0.5405730000000  0.4735400000000  0.4101510000000 1.0
C      1  0.5154840000000  0.4560200000000  0.4093760000000 1.0
C      1  0.5310600000000  0.5354980000000  0.4085680000000 1.0
C      1  0.4541420000000  0.5091070000000  0.4088160000000 1.0
C      1  0.4161860000000  0.4396940000000  0.5308850000000 1.0
C      1  0.5932350000000  0.4559620000000  0.5297820000000 1.0
C      1  0.4905400000000  0.6030940000000  0.5303310000000 1.0
C      1  0.4742650000000  0.5514480000000  0.4984470000000 1.0
C      1  0.4695920000000  0.4533430000000  0.5003940000000 1.0
C      1  0.5561000000000  0.4959670000000  0.4986410000000 1.0
C      1  0.4798170000000  0.4793970000000  0.4560510000000 1.0
C      1  0.5286640000000  0.4932580000000  0.4551020000000 1.0
C      1  0.4918350000000  0.5286780000000  0.4546610000000 1.0
C      1  0.5270030000000  0.5614080000000  0.5266620000000 1.0
C      1  0.4330470000000  0.4918810000000  0.5270990000000 1.0
C      1  0.5391500000000  0.4447840000000  0.5260040000000 1.0
C      1  0.4503460000000  0.6019110000000  0.5009930000000 1.0
C      1  0.4389400000000  0.4063180000000  0.5020060000000 1.0
C      1  0.6119390000000  0.4922380000000  0.5012400000000 1.0
C      1  0.4397910000000  0.4459010000000  0.5477580000000 1.0
C      1  0.5760190000000  0.4734660000000  0.5464270000000 1.0
C      1  0.4835190000000  0.5791890000000  0.5462070000000 1.0
C      1  0.4459770000000  0.5529970000000  0.5010970000000 1.0
C      1  0.4829210000000  0.4281110000000  0.5028760000000 1.0
C      1  0.5713460000000  0.5199930000000  0.5017430000000 1.0
C      1  0.5789720000000  0.4998640000000  0.4279100000000 1.0
C      1  0.4611380000000  0.5687530000000  0.4275510000000 1.0
C      1  0.4607590000000  0.4322910000000  0.4285770000000 1.0
C      1  0.5474210000000  0.4371390000000  0.4618240000000 1.0
C      1  0.5307950000000  0.5728870000000  0.4629130000000 1.0
C      1  0.4218280000000  0.4904590000000  0.4631220000000 1.0
C      1  0.5634320000000  0.4608640000000  0.4579660000000 1.0
C      1  0.5023000000000  0.5748280000000  0.4584130000000 1.0
C      1  0.4351680000000  0.4650730000000  0.4593260000000 1.0
C      1  0.3967990000000  0.4279570000000  0.4854290000000 1.0
C      1  0.6138380000000  0.4448540000000  0.4846770000000 1.0
C      1  0.4912020000000  0.6267590000000  0.4852740000000 1.0
C      1  0.5066170000000  0.3975000000000  0.4749660000000 1.0
C      1  0.5857830000000  0.5566280000000  0.4746790000000 1.0
C      1  0.4075440000000  0.5466630000000  0.4735350000000 1.0
C      1  0.4443760000000  0.4713110000000  0.5955460000000 1.0
C      1  0.5541480000000  0.4657780000000  0.5951670000000 1.0
C      1  0.5013980000000  0.5619960000000  0.5969300000000 1.0
C      1  0.5725820000000  0.4460300000000  0.5846920000000 1.0
C      1  0.5085960000000  0.5879740000000  0.5859330000000 1.0
C      1  0.4182210000000  0.4638240000000  0.5854360000000 1.0
C      1  0.4608370000000  0.5423770000000  0.5668480000000 1.0
C      1  0.4835220000000  0.4456290000000  0.5692940000000 1.0
C      1  0.5547370000000  0.5120420000000  0.5678550000000 1.0
C      1  0.5145190000000  0.4387050000000  0.5774280000000 1.0
C      1  0.5459940000000  0.5424080000000  0.5782200000000 1.0
C      1  0.4385010000000  0.5185670000000  0.5760990000000 1.0
C      1  0.4486100000000  0.4734110000000  0.5452240000000 1.0
C      1  0.5476840000000  0.4676730000000  0.5437540000000 1.0
C      1  0.5022150000000  0.5572360000000  0.5433000000000 1.0
C      1  0.4043040000000  0.4863770000000  0.5217360000000 1.0
C      1  0.5581720000000  0.4225680000000  0.5205080000000 1.0
C      1  0.5371080000000  0.5890070000000  0.5220100000000 1.0
C      1  0.4512510000000  0.4998110000000  0.5956420000000 1.0
C      1  0.5257700000000  0.4588370000000  0.5963650000000 1.0
C      1  0.5229570000000  0.5415570000000  0.5989500000000 1.0
C      1  0.5994260000000  0.5181170000000  0.5407250000000 1.0
C      1  0.4332280000000  0.5779730000000  0.5400900000000 1.0
C      1  0.4676120000000  0.4039750000000  0.5415710000000 1.0
C      1  0.4877850000000  0.5308140000000  0.5140220000000 1.0
C      1  0.4795870000000  0.4754370000000  0.5169430000000 1.0
C      1  0.5317250000000  0.4934120000000  0.5146640000000 1.0
C      1  0.4760350000000  0.5035910000000  0.5619530000000 1.0
C      1  0.5093370000000  0.4781070000000  0.5628740000000 1.0
C      1  0.5146640000000  0.5194170000000  0.5577390000000 1.0
C      1  0.4800470000000  0.4752520000000  0.5486820000000 1.0
C      1  0.5310950000000  0.4946400000000  0.5463010000000 1.0
C      1  0.4872440000000  0.5293770000000  0.5452420000000 1.0
C      1  0.4808350000000  0.5051120000000  0.5942020000000 1.0
C      1  0.5081430000000  0.4834650000000  0.5960540000000 1.0
C      1  0.5122170000000  0.5170510000000  0.5867900000000 1.0
C      1  0.4563520000000  0.5709690000000  0.5554340000000 1.0
C      1  0.4613400000000  0.4272020000000  0.5570110000000 1.0
C      1  0.5818110000000  0.5013420000000  0.5557470000000 1.0
C      1  0.5280420000000  0.5909870000000  0.5644980000000 1.0
C      1  0.4052860000000  0.4784020000000  0.5638700000000 1.0
C      1  0.5651000000000  0.4280040000000  0.5632220000000 1.0
C      1  0.4359570000000  0.5245270000000  0.4239030000000 1.0
C      1  0.5115720000000  0.4329890000000  0.4252740000000 1.0
C      1  0.5533160000000  0.5435720000000  0.4239750000000 1.0
C      1  0.4848830000000  0.4501750000000  0.4615040000000 1.0
C      1  0.5510320000000  0.5126110000000  0.4605050000000 1.0
C      1  0.4637880000000  0.5382180000000  0.4600870000000 1.0
C      1  0.5986140000000  0.5160860000000  0.5121230000000 1.0
C      1  0.4357640000000  0.5785430000000  0.5114720000000 1.0
C      1  0.4661790000000  0.4061830000000  0.5130040000000 1.0
END
