TITL C-862133-5440-1287 1.55247122279934 125000 -1007.78762609101 0 0 187 (C1) n - 1
REM
REM in /home/nfs/bkarasulu/CARBON/AIRSS/Generating-Clusters/TERSOFF/Higher-Symm/FIRE-HFTN
REM
REM
REM
REM
REM
REM ./C.cell (b20cbc046b6831c77cfcea5457e17084)
REM AIRSS Version 0.9.1 bugfix July 2018 build 013d7b7c2542+ Fri, 06 Jul 2018 19:26:36 +0100
REM compiler GCC version 9.2.1 20190827 (Red Hat 9.2.1-1)
REM options -cpp -mtune=generic -march=x86-64 -g -O0 -fpre-include=/usr/include/finclude/math-vector-fortran.h
REM seed -117955286 -583809828 211793499 -297629343 -1890986978 -1130371741 -1738883514 -1547264557 1327952860 -673418634 772277588 -187915671 -2101751651 -1224151890 4385657 1307090354 1289729542 1116289167 -1322023608 189918870 -79957589 -1678689045 -1738050264 -158867785 -1093328343 -919915290 747745536 -1965938039 1863007923 290985046 920362102 1184233914 -943451567
REM
CELL 1.54180   50.00000   50.00000   50.00000   90.00000   90.00000   90.00000
LATT -1
SFAC C  
C      1  0.4001550000000  0.5078720000000  0.5106560000000 1.0
C      1  0.5375520000000  0.4099360000000  0.5097940000000 1.0
C      1  0.5548530000000  0.5758510000000  0.5041290000000 1.0
C      1  0.4777100000000  0.5593350000000  0.5302910000000 1.0
C      1  0.4629280000000  0.4572760000000  0.5289870000000 1.0
C      1  0.5609840000000  0.4887930000000  0.5319170000000 1.0
C      1  0.5082170000000  0.5685970000000  0.4065400000000 1.0
C      1  0.4311370000000  0.4751010000000  0.4096480000000 1.0
C      1  0.5585090000000  0.4500810000000  0.4109130000000 1.0
C      1  0.3886760000000  0.5225650000000  0.4695340000000 1.0
C      1  0.5304200000000  0.3928040000000  0.4680080000000 1.0
C      1  0.5696580000000  0.5839880000000  0.4607900000000 1.0
C      1  0.6351120000000  0.5304380000000  0.5047900000000 1.0
C      1  0.3950050000000  0.5905980000000  0.5014880000000 1.0
C      1  0.4731540000000  0.3715260000000  0.4904640000000 1.0
C      1  0.5451830000000  0.4019820000000  0.5381230000000 1.0
C      1  0.5582300000000  0.5852910000000  0.5334310000000 1.0
C      1  0.3905850000000  0.5046490000000  0.5397800000000 1.0
C      1  0.4816290000000  0.4935320000000  0.3844480000000 1.0
C      1  0.5208540000000  0.4787860000000  0.3816980000000 1.0
C      1  0.5106230000000  0.5297470000000  0.3796880000000 1.0
C      1  0.5233320000000  0.5400820000000  0.5795920000000 1.0
C      1  0.4573090000000  0.5004260000000  0.5794510000000 1.0
C      1  0.5247960000000  0.4621570000000  0.5820090000000 1.0
C      1  0.4525430000000  0.5294720000000  0.4775110000000 1.0
C      1  0.4983840000000  0.4486550000000  0.4797010000000 1.0
C      1  0.5515560000000  0.5241170000000  0.4743770000000 1.0
C      1  0.4761010000000  0.5114730000000  0.5435700000000 1.0
C      1  0.5061300000000  0.4773770000000  0.5476540000000 1.0
C      1  0.5041910000000  0.5192200000000  0.5486170000000 1.0
C      1  0.5448860000000  0.5445530000000  0.5310520000000 1.0
C      1  0.4292850000000  0.5201700000000  0.5446760000000 1.0
C      1  0.5155690000000  0.4310860000000  0.5444020000000 1.0
C      1  0.5952070000000  0.4442310000000  0.4648150000000 1.0
C      1  0.4924360000000  0.6108300000000  0.4674650000000 1.0
C      1  0.4058060000000  0.4424360000000  0.4676940000000 1.0
C      1  0.4406860000000  0.4933220000000  0.4531740000000 1.0
C      1  0.5490000000000  0.4469220000000  0.4588460000000 1.0
C      1  0.5091350000000  0.5747660000000  0.4540390000000 1.0
C      1  0.5268200000000  0.5065790000000  0.5854120000000 1.0
C      1  0.4830810000000  0.5217280000000  0.5847930000000 1.0
C      1  0.4932560000000  0.4747280000000  0.5874910000000 1.0
C      1  0.5954590000000  0.5582720000000  0.5203250000000 1.0
C      1  0.3871360000000  0.5503930000000  0.5320080000000 1.0
C      1  0.5081500000000  0.3809610000000  0.5266060000000 1.0
C      1  0.5150020000000  0.4003380000000  0.5508130000000 1.0
C      1  0.5721400000000  0.5572600000000  0.5396970000000 1.0
C      1  0.4019140000000  0.5328110000000  0.5532590000000 1.0
C      1  0.6028960000000  0.4607740000000  0.4887980000000 1.0
C      1  0.4742960000000  0.6089380000000  0.4914800000000 1.0
C      1  0.4191310000000  0.4283690000000  0.4907110000000 1.0
C      1  0.5775950000000  0.4311300000000  0.5088840000000 1.0
C      1  0.5144150000000  0.6036500000000  0.5104320000000 1.0
C      1  0.4033280000000  0.4633250000000  0.5117570000000 1.0
C      1  0.5169170000000  0.5150340000000  0.4361780000000 1.0
C      1  0.5091320000000  0.4889610000000  0.4424490000000 1.0
C      1  0.5463500000000  0.5207230000000  0.4330440000000 1.0
C      1  0.4637320000000  0.5823120000000  0.4912640000000 1.0
C      1  0.4470010000000  0.4337060000000  0.4888810000000 1.0
C      1  0.5875170000000  0.4849950000000  0.4902530000000 1.0
C      1  0.3841110000000  0.4986810000000  0.4873920000000 1.0
C      1  0.5523230000000  0.4004460000000  0.4864670000000 1.0
C      1  0.5514390000000  0.5943870000000  0.4821030000000 1.0
C      1  0.5461910000000  0.4764000000000  0.4574730000000 1.0
C      1  0.4925010000000  0.5498960000000  0.4533480000000 1.0
C      1  0.4658310000000  0.4780790000000  0.4551970000000 1.0
C      1  0.6044670000000  0.4442350000000  0.5146180000000 1.0
C      1  0.4879230000000  0.6165830000000  0.5174550000000 1.0
C      1  0.4066120000000  0.4334180000000  0.5180270000000 1.0
C      1  0.5318970000000  0.5182420000000  0.5368070000000 1.0
C      1  0.4547080000000  0.5308420000000  0.5506100000000 1.0
C      1  0.4960950000000  0.4501470000000  0.5535940000000 1.0
C      1  0.4147950000000  0.4352370000000  0.4378960000000 1.0
C      1  0.6019250000000  0.4548510000000  0.4356390000000 1.0
C      1  0.4805430000000  0.6017510000000  0.4392670000000 1.0
C      1  0.5548470000000  0.4047440000000  0.4287750000000 1.0
C      1  0.5425970000000  0.6025120000000  0.4245200000000 1.0
C      1  0.4039030000000  0.5131680000000  0.4238770000000 1.0
C      1  0.5776600000000  0.4175290000000  0.4784490000000 1.0
C      1  0.5240730000000  0.6095630000000  0.4794700000000 1.0
C      1  0.3892450000000  0.4681720000000  0.4814180000000 1.0
C      1  0.6179840000000  0.5407790000000  0.5253440000000 1.0
C      1  0.3984760000000  0.5763240000000  0.5261290000000 1.0
C      1  0.4810190000000  0.3806560000000  0.5165250000000 1.0
C      1  0.4861830000000  0.4471310000000  0.6181390000000 1.0
C      1  0.5554580000000  0.5133790000000  0.6151940000000 1.0
C      1  0.4628230000000  0.5407850000000  0.6161010000000 1.0
C      1  0.4235200000000  0.4929040000000  0.4299520000000 1.0
C      1  0.5557540000000  0.4331690000000  0.4335800000000 1.0
C      1  0.5184830000000  0.5873500000000  0.4284500000000 1.0
C      1  0.5990420000000  0.4747150000000  0.5596870000000 1.0
C      1  0.4667480000000  0.5950680000000  0.5736980000000 1.0
C      1  0.4358310000000  0.4247270000000  0.5737220000000 1.0
C      1  0.4870500000000  0.4267120000000  0.4598200000000 1.0
C      1  0.5817020000000  0.5242340000000  0.4573820000000 1.0
C      1  0.4338190000000  0.5528870000000  0.4637880000000 1.0
C      1  0.4370270000000  0.4470690000000  0.4188180000000 1.0
C      1  0.5828260000000  0.4686520000000  0.4149740000000 1.0
C      1  0.4789470000000  0.5746940000000  0.4222820000000 1.0
C      1  0.5078080000000  0.4504310000000  0.3882380000000 1.0
C      1  0.5388770000000  0.5251930000000  0.3904590000000 1.0
C      1  0.4596310000000  0.5156870000000  0.3871450000000 1.0
C      1  0.5836050000000  0.5000980000000  0.4086630000000 1.0
C      1  0.4527540000000  0.5597660000000  0.4159390000000 1.0
C      1  0.4643220000000  0.4324520000000  0.4127390000000 1.0
C      1  0.4955350000000  0.5837510000000  0.5885570000000 1.0
C      1  0.4317420000000  0.4545960000000  0.5896680000000 1.0
C      1  0.5777220000000  0.4649370000000  0.5839240000000 1.0
C      1  0.4115480000000  0.5380260000000  0.4802660000000 1.0
C      1  0.5060270000000  0.4075100000000  0.4763690000000 1.0
C      1  0.5816900000000  0.5559350000000  0.4678710000000 1.0
C      1  0.5589510000000  0.4827100000000  0.5018470000000 1.0
C      1  0.4831340000000  0.5598420000000  0.5000990000000 1.0
C      1  0.4569990000000  0.4611370000000  0.4999340000000 1.0
C      1  0.4857170000000  0.4718540000000  0.4036240000000 1.0
C      1  0.5322190000000  0.4967840000000  0.4015930000000 1.0
C      1  0.4884220000000  0.5323670000000  0.3988840000000 1.0
C      1  0.5022110000000  0.5502260000000  0.5518180000000 1.0
C      1  0.4613610000000  0.4831200000000  0.5481060000000 1.0
C      1  0.5379650000000  0.4745330000000  0.5505910000000 1.0
C      1  0.4383320000000  0.5774850000000  0.4786650000000 1.0
C      1  0.4622540000000  0.4167980000000  0.4711290000000 1.0
C      1  0.5981360000000  0.5088140000000  0.4772450000000 1.0
C      1  0.4173720000000  0.5598870000000  0.5695940000000 1.0
C      1  0.4834230000000  0.3995640000000  0.5602290000000 1.0
C      1  0.5831380000000  0.5418860000000  0.5647190000000 1.0
C      1  0.5225020000000  0.5632430000000  0.5331820000000 1.0
C      1  0.4324620000000  0.4915790000000  0.5368860000000 1.0
C      1  0.5406330000000  0.4459570000000  0.5368940000000 1.0
C      1  0.4435300000000  0.5237700000000  0.5986880000000 1.0
C      1  0.5116780000000  0.4399850000000  0.6021950000000 1.0
C      1  0.5497110000000  0.5391030000000  0.5988730000000 1.0
C      1  0.4161330000000  0.5954470000000  0.4828300000000 1.0
C      1  0.4588910000000  0.3881140000000  0.4720160000000 1.0
C      1  0.6257490000000  0.5163710000000  0.4817120000000 1.0
C      1  0.5610100000000  0.4969650000000  0.5863160000000 1.0
C      1  0.4733110000000  0.5562030000000  0.5881940000000 1.0
C      1  0.4675760000000  0.4496030000000  0.5899540000000 1.0
C      1  0.5889810000000  0.4974790000000  0.5445830000000 1.0
C      1  0.4529820000000  0.5735990000000  0.5403520000000 1.0
C      1  0.4617860000000  0.4297480000000  0.5406280000000 1.0
C      1  0.4278410000000  0.5224100000000  0.5028340000000 1.0
C      1  0.5110600000000  0.4253490000000  0.5030700000000 1.0
C      1  0.5641940000000  0.5485450000000  0.4940710000000 1.0
C      1  0.4835760000000  0.5337470000000  0.4807530000000 1.0
C      1  0.4804080000000  0.4739800000000  0.4826530000000 1.0
C      1  0.5361210000000  0.4974390000000  0.4822320000000 1.0
C      1  0.4490800000000  0.5447780000000  0.3910970000000 1.0
C      1  0.4795970000000  0.4340070000000  0.3865900000000 1.0
C      1  0.5680040000000  0.5126560000000  0.3864150000000 1.0
C      1  0.5153490000000  0.5632070000000  0.5974170000000 1.0
C      1  0.4418170000000  0.4818180000000  0.5978580000000 1.0
C      1  0.5509210000000  0.4574530000000  0.5963390000000 1.0
C      1  0.5348220000000  0.5511670000000  0.4065110000000 1.0
C      1  0.4398780000000  0.4892730000000  0.3857880000000 1.0
C      1  0.5396080000000  0.4419700000000  0.3891850000000 1.0
C      1  0.4635180000000  0.3973340000000  0.5333150000000 1.0
C      1  0.6088750000000  0.5253130000000  0.5485430000000 1.0
C      1  0.4204610000000  0.5809040000000  0.5445110000000 1.0
C      1  0.5842350000000  0.4356840000000  0.5634250000000 1.0
C      1  0.5065310000000  0.6020670000000  0.5623050000000 1.0
C      1  0.4083500000000  0.4549470000000  0.5641650000000 1.0
C      1  0.5366220000000  0.3875070000000  0.4412020000000 1.0
C      1  0.5677900000000  0.5944440000000  0.4345790000000 1.0
C      1  0.3839300000000  0.5217290000000  0.4417620000000 1.0
C      1  0.4896860000000  0.5184170000000  0.6175520000000 1.0
C      1  0.4920010000000  0.4824340000000  0.6201140000000 1.0
C      1  0.5220150000000  0.5024300000000  0.6183080000000 1.0
C      1  0.4881500000000  0.4310570000000  0.4316160000000 1.0
C      1  0.5928470000000  0.5195500000000  0.4292380000000 1.0
C      1  0.4308360000000  0.5566390000000  0.4351780000000 1.0
C      1  0.5648180000000  0.4261940000000  0.5415460000000 1.0
C      1  0.5287240000000  0.5935660000000  0.5414010000000 1.0
C      1  0.4052720000000  0.4768560000000  0.5433210000000 1.0
C      1  0.5530600000000  0.4523380000000  0.5085710000000 1.0
C      1  0.5103290000000  0.5719500000000  0.5070400000000 1.0
C      1  0.4319880000000  0.4784980000000  0.5079530000000 1.0
C      1  0.5491660000000  0.4889360000000  0.4297730000000 1.0
C      1  0.4966770000000  0.5333010000000  0.4287710000000 1.0
C      1  0.4859190000000  0.4768440000000  0.4329890000000 1.0
C      1  0.4496970000000  0.5675340000000  0.5714560000000 1.0
C      1  0.4672130000000  0.4250260000000  0.5708570000000 1.0
C      1  0.5720320000000  0.5130920000000  0.5644270000000 1.0
C      1  0.4797840000000  0.6135330000000  0.5480660000000 1.0
C      1  0.4130700000000  0.4266630000000  0.5488850000000 1.0
C      1  0.6079510000000  0.4491190000000  0.5445830000000 1.0
C      1  0.5005450000000  0.5023210000000  0.4862050000000 1.0
END
