TITL C-862502-1143-941 0.00173965838751804 125000 -279.03426940041 0 0 52 (C1) n - 1
REM
REM in /home/nfs/bkarasulu/CARBON/AIRSS/Generating-Clusters/TERSOFF/Higher-Symm/FIRE-HFTN
REM
REM
REM
REM
REM
REM ./C.cell (b20cbc046b6831c77cfcea5457e17084)
REM AIRSS Version 0.9.1 bugfix July 2018 build 013d7b7c2542+ Fri, 06 Jul 2018 19:26:36 +0100
REM compiler GCC version 9.2.1 20190827 (Red Hat 9.2.1-1)
REM options -cpp -mtune=generic -march=x86-64 -g -O0 -fpre-include=/usr/include/finclude/math-vector-fortran.h
REM seed 334209529 1362094329 -201090915 -2057658777 748998226 230946084 -1607377791 968290988 -2107124248 1882595141 453912961 -153966154 -1984502430 -402053469 -772746707 1877882632 1816272183 457527556 -904328654 -1599770198 911570022 530206732 1990889068 -755503072 1518818596 679920292 1337851693 -1834710814 -663631413 -1796458753 -894188035 -1064190934 -963318414
REM
CELL 1.54180   50.00000   50.00000   50.00000   90.00000   90.00000   90.00000
LATT -1
SFAC C  
C      1  0.5246480000000  0.4534540000000  0.5213100000000 1.0
C      1  0.5026940000000  0.5720920000000  0.4695850000000 1.0
C      1  0.4712940000000  0.4846900000000  0.4974930000000 1.0
C      1  0.5491700000000  0.5421150000000  0.4690610000000 1.0
C      1  0.4384950000000  0.5327040000000  0.5017280000000 1.0
C      1  0.5105130000000  0.4871870000000  0.5419420000000 1.0
C      1  0.4966130000000  0.4752750000000  0.4379850000000 1.0
C      1  0.4755210000000  0.5530720000000  0.5360530000000 1.0
C      1  0.4631900000000  0.5058690000000  0.5391170000000 1.0
C      1  0.4814730000000  0.5659730000000  0.4917800000000 1.0
C      1  0.5478810000000  0.4759150000000  0.4479960000000 1.0
C      1  0.5411320000000  0.5248490000000  0.5169100000000 1.0
C      1  0.4869750000000  0.5346810000000  0.4949470000000 1.0
C      1  0.5469180000000  0.4938580000000  0.5067310000000 1.0
C      1  0.4514040000000  0.5338360000000  0.5293990000000 1.0
C      1  0.5040630000000  0.4568020000000  0.5478870000000 1.0
C      1  0.4425710000000  0.5104380000000  0.4808950000000 1.0
C      1  0.5352120000000  0.5218330000000  0.4523600000000 1.0
C      1  0.5276440000000  0.5245330000000  0.5504280000000 1.0
C      1  0.5018850000000  0.5263610000000  0.5685510000000 1.0
C      1  0.5453230000000  0.5878550000000  0.4932500000000 1.0
C      1  0.4884790000000  0.5250980000000  0.4659490000000 1.0
C      1  0.4529960000000  0.4635300000000  0.4610270000000 1.0
C      1  0.5696530000000  0.4755250000000  0.4674510000000 1.0
C      1  0.5135120000000  0.5088940000000  0.4668820000000 1.0
C      1  0.5120090000000  0.4541010000000  0.4875760000000 1.0
C      1  0.4427220000000  0.4786940000000  0.4874150000000 1.0
C      1  0.5717880000000  0.4954390000000  0.4891230000000 1.0
C      1  0.5649840000000  0.5282990000000  0.4910140000000 1.0
C      1  0.4558570000000  0.4739670000000  0.5374110000000 1.0
C      1  0.4799390000000  0.5093100000000  0.5111300000000 1.0
C      1  0.4862640000000  0.4289890000000  0.4812320000000 1.0
C      1  0.4644140000000  0.4365930000000  0.4621150000000 1.0
C      1  0.4864900000000  0.4624750000000  0.5062630000000 1.0
C      1  0.5058450000000  0.5464900000000  0.5319020000000 1.0
C      1  0.5200440000000  0.4891270000000  0.4909720000000 1.0
C      1  0.5478290000000  0.4737910000000  0.5283370000000 1.0
C      1  0.4746670000000  0.4553430000000  0.5507200000000 1.0
C      1  0.4778710000000  0.5100340000000  0.5651690000000 1.0
C      1  0.5179640000000  0.5437480000000  0.5032280000000 1.0
C      1  0.5259710000000  0.4634160000000  0.5728220000000 1.0
C      1  0.4149310000000  0.4483660000000  0.5192590000000 1.0
C      1  0.4647440000000  0.5103370000000  0.4593050000000 1.0
C      1  0.5392610000000  0.4909050000000  0.5564230000000 1.0
C      1  0.4679230000000  0.4375770000000  0.5100560000000 1.0
C      1  0.5060180000000  0.4986890000000  0.5164630000000 1.0
C      1  0.4696090000000  0.4834790000000  0.4475280000000 1.0
C      1  0.4939060000000  0.5505030000000  0.4509880000000 1.0
C      1  0.4412050000000  0.4601010000000  0.5134200000000 1.0
C      1  0.5194210000000  0.4663520000000  0.4556990000000 1.0
C      1  0.5485260000000  0.5025280000000  0.4354110000000 1.0
C      1  0.5305370000000  0.5649090000000  0.4823010000000 1.0
END
