TITL C-862127-1500-486 22.4383511721227 125000 -801.186210998921 0 0 143 (C1) n - 1
REM
REM in /home/nfs/bkarasulu/CARBON/AIRSS/Generating-Clusters/TERSOFF/Higher-Symm/FIRE-HFTN
REM
REM
REM
REM
REM
REM ./C.cell (b20cbc046b6831c77cfcea5457e17084)
REM AIRSS Version 0.9.1 bugfix July 2018 build 013d7b7c2542+ Fri, 06 Jul 2018 19:26:36 +0100
REM compiler GCC version 9.2.1 20190827 (Red Hat 9.2.1-1)
REM options -cpp -mtune=generic -march=x86-64 -g -O0 -fpre-include=/usr/include/finclude/math-vector-fortran.h
REM seed 1479359871 -114087100 -48292308 1444192299 1462452479 -1905024403 -73172442 -928275263 1173781958 1895776503 -2126613941 -1933075893 -1320771433 1726382435 -588471985 -793230547 452883239 -1353804999 1248367228 2072430285 556965367 -2134697541 -1839813301 542089802 1772833495 -1357070345 -348815022 -858016561 209234623 1508149905 -581779951 1806336323 -1142335833
REM
CELL 1.54180   50.00000   50.00000   50.00000   90.00000   90.00000   90.00000
LATT -1
SFAC C  
C      1  0.5891140000000  0.4710230000000  0.5811910000000 1.0
C      1  0.5235690000000  0.4748010000000  0.3831120000000 1.0
C      1  0.3868470000000  0.4722620000000  0.5383630000000 1.0
C      1  0.5891740000000  0.5240210000000  0.5795050000000 1.0
C      1  0.5236820000000  0.5279030000000  0.3825970000000 1.0
C      1  0.3862550000000  0.5254300000000  0.5371780000000 1.0
C      1  0.5432880000000  0.5534530000000  0.4735080000000 1.0
C      1  0.4593730000000  0.5477790000000  0.4758520000000 1.0
C      1  0.5012840000000  0.5499680000000  0.5457570000000 1.0
C      1  0.5414190000000  0.4487650000000  0.4765160000000 1.0
C      1  0.4578050000000  0.4458370000000  0.4775620000000 1.0
C      1  0.5028110000000  0.4511570000000  0.5486220000000 1.0
C      1  0.5215450000000  0.5644750000000  0.4606690000000 1.0
C      1  0.4551260000000  0.5582240000000  0.5012830000000 1.0
C      1  0.5254820000000  0.5575180000000  0.5346540000000 1.0
C      1  0.5191370000000  0.4405970000000  0.4619490000000 1.0
C      1  0.4560660000000  0.4368490000000  0.5036200000000 1.0
C      1  0.5257790000000  0.4385540000000  0.5390000000000 1.0
C      1  0.4174690000000  0.4390670000000  0.4680530000000 1.0
C      1  0.5127290000000  0.4387470000000  0.5913770000000 1.0
C      1  0.5686460000000  0.4415180000000  0.4453690000000 1.0
C      1  0.4165040000000  0.5575740000000  0.4656440000000 1.0
C      1  0.5126590000000  0.5575750000000  0.5865080000000 1.0
C      1  0.5706550000000  0.5608320000000  0.4425600000000 1.0
C      1  0.5434280000000  0.4681340000000  0.5736100000000 1.0
C      1  0.5383790000000  0.4721130000000  0.4282050000000 1.0
C      1  0.4162100000000  0.4693600000000  0.5021860000000 1.0
C      1  0.5431070000000  0.5267280000000  0.5710510000000 1.0
C      1  0.5390850000000  0.5309100000000  0.4272590000000 1.0
C      1  0.4159110000000  0.5279820000000  0.5009650000000 1.0
C      1  0.5627170000000  0.4864580000000  0.4338400000000 1.0
C      1  0.4081380000000  0.4835150000000  0.4781460000000 1.0
C      1  0.5269270000000  0.4833890000000  0.5919790000000 1.0
C      1  0.5632180000000  0.5159020000000  0.4329010000000 1.0
C      1  0.4076980000000  0.5130810000000  0.4776350000000 1.0
C      1  0.5263890000000  0.5129510000000  0.5902320000000 1.0
C      1  0.4957370000000  0.5153220000000  0.5142640000000 1.0
C      1  0.5246340000000  0.5091770000000  0.4841440000000 1.0
C      1  0.4943780000000  0.5151660000000  0.4825180000000 1.0
C      1  0.4944780000000  0.4841790000000  0.5137420000000 1.0
C      1  0.5219760000000  0.4852470000000  0.5013090000000 1.0
C      1  0.4787970000000  0.4881130000000  0.4871940000000 1.0
C      1  0.5312540000000  0.5945410000000  0.5127590000000 1.0
C      1  0.4954580000000  0.5971210000000  0.4642450000000 1.0
C      1  0.4707860000000  0.5937270000000  0.5179460000000 1.0
C      1  0.5308520000000  0.4035430000000  0.5163770000000 1.0
C      1  0.4967800000000  0.4042100000000  0.4669060000000 1.0
C      1  0.4725290000000  0.4032540000000  0.5226360000000 1.0
C      1  0.5226920000000  0.4148860000000  0.4461860000000 1.0
C      1  0.4402490000000  0.4115550000000  0.5089270000000 1.0
C      1  0.5340620000000  0.4118480000000  0.5508320000000 1.0
C      1  0.5244890000000  0.5896190000000  0.4440200000000 1.0
C      1  0.4403470000000  0.5845550000000  0.5039700000000 1.0
C      1  0.5371970000000  0.5832690000000  0.5455520000000 1.0
C      1  0.5381900000000  0.4632050000000  0.5000800000000 1.0
C      1  0.4764710000000  0.4656510000000  0.4704310000000 1.0
C      1  0.4854190000000  0.4646630000000  0.5314310000000 1.0
C      1  0.5402710000000  0.5320540000000  0.4919700000000 1.0
C      1  0.4840350000000  0.5367150000000  0.4690860000000 1.0
C      1  0.4841990000000  0.5338310000000  0.5310580000000 1.0
C      1  0.4750240000000  0.4879840000000  0.4349470000000 1.0
C      1  0.4555100000000  0.4847900000000  0.5528460000000 1.0
C      1  0.5731800000000  0.4808690000000  0.5149910000000 1.0
C      1  0.4750390000000  0.5158220000000  0.4338980000000 1.0
C      1  0.4550420000000  0.5126790000000  0.5524960000000 1.0
C      1  0.5706310000000  0.5086470000000  0.5131430000000 1.0
C      1  0.4860920000000  0.4387090000000  0.4337280000000 1.0
C      1  0.4510990000000  0.4357920000000  0.5484320000000 1.0
C      1  0.5674310000000  0.4329340000000  0.5215630000000 1.0
C      1  0.4852880000000  0.5665150000000  0.4322240000000 1.0
C      1  0.4493560000000  0.5620570000000  0.5455700000000 1.0
C      1  0.5652750000000  0.5592130000000  0.5201070000000 1.0
C      1  0.5611200000000  0.4112920000000  0.5009850000000 1.0
C      1  0.4723770000000  0.4157800000000  0.4470000000000 1.0
C      1  0.4710450000000  0.4139020000000  0.5565300000000 1.0
C      1  0.5609940000000  0.5824520000000  0.5020580000000 1.0
C      1  0.4663670000000  0.5864200000000  0.4459780000000 1.0
C      1  0.4685970000000  0.5848840000000  0.5508530000000 1.0
C      1  0.4057530000000  0.4487510000000  0.5372240000000 1.0
C      1  0.5788540000000  0.4467470000000  0.5665730000000 1.0
C      1  0.5152110000000  0.4513570000000  0.4000220000000 1.0
C      1  0.4045640000000  0.5493190000000  0.5352810000000 1.0
C      1  0.5788960000000  0.5472970000000  0.5634520000000 1.0
C      1  0.5156140000000  0.5516160000000  0.3992940000000 1.0
C      1  0.4655560000000  0.5307180000000  0.4113170000000 1.0
C      1  0.4407210000000  0.5283430000000  0.5717850000000 1.0
C      1  0.5929770000000  0.5263740000000  0.5147100000000 1.0
C      1  0.4658320000000  0.4718120000000  0.4132600000000 1.0
C      1  0.4420570000000  0.4695150000000  0.5728330000000 1.0
C      1  0.5986160000000  0.4667900000000  0.5178360000000 1.0
C      1  0.5150240000000  0.4874120000000  0.4222510000000 1.0
C      1  0.4244630000000  0.4848940000000  0.5246000000000 1.0
C      1  0.5588590000000  0.4825170000000  0.5544230000000 1.0
C      1  0.5152890000000  0.5159920000000  0.4219880000000 1.0
C      1  0.4242550000000  0.5133630000000  0.5239760000000 1.0
C      1  0.5589660000000  0.5109940000000  0.5533950000000 1.0
C      1  0.6151330000000  0.4813650000000  0.4950810000000 1.0
C      1  0.4386380000000  0.4821270000000  0.4048050000000 1.0
C      1  0.4479750000000  0.4813650000000  0.6002320000000 1.0
C      1  0.6135400000000  0.5173370000000  0.4944140000000 1.0
C      1  0.4383880000000  0.5181650000000  0.4038780000000 1.0
C      1  0.4473080000000  0.5173890000000  0.5994370000000 1.0
C      1  0.4605860000000  0.4521740000000  0.5268890000000 1.0
C      1  0.5454190000000  0.4505820000000  0.5236300000000 1.0
C      1  0.4976100000000  0.4574850000000  0.4528660000000 1.0
C      1  0.4589580000000  0.5444200000000  0.5253020000000 1.0
C      1  0.5433710000000  0.5398280000000  0.5198490000000 1.0
C      1  0.4995680000000  0.5505280000000  0.4510860000000 1.0
C      1  0.5836670000000  0.4700760000000  0.4457850000000 1.0
C      1  0.4089380000000  0.4669670000000  0.4542610000000 1.0
C      1  0.5060460000000  0.4675570000000  0.6048770000000 1.0
C      1  0.5850100000000  0.5319320000000  0.4432030000000 1.0
C      1  0.4076440000000  0.5290330000000  0.4531330000000 1.0
C      1  0.5048780000000  0.5296000000000  0.6008530000000 1.0
C      1  0.4452710000000  0.5648240000000  0.4565670000000 1.0
C      1  0.4910620000000  0.5687430000000  0.5664960000000 1.0
C      1  0.5674870000000  0.5724150000000  0.4726800000000 1.0
C      1  0.4450100000000  0.4270020000000  0.4574730000000 1.0
C      1  0.4918520000000  0.4339790000000  0.5694430000000 1.0
C      1  0.5639920000000  0.4287280000000  0.4740140000000 1.0
C      1  0.4842450000000  0.4473380000000  0.4056160000000 1.0
C      1  0.4259500000000  0.4445470000000  0.5615970000000 1.0
C      1  0.5911430000000  0.4412340000000  0.5370930000000 1.0
C      1  0.4840620000000  0.5556840000000  0.4049300000000 1.0
C      1  0.4249430000000  0.5535590000000  0.5597300000000 1.0
C      1  0.5899020000000  0.5512460000000  0.5340580000000 1.0
C      1  0.4139880000000  0.5138920000000  0.4267870000000 1.0
C      1  0.4790300000000  0.5147550000000  0.6098310000000 1.0
C      1  0.6058140000000  0.5172900000000  0.4615030000000 1.0
C      1  0.4135420000000  0.4816720000000  0.4270270000000 1.0
C      1  0.4796540000000  0.4825790000000  0.6119680000000 1.0
C      1  0.6048550000000  0.4850230000000  0.4631150000000 1.0
C      1  0.5400680000000  0.5642210000000  0.4230660000000 1.0
C      1  0.4132510000000  0.5606550000000  0.5018200000000 1.0
C      1  0.5456530000000  0.5594310000000  0.5714080000000 1.0
C      1  0.5387400000000  0.4393740000000  0.4248740000000 1.0
C      1  0.4141380000000  0.4362970000000  0.5041650000000 1.0
C      1  0.5455620000000  0.4353720000000  0.5758500000000 1.0
C      1  0.5100290000000  0.5013870000000  0.3829620000000 1.0
C      1  0.5956830000000  0.4971390000000  0.5683530000000 1.0
C      1  0.3936890000000  0.4991740000000  0.5493560000000 1.0
C      1  0.5002940000000  0.4035420000000  0.5023190000000 1.0
C      1  0.4988370000000  0.5952810000000  0.4983040000000 1.0
END
