TITL C-862133-5440-189 1.94063305283094e-06 125000 -287.91281868071 0 0 53 (C5) n - 1
REM
REM in /home/nfs/bkarasulu/CARBON/AIRSS/Generating-Clusters/TERSOFF/Higher-Symm/FIRE-HFTN
REM
REM
REM
REM
REM
REM ./C.cell (b20cbc046b6831c77cfcea5457e17084)
REM AIRSS Version 0.9.1 bugfix July 2018 build 013d7b7c2542+ Fri, 06 Jul 2018 19:26:36 +0100
REM compiler GCC version 9.2.1 20190827 (Red Hat 9.2.1-1)
REM options -cpp -mtune=generic -march=x86-64 -g -O0 -fpre-include=/usr/include/finclude/math-vector-fortran.h
REM seed 2137175468 543896899 -2105800811 619869239 -582171456 1137635789 1251964171 440939144 -2064158397 1691515506 1225339737 56395004 1464473132 -1351591289 -1802443463 -1930373540 -1725521481 -484668870 1467457771 -2091720543 -1903915454 1759998654 798515756 -2083814392 680174117 154080760 -515725618 -1915065861 44570216 573128430 215919733 -918806156 -1860430120
REM
CELL 1.54180   50.00000   50.00000   50.00000   90.00000   90.00000   90.00000
LATT -1
SFAC C  
C      1  0.5351730000000  0.5374370000000  0.5036850000000 1.0
C      1  0.4742430000000  0.5456460000000  0.5036850000000 1.0
C      1  0.4476080000000  0.4902350000000  0.5036850000000 1.0
C      1  0.4920760000000  0.4477800000000  0.5036850000000 1.0
C      1  0.5461940000000  0.4769520000000  0.5036850000000 1.0
C      1  0.5328050000000  0.5109710000000  0.4398880000000 1.0
C      1  0.4986820000000  0.5352150000000  0.4398880000000 1.0
C      1  0.4650800000000  0.5102540000000  0.4398880000000 1.0
C      1  0.4784360000000  0.4705830000000  0.4398880000000 1.0
C      1  0.5202920000000  0.4710260000000  0.4398880000000 1.0
C      1  0.5306700000000  0.4832560000000  0.5515180000000 1.0
C      1  0.5243810000000  0.5246200000000  0.5515180000000 1.0
C      1  0.4830980000000  0.5314210000000  0.5515180000000 1.0
C      1  0.4638720000000  0.4942600000000  0.5515180000000 1.0
C      1  0.4932740000000  0.4644920000000  0.5515180000000 1.0
C      1  0.5530870000000  0.5078710000000  0.5512870000000 1.0
C      1  0.5078980000000  0.5535460000000  0.5512870000000 1.0
C      1  0.4504940000000  0.5246830000000  0.5512870000000 1.0
C      1  0.4602050000000  0.4611700000000  0.5512870000000 1.0
C      1  0.5236110000000  0.4507790000000  0.5512870000000 1.0
C      1  0.4452510000000  0.5310410000000  0.4756090000000 1.0
C      1  0.4525390000000  0.4581480000000  0.4756090000000 1.0
C      1  0.5241160000000  0.4425540000000  0.4756090000000 1.0
C      1  0.5610650000000  0.5058090000000  0.4756090000000 1.0
C      1  0.5123240000000  0.5604970000000  0.4756090000000 1.0
C      1  0.4870150000000  0.5240920000000  0.5201460000000 1.0
C      1  0.4720530000000  0.4957200000000  0.5201460000000 1.0
C      1  0.4944130000000  0.4727240000000  0.5201460000000 1.0
C      1  0.5231930000000  0.4868830000000  0.5201460000000 1.0
C      1  0.5186210000000  0.5186300000000  0.5201460000000 1.0
C      1  0.5452150000000  0.5298100000000  0.4779400000000 1.0
C      1  0.4846000000000  0.5528390000000  0.4779400000000 1.0
C      1  0.4439670000000  0.5023080000000  0.4779400000000 1.0
C      1  0.4794690000000  0.4480480000000  0.4779400000000 1.0
C      1  0.5420440000000  0.4650450000000  0.4779400000000 1.0
C      1  0.5723220000000  0.5100070000000  0.5288440000000 1.0
C      1  0.5118100000000  0.5725000000000  0.5288440000000 1.0
C      1  0.4336770000000  0.5342610000000  0.5288440000000 1.0
C      1  0.4459000000000  0.4481360000000  0.5288440000000 1.0
C      1  0.5315870000000  0.4331460000000  0.5288440000000 1.0
C      1  0.4447850000000  0.5450740000000  0.5036170000000 1.0
C      1  0.4390480000000  0.4620420000000  0.5036170000000 1.0
C      1  0.5162440000000  0.4309270000000  0.5036170000000 1.0
C      1  0.5696910000000  0.4947300000000  0.5036170000000 1.0
C      1  0.5255270000000  0.5652760000000  0.5036170000000 1.0
C      1  0.5484140000000  0.4841420000000  0.4538300000000 1.0
C      1  0.5290210000000  0.5417700000000  0.4538300000000 1.0
C      1  0.4682210000000  0.5411340000000  0.4538300000000 1.0
C      1  0.4500380000000  0.4831130000000  0.4538300000000 1.0
C      1  0.4996000000000  0.4478900000000  0.4538300000000 1.0
C      1  0.4990590000000  0.4996100000000  0.4328330000000 1.0
C      1  0.4990590000000  0.4996100000000  0.5605010000000 1.0
C      1  0.4990590000000  0.4996100000000  0.4659940000000 1.0
END
