TITL C-862133-5440-866 118.543387807388 125000 -1157.53570334736 0 0 194 (C3) n - 1
REM
REM in /home/nfs/bkarasulu/CARBON/AIRSS/Generating-Clusters/TERSOFF/Higher-Symm/FIRE-HFTN
REM
REM
REM
REM
REM
REM ./C.cell (b20cbc046b6831c77cfcea5457e17084)
REM AIRSS Version 0.9.1 bugfix July 2018 build 013d7b7c2542+ Fri, 06 Jul 2018 19:26:36 +0100
REM compiler GCC version 9.2.1 20190827 (Red Hat 9.2.1-1)
REM options -cpp -mtune=generic -march=x86-64 -g -O0 -fpre-include=/usr/include/finclude/math-vector-fortran.h
REM seed 942770559 -1139686996 1910120496 829409269 1727796260 -1599550315 279857652 -587247348 1230917293 1680376248 558901886 1318977669 577686296 -1424923951 -319507059 -1144527052 2090028794 -838823947 -1533741875 2104835556 -1562614655 34259021 -201968317 -197796546 159748220 459774388 -1627908908 -636963352 -534947527 739472782 -736560423 182535404 1042692948
REM
CELL 1.54180   50.00000   50.00000   50.00000   90.00000   90.00000   90.00000
LATT -1
SFAC C  
C      1  0.4854350000000  0.4848510000000  0.6415410000000 1.0
C      1  0.4854390000000  0.6304120000000  0.4424230000000 1.0
C      1  0.4854380000000  0.3851910000000  0.4159220000000 1.0
C      1  0.4861810000000  0.5348860000000  0.4770700000000 1.0
C      1  0.4861800000000  0.4629590000000  0.4813270000000 1.0
C      1  0.4861800000000  0.5026090000000  0.5414890000000 1.0
C      1  0.5050850000000  0.4418150000000  0.4957300000000 1.0
C      1  0.5050850000000  0.5256540000000  0.5525990000000 1.0
C      1  0.5050860000000  0.5329850000000  0.4515570000000 1.0
C      1  0.5001990000000  0.5644760000000  0.6201260000000 1.0
C      1  0.5002020000000  0.5720540000000  0.3841730000000 1.0
C      1  0.5002000000000  0.3639240000000  0.4955870000000 1.0
C      1  0.5512620000000  0.4343450000000  0.5734550000000 1.0
C      1  0.5512640000000  0.5967000000000  0.5202070000000 1.0
C      1  0.5512650000000  0.4694080000000  0.4062270000000 1.0
C      1  0.4166070000000  0.4732470000000  0.4824170000000 1.0
C      1  0.4166060000000  0.4984110000000  0.5320330000000 1.0
C      1  0.4166070000000  0.5287980000000  0.4854320000000 1.0
C      1  0.4611620000000  0.5170660000000  0.5333290000000 1.0
C      1  0.4611630000000  0.5205920000000  0.4686290000000 1.0
C      1  0.4611620000000  0.4627970000000  0.4979260000000 1.0
C      1  0.4903620000000  0.5448780000000  0.3859140000000 1.0
C      1  0.4903590000000  0.3790190000000  0.5182510000000 1.0
C      1  0.4903590000000  0.5765560000000  0.5957210000000 1.0
C      1  0.4625620000000  0.5715280000000  0.5863650000000 1.0
C      1  0.4625640000000  0.5392910000000  0.3949450000000 1.0
C      1  0.4625620000000  0.3896350000000  0.5185740000000 1.0
C      1  0.5024830000000  0.4185510000000  0.5762710000000 1.0
C      1  0.5024840000000  0.6070360000000  0.5324750000000 1.0
C      1  0.5024860000000  0.4748660000000  0.3911400000000 1.0
C      1  0.4620040000000  0.6123960000000  0.5575710000000 1.0
C      1  0.4620060000000  0.4939210000000  0.3739500000000 1.0
C      1  0.4620020000000  0.3941380000000  0.5683630000000 1.0
C      1  0.5256470000000  0.4651280000000  0.5387550000000 1.0
C      1  0.5256480000000  0.5512580000000  0.5108970000000 1.0
C      1  0.5256480000000  0.4840670000000  0.4502350000000 1.0
C      1  0.5890680000000  0.4486940000000  0.4513950000000 1.0
C      1  0.5890660000000  0.4838180000000  0.5688110000000 1.0
C      1  0.5890680000000  0.5679410000000  0.4796840000000 1.0
C      1  0.6110240000000  0.4454640000000  0.5227190000000 1.0
C      1  0.6110240000000  0.5472000000000  0.5359460000000 1.0
C      1  0.6110250000000  0.5077870000000  0.4412260000000 1.0
C      1  0.4681280000000  0.4708660000000  0.4320190000000 1.0
C      1  0.4681260000000  0.4559540000000  0.5592950000000 1.0
C      1  0.4681280000000  0.5736340000000  0.5085710000000 1.0
C      1  0.4839000000000  0.3550320000000  0.4733630000000 1.0
C      1  0.4838980000000  0.5496760000000  0.6389380000000 1.0
C      1  0.4839020000000  0.5957460000000  0.3875840000000 1.0
C      1  0.4643480000000  0.5295510000000  0.6316250000000 1.0
C      1  0.4643520000000  0.5994750000000  0.4086690000000 1.0
C      1  0.4643500000000  0.3714280000000  0.4595910000000 1.0
C      1  0.6001210000000  0.5822650000000  0.5036030000000 1.0
C      1  0.6001210000000  0.4622450000000  0.4270300000000 1.0
C      1  0.6001190000000  0.4559410000000  0.5692570000000 1.0
C      1  0.5660290000000  0.4959970000000  0.4085410000000 1.0
C      1  0.5660270000000  0.4230540000000  0.5492710000000 1.0
C      1  0.5660280000000  0.5814010000000  0.5420770000000 1.0
C      1  0.5268730000000  0.5603980000000  0.4148230000000 1.0
C      1  0.5268710000000  0.3962950000000  0.4903560000000 1.0
C      1  0.5268700000000  0.5437600000000  0.5947080000000 1.0
C      1  0.4376050000000  0.4840060000000  0.5909760000000 1.0
C      1  0.4376080000000  0.5870460000000  0.4684360000000 1.0
C      1  0.4376070000000  0.4294030000000  0.4404700000000 1.0
C      1  0.4527520000000  0.4401410000000  0.5132990000000 1.0
C      1  0.4527530000000  0.5417080000000  0.5452630000000 1.0
C      1  0.4527540000000  0.5186060000000  0.4413220000000 1.0
C      1  0.4275660000000  0.4563730000000  0.4331170000000 1.0
C      1  0.4275640000000  0.4641530000000  0.5712960000000 1.0
C      1  0.4275660000000  0.5799290000000  0.4954690000000 1.0
C      1  0.5718970000000  0.4666770000000  0.4698730000000 1.0
C      1  0.5718960000000  0.4908290000000  0.5439980000000 1.0
C      1  0.5718970000000  0.5429470000000  0.4860190000000 1.0
C      1  0.5061230000000  0.5968490000000  0.5806840000000 1.0
C      1  0.5061260000000  0.5217090000000  0.3758580000000 1.0
C      1  0.5061230000000  0.3818950000000  0.5433440000000 1.0
C      1  0.4104410000000  0.5554160000000  0.4994260000000 1.0
C      1  0.4104410000000  0.4720560000000  0.4523670000000 1.0
C      1  0.4104400000000  0.4729820000000  0.5480890000000 1.0
C      1  0.4487520000000  0.3863910000000  0.5439010000000 1.0
C      1  0.4487520000000  0.5950840000000  0.5765110000000 1.0
C      1  0.4487550000000  0.5189790000000  0.3794720000000 1.0
C      1  0.3831730000000  0.4778440000000  0.4436990000000 1.0
C      1  0.3831710000000  0.4625830000000  0.5474100000000 1.0
C      1  0.3831720000000  0.5600290000000  0.5087710000000 1.0
C      1  0.5119510000000  0.4425080000000  0.5247160000000 1.0
C      1  0.5119510000000  0.5504100000000  0.5375050000000 1.0
C      1  0.5119530000000  0.5075350000000  0.4376650000000 1.0
C      1  0.4707680000000  0.3920080000000  0.4401540000000 1.0
C      1  0.4707660000000  0.5024280000000  0.6235210000000 1.0
C      1  0.4707690000000  0.6060180000000  0.4362100000000 1.0
C      1  0.5679600000000  0.5095160000000  0.4482550000000 1.0
C      1  0.5679590000000  0.4506880000000  0.5177060000000 1.0
C      1  0.5679590000000  0.5402480000000  0.5339270000000 1.0
C      1  0.4556150000000  0.5459550000000  0.5741150000000 1.0
C      1  0.4556170000000  0.5414690000000  0.4232170000000 1.0
C      1  0.4556160000000  0.4130310000000  0.5025520000000 1.0
C      1  0.6065010000000  0.5198710000000  0.5481630000000 1.0
C      1  0.6065020000000  0.5320320000000  0.4587850000000 1.0
C      1  0.6065010000000  0.4485480000000  0.4929420000000 1.0
C      1  0.5446860000000  0.4218080000000  0.4618880000000 1.0
C      1  0.5446850000000  0.5063480000000  0.5868470000000 1.0
C      1  0.5446870000000  0.5722960000000  0.4511530000000 1.0
C      1  0.5293450000000  0.4650030000000  0.3876770000000 1.0
C      1  0.5293420000000  0.4204830000000  0.5865440000000 1.0
C      1  0.5293440000000  0.6149670000000  0.5256660000000 1.0
C      1  0.3846860000000  0.5342440000000  0.5496350000000 1.0
C      1  0.3846870000000  0.5261250000000  0.4455980000000 1.0
C      1  0.3846860000000  0.4400860000000  0.5046480000000 1.0
C      1  0.6182590000000  0.4724980000000  0.5329080000000 1.0
C      1  0.6182600000000  0.5425080000000  0.5074390000000 1.0
C      1  0.6182600000000  0.4854460000000  0.4595440000000 1.0
C      1  0.5465160000000  0.4788350000000  0.5991150000000 1.0
C      1  0.5465190000000  0.5966770000000  0.4688460000000 1.0
C      1  0.5465180000000  0.4249410000000  0.4319270000000 1.0
C      1  0.4680390000000  0.4937200000000  0.5934420000000 1.0
C      1  0.4680420000000  0.5843240000000  0.4587900000000 1.0
C      1  0.4680410000000  0.4224100000000  0.4476520000000 1.0
C      1  0.4549910000000  0.4207220000000  0.5819170000000 1.0
C      1  0.4549930000000  0.6108420000000  0.5277720000000 1.0
C      1  0.4549940000000  0.4688910000000  0.3901950000000 1.0
C      1  0.4488100000000  0.4438170000000  0.5413130000000 1.0
C      1  0.4488110000000  0.5641310000000  0.5280720000000 1.0
C      1  0.4488120000000  0.4925070000000  0.4304980000000 1.0
C      1  0.4685430000000  0.4536070000000  0.4553340000000 1.0
C      1  0.4685420000000  0.4847750000000  0.5625840000000 1.0
C      1  0.4685430000000  0.5620720000000  0.4819670000000 1.0
C      1  0.4922760000000  0.4960450000000  0.3744840000000 1.0
C      1  0.4922730000000  0.3935370000000  0.5662570000000 1.0
C      1  0.4922740000000  0.6108710000000  0.5591450000000 1.0
C      1  0.5548920000000  0.3995510000000  0.5322190000000 1.0
C      1  0.5548920000000  0.5783860000000  0.5709570000000 1.0
C      1  0.5548950000000  0.5225170000000  0.3967120000000 1.0
C      1  0.5542360000000  0.3987680000000  0.5019680000000 1.0
C      1  0.5542350000000  0.5525790000000  0.5867610000000 1.0
C      1  0.5542380000000  0.5491060000000  0.4111600000000 1.0
C      1  0.4801020000000  0.4609360000000  0.4057300000000 1.0
C      1  0.4800990000000  0.4381520000000  0.5810390000000 1.0
C      1  0.4801010000000  0.6013660000000  0.5131160000000 1.0
C      1  0.5980150000000  0.5138020000000  0.5777570000000 1.0
C      1  0.5980170000000  0.5606960000000  0.4492440000000 1.0
C      1  0.5980160000000  0.4259540000000  0.4728890000000 1.0
C      1  0.4297110000000  0.6000090000000  0.5174950000000 1.0
C      1  0.4297120000000  0.4654080000000  0.4047150000000 1.0
C      1  0.4297090000000  0.4350380000000  0.5776730000000 1.0
C      1  0.5185380000000  0.4216290000000  0.4234860000000 1.0
C      1  0.5185350000000  0.4731810000000  0.6062020000000 1.0
C      1  0.5185380000000  0.6056430000000  0.4701990000000 1.0
C      1  0.5157910000000  0.4210050000000  0.4758520000000 1.0
C      1  0.5157900000000  0.5188440000000  0.5805600000000 1.0
C      1  0.5157920000000  0.5606040000000  0.4434750000000 1.0
C      1  0.5623300000000  0.4456890000000  0.4191830000000 1.0
C      1  0.5623270000000  0.4574240000000  0.5875180000000 1.0
C      1  0.5623300000000  0.5973390000000  0.4931870000000 1.0
C      1  0.5681740000000  0.5251900000000  0.5808290000000 1.0
C      1  0.5681770000000  0.5576630000000  0.4378460000000 1.0
C      1  0.5681750000000  0.4176000000000  0.4812140000000 1.0
C      1  0.5943990000000  0.4352280000000  0.5472350000000 1.0
C      1  0.5944000000000  0.5735510000000  0.5325520000000 1.0
C      1  0.5944020000000  0.4916730000000  0.4201030000000 1.0
C      1  0.3485170000000  0.5015300000000  0.4704460000000 1.0
C      1  0.3485160000000  0.4739040000000  0.5135230000000 1.0
C      1  0.3485160000000  0.5250220000000  0.5159100000000 1.0
C      1  0.4109550000000  0.4480710000000  0.4959580000000 1.0
C      1  0.4109540000000  0.5227260000000  0.5470650000000 1.0
C      1  0.4109560000000  0.5296580000000  0.4568590000000 1.0
C      1  0.5638520000000  0.5355730000000  0.4580280000000 1.0
C      1  0.5638510000000  0.4461240000000  0.4902540000000 1.0
C      1  0.5638500000000  0.5187560000000  0.5516060000000 1.0
C      1  0.5024710000000  0.4887020000000  0.5869690000000 1.0
C      1  0.5024730000000  0.5812260000000  0.4663740000000 1.0
C      1  0.5024720000000  0.4305260000000  0.4465440000000 1.0
C      1  0.5089240000000  0.4706570000000  0.6332040000000 1.0
C      1  0.5089270000000  0.6302890000000  0.4588840000000 1.0
C      1  0.5089270000000  0.3995070000000  0.4077990000000 1.0
C      1  0.3439130000000  0.4762940000000  0.4846960000000 1.0
C      1  0.3439130000000  0.4988630000000  0.5282530000000 1.0
C      1  0.3439140000000  0.5253000000000  0.4869300000000 1.0
C      1  0.5543760000000  0.4699820000000  0.5329430000000 1.0
C      1  0.5543770000000  0.5437970000000  0.5096000000000 1.0
C      1  0.5543780000000  0.4866730000000  0.4573450000000 1.0
C      1  0.5096630000000  0.4839890000000  0.5545210000000 1.0
C      1  0.5096640000000  0.5554820000000  0.4866790000000 1.0
C      1  0.5096640000000  0.4609830000000  0.4586860000000 1.0
C      1  0.6003370000000  0.4770160000000  0.4815490000000 1.0
C      1  0.6003370000000  0.4957710000000  0.5292060000000 1.0
C      1  0.6003370000000  0.5276650000000  0.4891350000000 1.0
C      1  0.5359360000000  0.3797730000000  0.5442600000000 1.0
C      1  0.5359360000000  0.5987020000000  0.5820640000000 1.0
C      1  0.5359390000000  0.5219780000000  0.3735640000000 1.0
C      1  0.3691150000000  0.4555420000000  0.5233550000000 1.0
C      1  0.3691150000000  0.5427170000000  0.5268950000000 1.0
C      1  0.3691160000000  0.5021960000000  0.4496300000000 1.0
C      1  0.5976460000000  0.5001510000000  0.4999630000000 1.0
C      1  0.4176840000000  0.5001520000000  0.4999610000000 1.0
END
