TITL C-862507-1800-1184 0.0134853318479505 125000 -925.897730073297 0 0 162 (C3) n - 1
REM
REM in /home/nfs/bkarasulu/CARBON/AIRSS/Generating-Clusters/TERSOFF/Higher-Symm/FIRE-HFTN
REM
REM
REM
REM
REM
REM ./C.cell (b20cbc046b6831c77cfcea5457e17084)
REM AIRSS Version 0.9.1 bugfix July 2018 build 013d7b7c2542+ Fri, 06 Jul 2018 19:26:36 +0100
REM compiler GCC version 9.2.1 20190827 (Red Hat 9.2.1-1)
REM options -cpp -mtune=generic -march=x86-64 -g -O0 -fpre-include=/usr/include/finclude/math-vector-fortran.h
REM seed 412319858 -776230315 -84153823 437028820 -369231006 1489452502 1778631590 152593624 -1876995761 -1153978068 -1264420605 694950851 1788659924 -1832222111 784444536 566314795 1435722229 -2058155583 -1992142918 149748590 -224401600 -1455759133 -1956676343 -889849820 -479626801 1933610858 -1905816299 -555272019 369455792 719295378 1566162712 -2147065783 65303200
REM
CELL 1.54180   50.00000   50.00000   50.00000   90.00000   90.00000   90.00000
LATT -1
SFAC C  
C      1  0.4255040000000  0.5589150000000  0.4494830000000 1.0
C      1  0.4934990000000  0.5589150000000  0.5897740000000 1.0
C      1  0.5809970000000  0.5589150000000  0.4607430000000 1.0
C      1  0.5359860000000  0.4191280000000  0.5141950000000 1.0
C      1  0.4943000000000  0.4191280000000  0.4617380000000 1.0
C      1  0.4697140000000  0.4191280000000  0.5240680000000 1.0
C      1  0.4691090000000  0.4468020000000  0.5123570000000 1.0
C      1  0.5261470000000  0.4468020000000  0.5205740000000 1.0
C      1  0.5047440000000  0.4468020000000  0.4670690000000 1.0
C      1  0.5122420000000  0.4262860000000  0.5645400000000 1.0
C      1  0.5497720000000  0.4262860000000  0.4571280000000 1.0
C      1  0.4379860000000  0.4262860000000  0.4783320000000 1.0
C      1  0.5184310000000  0.3974990000000  0.5072880000000 1.0
C      1  0.4970960000000  0.3974990000000  0.4803940000000 1.0
C      1  0.4844730000000  0.3974990000000  0.5123180000000 1.0
C      1  0.4279360000000  0.4078860000000  0.5004700000000 1.0
C      1  0.5364390000000  0.4078860000000  0.5621740000000 1.0
C      1  0.5356250000000  0.4078860000000  0.4373550000000 1.0
C      1  0.5412170000000  0.4900270000000  0.4225930000000 1.0
C      1  0.4123550000000  0.4900270000000  0.5030090000000 1.0
C      1  0.5464280000000  0.4900270000000  0.5743980000000 1.0
C      1  0.5198220000000  0.5413100000000  0.5021120000000 1.0
C      1  0.4919190000000  0.5413100000000  0.4817780000000 1.0
C      1  0.4882600000000  0.5413100000000  0.5161100000000 1.0
C      1  0.4319910000000  0.4314970000000  0.4483320000000 1.0
C      1  0.4892590000000  0.4314970000000  0.5847310000000 1.0
C      1  0.5787500000000  0.4314970000000  0.4669370000000 1.0
C      1  0.5018970000000  0.4918070000000  0.5241660000000 1.0
C      1  0.5199800000000  0.4918070000000  0.4862750000000 1.0
C      1  0.4781240000000  0.4918070000000  0.4895600000000 1.0
C      1  0.4781200000000  0.5171690000000  0.4720100000000 1.0
C      1  0.4867000000000  0.5171690000000  0.5329440000000 1.0
C      1  0.5351800000000  0.5171690000000  0.4950460000000 1.0
C      1  0.5171650000000  0.4457950000000  0.4107970000000 1.0
C      1  0.4141650000000  0.4457950000000  0.5297360000000 1.0
C      1  0.5686700000000  0.4457950000000  0.5594670000000 1.0
C      1  0.5808340000000  0.4987010000000  0.4850400000000 1.0
C      1  0.4466270000000  0.4987010000000  0.4374760000000 1.0
C      1  0.4725390000000  0.4987010000000  0.5774840000000 1.0
C      1  0.4591690000000  0.4932570000000  0.5121700000000 1.0
C      1  0.5309550000000  0.4932570000000  0.5292760000000 1.0
C      1  0.5098760000000  0.4932570000000  0.4585540000000 1.0
C      1  0.5116100000000  0.4182130000000  0.4211390000000 1.0
C      1  0.4258990000000  0.4182130000000  0.5293760000000 1.0
C      1  0.5624900000000  0.4182130000000  0.5494850000000 1.0
C      1  0.4931130000000  0.5131470000000  0.6276390000000 1.0
C      1  0.6139820000000  0.5131470000000  0.4421440000000 1.0
C      1  0.3929040000000  0.5131470000000  0.4302160000000 1.0
C      1  0.5700030000000  0.4494150000000  0.4201190000000 1.0
C      1  0.3958190000000  0.4494150000000  0.4793160000000 1.0
C      1  0.5341770000000  0.4494150000000  0.6005650000000 1.0
C      1  0.4509300000000  0.5749440000000  0.5593760000000 1.0
C      1  0.5759560000000  0.5749440000000  0.5128080000000 1.0
C      1  0.4731140000000  0.5749440000000  0.4278160000000 1.0
C      1  0.4409430000000  0.4529770000000  0.4913810000000 1.0
C      1  0.5220640000000  0.4529770000000  0.5554540000000 1.0
C      1  0.5369930000000  0.4529770000000  0.4531650000000 1.0
C      1  0.4966880000000  0.6010360000000  0.5530890000000 1.0
C      1  0.5476320000000  0.6010360000000  0.4763240000000 1.0
C      1  0.4556800000000  0.6010360000000  0.4705870000000 1.0
C      1  0.5044340000000  0.5436050000000  0.4073710000000 1.0
C      1  0.4175640000000  0.5436050000000  0.5424750000000 1.0
C      1  0.5780020000000  0.5436050000000  0.5501540000000 1.0
C      1  0.3862820000000  0.4986420000000  0.5427940000000 1.0
C      1  0.5939190000000  0.4986420000000  0.5770860000000 1.0
C      1  0.5197990000000  0.4986420000000  0.3801200000000 1.0
C      1  0.5364540000000  0.5508820000000  0.5254760000000 1.0
C      1  0.5038360000000  0.5508820000000  0.4556920000000 1.0
C      1  0.4597110000000  0.5508820000000  0.5188320000000 1.0
C      1  0.4298740000000  0.4658080000000  0.5455150000000 1.0
C      1  0.5744800000000  0.4658080000000  0.5379730000000 1.0
C      1  0.4956460000000  0.4658080000000  0.4165110000000 1.0
C      1  0.4969930000000  0.4828090000000  0.6130170000000 1.0
C      1  0.5993790000000  0.4828090000000  0.4460960000000 1.0
C      1  0.4036280000000  0.4828090000000  0.4408870000000 1.0
C      1  0.6194720000000  0.5257450000000  0.5217490000000 1.0
C      1  0.4591000000000  0.5257450000000  0.3856600000000 1.0
C      1  0.4214280000000  0.5257450000000  0.5925910000000 1.0
C      1  0.4451090000000  0.5819400000000  0.4347100000000 1.0
C      1  0.4709030000000  0.5819400000000  0.5801820000000 1.0
C      1  0.5839880000000  0.5819400000000  0.4851070000000 1.0
C      1  0.5733860000000  0.4944700000000  0.4549530000000 1.0
C      1  0.4242950000000  0.4944710000000  0.4589690000000 1.0
C      1  0.5023190000000  0.4944710000000  0.5860780000000 1.0
C      1  0.4492970000000  0.4828260000000  0.5867140000000 1.0
C      1  0.6004480000000  0.4828260000000  0.5005530000000 1.0
C      1  0.4502550000000  0.4828260000000  0.4127330000000 1.0
C      1  0.5295140000000  0.5353770000000  0.5499970000000 1.0
C      1  0.5285410000000  0.5353770000000  0.4494410000000 1.0
C      1  0.4419440000000  0.5353770000000  0.5005620000000 1.0
C      1  0.4466100000000  0.5452060000000  0.5484490000000 1.0
C      1  0.5686530000000  0.5452060000000  0.5220120000000 1.0
C      1  0.4847370000000  0.5452060000000  0.4295380000000 1.0
C      1  0.5467990000000  0.4699240000000  0.5251360000000 1.0
C      1  0.4983690000000  0.4699240000000  0.4469030000000 1.0
C      1  0.4548320000000  0.4699240000000  0.5279610000000 1.0
C      1  0.5228170000000  0.4609250000000  0.4918700000000 1.0
C      1  0.4815500000000  0.4609250000000  0.4843050000000 1.0
C      1  0.4956320000000  0.4609250000000  0.5238260000000 1.0
C      1  0.4539670000000  0.5823230000000  0.5276840000000 1.0
C      1  0.5469910000000  0.5823230000000  0.5260240000000 1.0
C      1  0.4990420000000  0.5823230000000  0.4462920000000 1.0
C      1  0.3971730000000  0.5428870000000  0.4423730000000 1.0
C      1  0.5015070000000  0.5428870000000  0.6178640000000 1.0
C      1  0.6013200000000  0.5428870000000  0.4397630000000 1.0
C      1  0.5900600000000  0.4575350000000  0.5128810000000 1.0
C      1  0.4661250000000  0.4575350000000  0.4155650000000 1.0
C      1  0.4438150000000  0.4575350000000  0.5715540000000 1.0
C      1  0.3794760000000  0.5123250000000  0.5165940000000 1.0
C      1  0.5746330000000  0.5123250000000  0.5960800000000 1.0
C      1  0.5458910000000  0.5123250000000  0.3873260000000 1.0
C      1  0.5319760000000  0.5537220000000  0.4119420000000 1.0
C      1  0.4077520000000  0.5537230000000  0.5163370000000 1.0
C      1  0.5602720000000  0.5537220000000  0.5717210000000 1.0
C      1  0.4359360000000  0.5786970000000  0.4759870000000 1.0
C      1  0.5112360000000  0.5786960000000  0.5674870000000 1.0
C      1  0.5528280000000  0.5786960000000  0.4565250000000 1.0
C      1  0.5044880000000  0.4515160000000  0.6068570000000 1.0
C      1  0.5902970000000  0.4515160000000  0.4426850000000 1.0
C      1  0.4052160000000  0.4515160000000  0.4504580000000 1.0
C      1  0.4967040000000  0.4913530000000  0.3983520000000 1.0
C      1  0.4136180000000  0.4913530000000  0.5536780000000 1.0
C      1  0.5896770000000  0.4913530000000  0.5479700000000 1.0
C      1  0.4675440000000  0.4991940000000  0.3934810000000 1.0
C      1  0.4239800000000  0.4991940000000  0.5813670000000 1.0
C      1  0.6084760000000  0.4991940000000  0.5251520000000 1.0
C      1  0.5522340000000  0.4749750000000  0.4655400000000 1.0
C      1  0.4440400000000  0.4749750000000  0.4719950000000 1.0
C      1  0.5037270000000  0.4749750000000  0.5624660000000 1.0
C      1  0.5455920000000  0.4596100000000  0.5742450000000 1.0
C      1  0.5415020000000  0.4596100000000  0.4233940000000 1.0
C      1  0.4129060000000  0.4596100000000  0.5023610000000 1.0
C      1  0.5404330000000  0.5749130000000  0.5596260000000 1.0
C      1  0.5314210000000  0.5749130000000  0.4351710000000 1.0
C      1  0.4281460000000  0.5749130000000  0.5052030000000 1.0
C      1  0.5210560000000  0.5204600000000  0.5883100000000 1.0
C      1  0.5659510000000  0.5204600000000  0.4376100000000 1.0
C      1  0.4129940000000  0.5204600000000  0.4740800000000 1.0
C      1  0.5655610000000  0.5208440000000  0.4983140000000 1.0
C      1  0.4657590000000  0.5208440000000  0.4440650000000 1.0
C      1  0.4686790000000  0.5208440000000  0.5576210000000 1.0
C      1  0.5349130000000  0.5979520000000  0.5031010000000 1.0
C      1  0.4852290000000  0.5979520000000  0.4682150000000 1.0
C      1  0.4798590000000  0.5979520000000  0.5286850000000 1.0
C      1  0.5650530000000  0.4148840000000  0.5176230000000 1.0
C      1  0.4827360000000  0.4148840000000  0.4348510000000 1.0
C      1  0.4522110000000  0.4148840000000  0.5475260000000 1.0
C      1  0.6122350000000  0.5430400000000  0.4998190000000 1.0
C      1  0.4437260000000  0.5430410000000  0.4028920000000 1.0
C      1  0.4440390000000  0.5430410000000  0.5972880000000 1.0
C      1  0.5262610000000  0.5073610000000  0.4415480000000 1.0
C      1  0.4362480000000  0.5073610000000  0.5064830000000 1.0
C      1  0.5374900000000  0.5073610000000  0.5519690000000 1.0
C      1  0.5515030000000  0.5296790000000  0.5876020000000 1.0
C      1  0.5501140000000  0.5296790000000  0.4115960000000 1.0
C      1  0.3983830000000  0.5296790000000  0.5008020000000 1.0
C      1  0.4575680000000  0.4326390000000  0.4291420000000 1.0
C      1  0.4598510000000  0.4326390000000  0.5721760000000 1.0
C      1  0.5825800000000  0.4326390000000  0.4986820000000 1.0
C      1  0.4431530000000  0.5401230000000  0.4318570000000 1.0
C      1  0.4694100000000  0.5401220000000  0.5833030000000 1.0
C      1  0.5874370000000  0.5401220000000  0.4848400000000 1.0
END
