TITL C-862507-1800-915 0.58626430166186 125000 -369.583161043123 0 0 72 (Ci) n - 1
REM
REM in /home/nfs/bkarasulu/CARBON/AIRSS/Generating-Clusters/TERSOFF/Higher-Symm/FIRE-HFTN
REM
REM
REM
REM
REM
REM ./C.cell (b20cbc046b6831c77cfcea5457e17084)
REM AIRSS Version 0.9.1 bugfix July 2018 build 013d7b7c2542+ Fri, 06 Jul 2018 19:26:36 +0100
REM compiler GCC version 9.2.1 20190827 (Red Hat 9.2.1-1)
REM options -cpp -mtune=generic -march=x86-64 -g -O0 -fpre-include=/usr/include/finclude/math-vector-fortran.h
REM seed 436326675 -1949415482 -98208136 1000093896 313768611 -1910551106 1657120289 1004106354 1729726352 -368179669 1228497533 459009225 -205865327 -975135372 1914642259 330062223 -1733550323 1190627007 -555726334 78445882 1892425762 1593546912 1297461473 -1935351934 1634016002 -1735171144 -1641101772 1973392243 -755673003 -380235032 1240457612 -1559211760 204750798
REM
CELL 1.54180   50.00000   50.00000   50.00000   90.00000   90.00000   90.00000
LATT -1
SFAC C  
C      1  0.5142510000000  0.5600750000000  0.5332370000000 1.0
C      1  0.5144640000000  0.4398170000000  0.4667430000000 1.0
C      1  0.4855360000000  0.5601830000000  0.5332570000000 1.0
C      1  0.4857490000000  0.4399250000000  0.4667630000000 1.0
C      1  0.4695560000000  0.4178090000000  0.4784020000000 1.0
C      1  0.4693220000000  0.5824610000000  0.5218530000000 1.0
C      1  0.5306780000000  0.4175390000000  0.4781470000000 1.0
C      1  0.5304440000000  0.5821910000000  0.5215980000000 1.0
C      1  0.4245100000000  0.4939640000000  0.5364540000000 1.0
C      1  0.4244210000000  0.5064260000000  0.4635680000000 1.0
C      1  0.5755790000000  0.4935740000000  0.5364320000000 1.0
C      1  0.5754900000000  0.5060360000000  0.4635460000000 1.0
C      1  0.4834160000000  0.5572140000000  0.4914370000000 1.0
C      1  0.4834740000000  0.4435160000000  0.5085170000000 1.0
C      1  0.5165260000000  0.5564840000000  0.4914830000000 1.0
C      1  0.5165840000000  0.4427860000000  0.5085630000000 1.0
C      1  0.4457240000000  0.4235290000000  0.4959190000000 1.0
C      1  0.4456360000000  0.5768010000000  0.5039400000000 1.0
C      1  0.5543640000000  0.4231990000000  0.4960600000000 1.0
C      1  0.5542760000000  0.5764710000000  0.5040810000000 1.0
C      1  0.4859140000000  0.5099520000000  0.5775380000000 1.0
C      1  0.4857850000000  0.4902210000000  0.4224460000000 1.0
C      1  0.5142150000000  0.5097790000000  0.5775540000000 1.0
C      1  0.5140860000000  0.4900480000000  0.4224620000000 1.0
C      1  0.4345970000000  0.4890400000000  0.5101320000000 1.0
C      1  0.4346130000000  0.5113590000000  0.4898600000000 1.0
C      1  0.5653870000000  0.4886410000000  0.5101400000000 1.0
C      1  0.5654030000000  0.5109600000000  0.4898680000000 1.0
C      1  0.5316490000000  0.5459510000000  0.4537490000000 1.0
C      1  0.5314680000000  0.4536820000000  0.5462890000000 1.0
C      1  0.4685320000000  0.5463180000000  0.4537110000000 1.0
C      1  0.4683510000000  0.4540490000000  0.5462510000000 1.0
C      1  0.4747540000000  0.4685810000000  0.4692630000000 1.0
C      1  0.4744560000000  0.5316810000000  0.5308040000000 1.0
C      1  0.5255440000000  0.4683190000000  0.4691960000000 1.0
C      1  0.5252460000000  0.5314190000000  0.5307370000000 1.0
C      1  0.4453950000000  0.4620050000000  0.4593090000000 1.0
C      1  0.4450440000000  0.5385340000000  0.5407960000000 1.0
C      1  0.5549560000000  0.4614660000000  0.4592040000000 1.0
C      1  0.5546050000000  0.5379950000000  0.5406910000000 1.0
C      1  0.4332570000000  0.5501840000000  0.5161000000000 1.0
C      1  0.4332080000000  0.4500720000000  0.4836810000000 1.0
C      1  0.5667920000000  0.5499280000000  0.5163190000000 1.0
C      1  0.5667430000000  0.4498160000000  0.4839000000000 1.0
C      1  0.5180760000000  0.5155860000000  0.4991220000000 1.0
C      1  0.5180650000000  0.4837800000000  0.5009110000000 1.0
C      1  0.4819350000000  0.5162200000000  0.4990890000000 1.0
C      1  0.4819240000000  0.4844140000000  0.5008780000000 1.0
C      1  0.5469440000000  0.5364550000000  0.4937990000000 1.0
C      1  0.5467380000000  0.4631750000000  0.5063070000000 1.0
C      1  0.4532620000000  0.5368250000000  0.4936930000000 1.0
C      1  0.4530560000000  0.4635450000000  0.5062010000000 1.0
C      1  0.5604450000000  0.5106100000000  0.5535470000000 1.0
C      1  0.5602810000000  0.4890250000000  0.4464830000000 1.0
C      1  0.4397190000000  0.5109750000000  0.5535170000000 1.0
C      1  0.4395550000000  0.4893900000000  0.4464530000000 1.0
C      1  0.4854890000000  0.4131110000000  0.5173300000000 1.0
C      1  0.4830860000000  0.5880180000000  0.4825630000000 1.0
C      1  0.5169140000000  0.4119820000000  0.5174370000000 1.0
C      1  0.5145110000000  0.5868890000000  0.4826700000000 1.0
C      1  0.4474550000000  0.5627600000000  0.4708080000000 1.0
C      1  0.4475330000000  0.4375540000000  0.5290390000000 1.0
C      1  0.5524670000000  0.5624460000000  0.4709610000000 1.0
C      1  0.5525450000000  0.4372400000000  0.5291920000000 1.0
C      1  0.4718640000000  0.5056230000000  0.5523080000000 1.0
C      1  0.4717700000000  0.4946000000000  0.4476970000000 1.0
C      1  0.5282300000000  0.5054000000000  0.5523030000000 1.0
C      1  0.5281360000000  0.4943770000000  0.4476920000000 1.0
C      1  0.5175020000000  0.4791640000000  0.5367770000000 1.0
C      1  0.5175150000000  0.5205850000000  0.4632790000000 1.0
C      1  0.4824850000000  0.4794150000000  0.5367210000000 1.0
C      1  0.4824980000000  0.5208360000000  0.4632230000000 1.0
END
