TITL C-862505-1648-51 216285.306549278 125000 -718.678397753938 0 0 127 (C1) n - 1
REM
REM in /home/nfs/bkarasulu/CARBON/AIRSS/Generating-Clusters/TERSOFF/Higher-Symm/FIRE-HFTN
REM
REM
REM
REM
REM
REM ./C.cell (b20cbc046b6831c77cfcea5457e17084)
REM AIRSS Version 0.9.1 bugfix July 2018 build 013d7b7c2542+ Fri, 06 Jul 2018 19:26:36 +0100
REM compiler GCC version 9.2.1 20190827 (Red Hat 9.2.1-1)
REM options -cpp -mtune=generic -march=x86-64 -g -O0 -fpre-include=/usr/include/finclude/math-vector-fortran.h
REM seed 1791342095 -183581223 -777715674 1100720872 -1797561737 1759191759 1536589084 -323862476 -154301208 2050499621 1942220696 1802803636 -1088721791 -1609390281 -1207397331 1706611433 2052614687 917673918 1767156628 864742149 -84687662 1843813375 -331964797 -1017398442 -211768645 -1834483486 1971027012 -2076464132 2129947945 -1142472367 2111606551 -1613720505 1571384863
REM
CELL 1.54180   50.00000   50.00000   50.00000   90.00000   90.00000   90.00000
LATT -1
SFAC C  
C      1  0.4633540000000  0.4346140000000  0.4174820000000 1.0
C      1  0.4638590000000  0.3997830000000  0.5374260000000 1.0
C      1  0.4627880000000  0.5070770000000  0.6090720000000 1.0
C      1  0.4629520000000  0.6060100000000  0.5238940000000 1.0
C      1  0.4624440000000  0.5571000000000  0.4093410000000 1.0
C      1  0.5367560000000  0.4325750000000  0.4161150000000 1.0
C      1  0.5372820000000  0.4011630000000  0.5391400000000 1.0
C      1  0.5364400000000  0.5032280000000  0.6045520000000 1.0
C      1  0.5361950000000  0.5991760000000  0.5309920000000 1.0
C      1  0.5361000000000  0.5616970000000  0.4122080000000 1.0
C      1  0.5568560000000  0.5205060000000  0.4996290000000 1.0
C      1  0.5629770000000  0.5085560000000  0.4733230000000 1.0
C      1  0.5654640000000  0.4796130000000  0.4767430000000 1.0
C      1  0.5610070000000  0.4731860000000  0.5049590000000 1.0
C      1  0.5557690000000  0.4985070000000  0.5196050000000 1.0
C      1  0.4365660000000  0.5277340000000  0.5100000000000 1.0
C      1  0.4420330000000  0.5163600000000  0.4833290000000 1.0
C      1  0.4440830000000  0.4868580000000  0.4863120000000 1.0
C      1  0.4397440000000  0.4806900000000  0.5149070000000 1.0
C      1  0.4350850000000  0.5058300000000  0.5292640000000 1.0
C      1  0.5236540000000  0.4775600000000  0.4742250000000 1.0
C      1  0.5208480000000  0.4687490000000  0.5157520000000 1.0
C      1  0.5182700000000  0.5053410000000  0.5369320000000 1.0
C      1  0.5194670000000  0.5372520000000  0.5084770000000 1.0
C      1  0.5227500000000  0.5198480000000  0.4695830000000 1.0
C      1  0.4818860000000  0.4752240000000  0.4725000000000 1.0
C      1  0.4790950000000  0.4662850000000  0.5142890000000 1.0
C      1  0.4765000000000  0.5031670000000  0.5353250000000 1.0
C      1  0.4777170000000  0.5347610000000  0.5067980000000 1.0
C      1  0.4809830000000  0.5175420000000  0.4681250000000 1.0
C      1  0.4227520000000  0.5235240000000  0.4621430000000 1.0
C      1  0.4251650000000  0.4718540000000  0.4692630000000 1.0
C      1  0.4201110000000  0.4591140000000  0.5204870000000 1.0
C      1  0.4129980000000  0.5070460000000  0.5500200000000 1.0
C      1  0.4155180000000  0.5488630000000  0.5103500000000 1.0
C      1  0.5841590000000  0.5221990000000  0.4566470000000 1.0
C      1  0.5878030000000  0.4646800000000  0.4627760000000 1.0
C      1  0.5809370000000  0.4561900000000  0.5186290000000 1.0
C      1  0.5748020000000  0.5038050000000  0.5417370000000 1.0
C      1  0.5760440000000  0.5416000000000  0.5068830000000 1.0
C      1  0.3926800000000  0.5035700000000  0.5245870000000 1.0
C      1  0.3934500000000  0.5263490000000  0.5032490000000 1.0
C      1  0.3964880000000  0.5129710000000  0.4748920000000 1.0
C      1  0.3975810000000  0.4815050000000  0.4792250000000 1.0
C      1  0.3950360000000  0.4758820000000  0.5102920000000 1.0
C      1  0.6022610000000  0.5037000000000  0.5279800000000 1.0
C      1  0.6032210000000  0.5267450000000  0.5060540000000 1.0
C      1  0.6064290000000  0.5125750000000  0.4781770000000 1.0
C      1  0.6075380000000  0.4818190000000  0.4826690000000 1.0
C      1  0.6051590000000  0.4758310000000  0.5133380000000 1.0
C      1  0.5676350000000  0.5697700000000  0.5015360000000 1.0
C      1  0.5689380000000  0.5253270000000  0.4299360000000 1.0
C      1  0.5700190000000  0.4399450000000  0.4557790000000 1.0
C      1  0.5689660000000  0.4426730000000  0.5429070000000 1.0
C      1  0.5661120000000  0.5200470000000  0.5651110000000 1.0
C      1  0.4299770000000  0.5736310000000  0.4993650000000 1.0
C      1  0.4326160000000  0.5220350000000  0.4339640000000 1.0
C      1  0.4336870000000  0.4452260000000  0.4589720000000 1.0
C      1  0.4317310000000  0.4406370000000  0.5416670000000 1.0
C      1  0.4298780000000  0.5220240000000  0.5714840000000 1.0
C      1  0.5329670000000  0.5863350000000  0.3969860000000 1.0
C      1  0.5334400000000  0.4277890000000  0.3875240000000 1.0
C      1  0.5351680000000  0.3725800000000  0.5337420000000 1.0
C      1  0.5354280000000  0.4925500000000  0.6316250000000 1.0
C      1  0.5340440000000  0.6208490000000  0.5503040000000 1.0
C      1  0.4652070000000  0.5669770000000  0.3821700000000 1.0
C      1  0.4652480000000  0.4124040000000  0.3989180000000 1.0
C      1  0.4669840000000  0.3745880000000  0.5514900000000 1.0
C      1  0.4670390000000  0.5146990000000  0.6367840000000 1.0
C      1  0.4679880000000  0.6346030000000  0.5252120000000 1.0
C      1  0.5457650000000  0.5402400000000  0.5591410000000 1.0
C      1  0.5461820000000  0.5709020000000  0.4816610000000 1.0
C      1  0.5474310000000  0.5059510000000  0.4265640000000 1.0
C      1  0.5493720000000  0.4329240000000  0.4752800000000 1.0
C      1  0.5482740000000  0.4580680000000  0.5570790000000 1.0
C      1  0.4507140000000  0.5396120000000  0.5610180000000 1.0
C      1  0.4507570000000  0.5683960000000  0.4792560000000 1.0
C      1  0.4534050000000  0.5018710000000  0.4291820000000 1.0
C      1  0.4548010000000  0.4329430000000  0.4750420000000 1.0
C      1  0.4532840000000  0.4534360000000  0.5566950000000 1.0
C      1  0.5123340000000  0.5456300000000  0.4192100000000 1.0
C      1  0.5130060000000  0.4359040000000  0.4332640000000 1.0
C      1  0.5127800000000  0.4173450000000  0.5421680000000 1.0
C      1  0.5115410000000  0.5118460000000  0.5912510000000 1.0
C      1  0.5120150000000  0.5896920000000  0.5168630000000 1.0
C      1  0.4861680000000  0.5566400000000  0.4267740000000 1.0
C      1  0.4879610000000  0.4488660000000  0.4249900000000 1.0
C      1  0.4878970000000  0.4132600000000  0.5270050000000 1.0
C      1  0.4857600000000  0.4979010000000  0.5931040000000 1.0
C      1  0.4852530000000  0.5874030000000  0.5288440000000 1.0
C      1  0.5627320000000  0.5879270000000  0.5241130000000 1.0
C      1  0.5631570000000  0.5519690000000  0.4192170000000 1.0
C      1  0.5640270000000  0.4337930000000  0.4277160000000 1.0
C      1  0.5640540000000  0.4136930000000  0.5418470000000 1.0
C      1  0.5624960000000  0.5067670000000  0.5910170000000 1.0
C      1  0.4357760000000  0.5959460000000  0.5176130000000 1.0
C      1  0.4363470000000  0.5469970000000  0.4189550000000 1.0
C      1  0.4375110000000  0.4414460000000  0.4301250000000 1.0
C      1  0.4372170000000  0.4125300000000  0.5352650000000 1.0
C      1  0.4358260000000  0.5090800000000  0.5970900000000 1.0
C      1  0.5198210000000  0.5314800000000  0.5499560000000 1.0
C      1  0.5210750000000  0.5577780000000  0.4872520000000 1.0
C      1  0.5239790000000  0.5058760000000  0.4433810000000 1.0
C      1  0.5252920000000  0.4485150000000  0.4793610000000 1.0
C      1  0.5227630000000  0.4644390000000  0.5447010000000 1.0
C      1  0.4747370000000  0.5297740000000  0.5482640000000 1.0
C      1  0.4758100000000  0.5551890000000  0.4857120000000 1.0
C      1  0.4791890000000  0.5040310000000  0.4422170000000 1.0
C      1  0.4802570000000  0.4462990000000  0.4775050000000 1.0
C      1  0.4775480000000  0.4621470000000  0.5436530000000 1.0
C      1  0.4926350000000  0.5140590000000  0.6503510000000 1.0
C      1  0.4935950000000  0.6465980000000  0.5316320000000 1.0
C      1  0.4899620000000  0.5765090000000  0.3705050000000 1.0
C      1  0.4900700000000  0.4001420000000  0.3903410000000 1.0
C      1  0.4922610000000  0.3639440000000  0.5608760000000 1.0
C      1  0.5118120000000  0.4923780000000  0.6484900000000 1.0
C      1  0.5108860000000  0.6380990000000  0.5533400000000 1.0
C      1  0.5085540000000  0.5945450000000  0.3835790000000 1.0
C      1  0.5109890000000  0.4137270000000  0.3755100000000 1.0
C      1  0.5139950000000  0.3553130000000  0.5436960000000 1.0
C      1  0.5019870000000  0.4423220000000  0.5001560000000 1.0
C      1  0.4972100000000  0.5475190000000  0.5343400000000 1.0
C      1  0.4999520000000  0.5476380000000  0.4660340000000 1.0
C      1  0.5027050000000  0.4825950000000  0.4452110000000 1.0
C      1  0.4985680000000  0.4826660000000  0.5553470000000 1.0
C      1  0.4818890000000  0.4994330000000  0.4995760000000 1.0
C      1  0.5183560000000  0.5017350000000  0.5008110000000 1.0
END
